data_image0
_chemical_formula_structural       FeS2FeS2FeSFeS3FeNSFeSH2S2HNFeC2HC3H3CSH2C4H2C2SHC2HCH2C6H4C3H3C2HCHCH5C3HC4HCH2CHNH3CHCH2C2HC2H2CSH3NC2H3CHNSC2HSNHFeS2FeS2FeHFeS3FeS2FeS2FeSFeS3FeS2FeS2Fe2S3FeS2FeS2FeSFeS2HC6H5C6H4C6H4C6H4C6H4C6H4C6H4CNHFeCH2C2H7C2NC2HC3HCHCNCHCH2CHNCHSC2H2CHCSCHSH2CH3C2HCNC6H9C2H3CH3CHCHC2HC3HCHCH4NH4CHFeH2NH2CHC2H3CH4C4HC3HSCHNH2CH4C2SCFeS2FeSFeS3FeS2FeS2FeS2FeSFe2S2FeSHFeS2FeSHCSFeS2FeS2Fe2S3FeS2FeS2FeSFeS3CFeCSHC3SHSH3SHC3HFeSCH2C6H5CHC6H4C7H4C6H4C4H2NHC6H5FeHCHC6H4C6H3C7H4CHC2H2N2H3C2H2CH2CN2HCHC2H2FeNC6H8NCHC4H3CH2CH2CH3CNC6H10C3FeCH2C2H4CH2S2H2S2CHCHCN2HC4HCSHSH2CFeCHCHCHCH2SC3H6C2SH3NCH2C2H3CFeSFeS2FeSFeS3CHSFeS2FeS2FeSFeS3FeS2FeS2FeSFeS3FeS2FeS2FeSFeS3FeS2FeSCFeSFeS3HSHSH3FeS2FeS2FeS2FeSFeCS2HC2HN2HC5H4SCHC4NCH3C8H4C6H4C6H4C6H4C6H4CSH2C7H3SC2SC3H4CHSCHCHC6H4C6H5SH2NHCSC5SH3SHC4H4C2HNC7H5NHNC6H9NC6H8CH2CHCHC2H3C2NCH3C2NC6H8CHCH2CHC3HFeNCH8C6HCHCHC3H2CH4CFeH2FeCH3CHC2HCH3C3HCNC4HCHCH3C2NC2H2CH2NCH2C3H4C4HCHCHCH2CHC2FeHCH3C2HCH3C2H9CH2CH4NC2FeSFeS2FeSFeHS2FeSHNCH2SC2SHCSFe2SFeSH2FeS2FeS2FeSFeS3CH3CHCFeSNC6H6C6HC2NH3C6H3C8H4C6H4C2H3CNHCHC2H2CHC2HFeH3CSCH2CHCH2NC6H8CH7CSNH2SNCH2SCHC3H2CH3C4H2CSCHCHCS2HCFeS2FeS2FeSFeS3FeS2FeS2FeSFeS3FeS2FeS2FeHFeS3CFeHFeH2SFeSCHFeS2FeS2FeSFeS3FeS2FeS2Fe2S3NC4HCH3C6H4SC2HN2HC6H2C6H4C2HCHC2H2C6H4C6H4C6H4C6H4C6H4C6H3CH4NC6H8NC2HNC6H8NC6H8NC6H12C3H5CH2C6HSH4CHCHSCHCH2FeH2NC6H2CH5C3H3SCH2C2SHC2H3C3NH2SCNC3HC3SH3NCHC2H2CH2CSCH3CHCFeCH2C3HSH5CSC2HC2H3CHC2FeS2FeS2FeSFeS3FeS2FeSHFeSFeS3NCSCHNSCHFeS2FeS2Fe2S3FeS2FeSFeSFeS3HC6H5CH2C10H4C6H4C6H4C6H4C6H4C6H10CNC6H8CHNH2C2H3CNH2C2H4C3H3C4HC3H7SHNHCHC2H5CHC2NHCH2C2HCH3CFe2SFeCSH3FeCSFeSFeS2H2FeCSHCHSFeSHFeC2HC5H2S2C2NC8H4S2C2FeCH3C2S2HFeCH2CSHCNHSHC2H2SH2CNC2HFeCHCHSC2SC3H3C2H2CH5C3HCH2NH3C3H2C2H2C2HCH2FeHSCHSC3FeS2FeS2FeSFeS3FeS2FeS2FeSFeS3HCS4FeSH2SCFeS2FeS2FeSFeS3HC2H2C6H4CH2C2N2CHC6HC6H4C6H4C6H6CH2FeNHC7H4C6H5C6H5CHCHCH2FeC5H5C2H2CHC2NC2HC3HC2NCH2C2HNH3SH2SCHSH2CSC2H3C2Fe2H3CHNC6H8CH5CHCHCHC2NC3H3SH3C2HNCHC4H2CFeNH4SHC3SHC2HFeCHCHSHCFeH5SFeSFeS2FeSFeS3FeSCFeS2FeSFeS3FeS2FeS2FeSFeS3FeS2FeS2FeSFeS3FeS2FeS2FeSFeS3FeHSH4SH5CH3CH3C6H4C6H4C6H4CSC7H4C6H4C6H4C6H4C6H8C7H5C2HC3NH3CH7CH2SHFeC2H2C2HCNHC2SH4C2NC6H3C2HCH3CNH2C3N2HCHFeHCH2CHCSH3C2H2NH4CH2C2H3C6HC3H5C4SH2SC2HNCHCHCHCHC2FeHNC3H2C2HC2H3C2SNHC2HCH3CHSH5CHCH2NC3HCHCHCHSH2FeS2FeS2FeSFeS3FeS2FeS2FeSFeS3HCFeS2FeS2FeSFeS3FeS2FeS2FeSFeS3FeS2FeS2FeSFeS5FeSFeNSFeSHSH2CHC3H2CH2CHCH2C7H5CHC6H4C6H2FeHC6H6C7H4C6H4C2H2C2H4C6H4C6H4C4HNH2C7H4C3H3NC6H2CHCH3NC6H8NC6H8NC6H9CHCH2C2H2CNC6H7C2HSH4C4H5CHCH2C2H3SN2C6H10CNSC2H3NCHC2HC3HCHCNC5HCHNC2HCHC3H2C3HC2HCH2CH2CHFeH2C3HCSCNHCH2CHCFeS2FeS2FeSFeS3FeS2FeS2Fe2S3HFeHSFeS2FeSCSHFeS2FeS2FeSFeS3FeS2FeS2FeSFeS3H4C2H4C6H6C6H4C2HC2HNH2NHC8H4C6H6C6H4C6H4C6H3C6H4CH4NHCHC5HC2HCHC2HNC6H11C3HC2NCNC3HCHNH2SCSNC2H7CHCHCHCHCNC3H5C3H11CHC2HCHCNC2H3C3HCSHSFeSHSHSC2SFeSFeSH4C5H2SCFeNC6H4C2HCHC2FeC2HCHCHCH2CSNC3HC3HC4HCHCH5FeSH2CH2SNH3SHC3HCSHCH3SHFeS2FeS2FeSFeS3HFeS2FeS2FeSFeHS2CFeSFeS3FeS2Fe2HFeS2C2HC2HCHC5H2C3H2CHCHCH2C2HCSHSHC6H4C6H4C6H4C6H3CHNC4HC2HCH2NCNSHFeCHCH4CH7CH2C5H7C3H4CHCHC8H2CH3CSHCHNHCHC3HC3HCH3C3NS2CH2NH6C2HC10H2NH5FeSFeS2FeSFeS3FeS2FeS2FeSFeS3FeS2FeS2FeSFeS3FeS2FeS2FeSFeS3FeHSFe2SH3S2FeS2FeS2FeSFeS3CHSFeSC2NHFeCSFeS2H2CS3FeH2CHCHCH6C2H2C2HSC5H4C2HCHC6HCH2C6H4C3HNCH2CH4C2H2C9HFeHC6H4C6H4C6H4C6H4C6H4C3H3C6H4C6H4C6H3SHCH2CNH2NCHCHCNHSH2CHCHNC3H5C4H4NC6H8NC6SHNCHC2FeHCNH2FeCH3C2HFeH6SHCSC4H5CH3NC2HCHC2H3CHSC3HC3HNH4NSCH3CHC2H2CNCH2C3HC2H3CH2CHCHCH3CSH2CSH2CH2CSH2SHFeS2FeS2FeSFeS3FeH2CSHFeSFeSC2SCH5CHC3H2CHC8HC7H5CH5NSCNC2H2CHC2HCHCHNHFeH2CH5CNC2H2C3SH3CH2C2H2SH3C5HCHC5SCH2CHNH2CSH4FeS2FeS2FeSFeS3FeSFeS2FeSFeS4H2CH2CHC2H5FeSCSCFeS2FeS2FeSFeS3FeS2FeSCFeSFeS3CH2CH2C6H4C6H6SCH2CNCHCSC4HFeHC3H3CHCHC6H4C6H4C6H4C6H4C6H4C6HCNH4SNC6H8CNCH2FeH7CSNC6H5CHNCH3CH3C2HC2HCH2SCHC3HNCHCH3C2HNH2NC4SHCSFeC2HCH4CNC6H9C8SH6CHCH3SH3CFeS2FeS2FeSFeCS2HFeS2FeSCFeSFeS3FeS2FeS2FeSFeS3FeS3FeS2FeS2FeSFeCS3C2HSCHSHSHFeC3HFeC2S2FeHCHCHCNCSC2HNCHSCH5CHC6FeH2CNH2C3H3NC2FeC5H2SCFeCHC6H4C6H4C7HCH2C6H4C6HSH3SC6H5C3H5CH2C2NC6H8CH2C2H3C2H3CN2C6H8NC6H2C3S3CHC3SH5SH6CHCSHCH5CHCH3CHFeNSH2CHSCSCSCH2CHCNFeHCH2CNH6CH2CHC2HC2NC2HC3HC3H3CH2FeH3CH3CHCH2SC3NH2CHC4HCHCHCHCHC2H4CH2CHCH2C4NH3NC4H2C2FeHC2H4CHFeS2FeS2FeHFeS3FeS2FeS2FeSFeS3FeS2FeS2FeSFeNS2FeS2CSFeSFeS3FeS2FeS2FeSFeS3CHSHCFeSHFeHSFeCS2CSFeS2FeS2FeCFeHS2FeS2FeS2FeSFeS3C6H5C7H3C2NCFeC2H2CHC5H2CHC10H4C6H4C6H4C6H5NCHNH2C7H4C6H4C6H4CHCH2CH4C5HCHC6H4C6H6NC4H2NC4H5NC6HCH7C2NH2CHSCHNH2SCHCHCHCH4CHC3H3C6HNC6H11CH2CH4CH3C2HCH2NCHCH2CHCHCH3C2SC2H3CH2CNCH2CH10CSCHCNHC2HNCHCHSH2C2H2SFeHC3H8CHC2H3CHSH3NFeCHFeS2FeS2FeSFeS3FeHSHCNS2NHNC2HC6H4C4H2C6H3SCHFe2H5SCHS2C2HCH2CHC2H2CHSCH2CHCH2S2FeH3CHCHCNC6H8C3HCSCH3CHC2H3C3HNCHC5NCHC3H3CSHCHCH2CH3SHFeS2FeS2FeSFeS3HCHC3HC7H4CHC7H3CHFeCHNCSH2C2HCHC2H2C2H3C2SCH2NHC4H2CHCH2C3H2CH2CHNH2C2H4SCNH2C3HC2HCSC2FeS2FeS2FeSFeS3FeS2FeS2FeSFeS2HC2HCHCH3FeS2HCFeSFeS3FeS2FeS2FeSFeS3FeS2FeS2FeSFeS3HCH3C4H4C6H4C6H4CHCHC5H2C3SHC5HCH3CHCNHC7H4C6H5C6H4C6H4CH2C4H2C6H5CSH2C2HC2H6NHC4H3NH2CH5C2HNH2NC3HC2H3C2H3CHSCHC2HC2HNC3H4CHC2HSC2NCHCH4CHSNHCNC6H8NC6H8CH2C2H5CH5CSH3C2H4FeCSFeNSC2H2S2H2SC2HSH2SFeS2FeS2FeSFeHSNFeS3HFeS2FeS2FeSFeS3FeSFeS2FeHFeHS2FeS2FeS2FeSFeS3CHCFeC6H4CHC6H2C8H4CHC3NCH4SC6H4C6H4CHSNC5H3CH2C6HNH2C6HCH2C2SCH4CNSFeC3FeCH2C3HC2H2CH2CHSCSNC3SH2C2H2NC6H8NC6H8FeCHCHC2H3SCHCHCH5CH2C3HC2NH3FeC2SH3FeC3HCHCHCH2CHCHC2HSHCH6NH5NH2CHC3HC4H3CHC4HC2SHCHNHCSHCH2CHCHCHNCHC2HC2H3C2H2C2H2C2FeCHCH3CHFeSFeCSFe2HSHFeSFeS2FeSFeS3CNHSFeS2Fe2SCNFeS2FeS2FeSFeS3CFeS2FeS2FeSFeS3FeS2FeS2FeSCSFe2S2FeSCFeSFeS3H2SC6H4C6H4C6H4C6H4NC6H4C6SH4CHC4H3C2H2CH2C6H4C4SCH2CHC2H2CHC2NC6H5CH2SH2CHC2H2CSCFeSC3HC6HC3HCH3C2H3CH3C3H2SCH2CHCH2CHCNC2H2S2H2C3HCNH2NC6H8CH2NH2CSNC3H5N2C6H8NC6H13C2HSC4SCH2CHC4NHC3HCH4CH2CHC2H7CHCHCH2CHNH2FeHC2SHSH2CHCHC2HNCSH3CHCHCH2Fe2HSFeSHS2H2SH2SHSH2NC2FeS2FeS2FeSFeHS2FeCSFeS2FeH2S2C6H4NCNCNHC2H3SC2NC3HCH2C2H2C4HSHCHFeC4HC3HCH2C6H8CNHCH2CHCH3CHCH4CHC2HCHC3FeCH3CHSC2H2C3H2SHNCH2CHCSC6HC2FeHCSHC2H3CHCSH5CFeNSFeS2FeCFeS3H3SH2CSH2FeS2FeS2FeSFeS3FeS2FeS2FeSFeS3FeS2FeS2FeSFeS3FeS2FeS2FeSFeS3FeS2FeS2FeSFeS3CHSC6H4C6H5FeHC4HC2HCFeCHC6H4C6H4C6H4CHCH2C7H4C6H4C6H3SC6H7C6H4C2HC2H2CSCHCHCHCHCNC4H6C2HCNCNC6H4CH3CH3CHC4H4CHCHNCH2CNC2H4NC6H8NC6H8NC6H8NHC3NHCH3NH2CNC6H8CH2CHCHC2HCH2CH4CNCH2C2HC2HC2HCH8CSCFeHSNFeC2HCHCFeS2FeS2FeSFeS3FeS2FeSFeSFeS3FeS2FeS2FeSFeS3FeS2FeSHFeSFeS3HNH2NFeHFeSCSH2C6H4C6H4C3HCNH2CHCHC6H4C6H4C6H4C6H2CHC6H4C6H3C2HNC6H8CH4SNCH2SCH2CH2CSC2H3C4HCSNH2C2HCH3CHC2NC6H8NC6H11CHCH2NC6H8CH4CHCH3SCFeHSHCSFeSFeHCNS2FeC6H5CHCSCH2C2HCFeSH2C2HC3HC4HCH2C2HSHCSH3CFeCSHFeC2HFeSCSHS2H4C2HSC5HCH2CHCNH2CSHCNHCH4C3HCHCFeS2CHC3H3CSHFeSNFeS2FeSFeS3FeS2FeS2FeSFeS3FeS2FeS2FeSFeS3FeS2FeS2FeSFeS3H3CFeHC6H4C6H6CH4C4HCH2CHC6H4C6H4C3SHCHC4HCH5CHC6H4C6HNH3C7H4C2H2CHNH7NC2HSHCH2CH2C7H3CHC2SCNCHCH2C3HC2H4CSC4HCH3CFeC2H8NCHC4HCHC3H2C2H3CHC2NCH2NHCHC3HSCH10NC4NCHCSCNC3HCNCH2C3SFeS2C2FeSFeSHSHFeS2FeSFeS3FeS2FeS2FeSFeS3FeS2FeS2FeSFeS3CHFeSCSFeS2FeS2FeSFeS3FeS2FeS2FeSFeS3C6H4C6H4C6H4CSHCH2C2HNC6H4C6H4C6H4C6H4C6H4C4H2C6H4CHC6H2C2H2CHCHCHNCH4CHCH2C3H4NC6H8FeC2H2N2H5NSHC3SH3C3NC2H4NC6H10CHCHC2H4C2H2C3H2C2H2CNHCH3SHCH2CHCHCHC5HCH4C2NH2CH2CHC3HNHCHC2H2CSCH2C4H2FeC2H2CSCFeSHCH7CH2CSCFeCHFeS2FeS2FeSFeS3FeS2FeS2FeSFeS3FeSHFeS2FeHFeS3FeS2FeS2FeSFeS3FeS2FeSCFeSFeS3HS4CHNSHC4HC6H4C6H4C6HCH2C6H4C6H4C6H4CH2C4H3C2HCHC6H4C2FeCHCH4C8H2C2H5C2NSN2C6H9C2HCH2CHCH4NC6HCHFeH4NC6H8NC6H10CH4CHNH3CHCNCH3C2H2CHCH6NHCHCH2C3HC3HCH6NC6SHCH3C4H2CH5NC3H4SHSHC3H2CHFeS2FeS2FeSFeS3FeS2FeS2FeSFeS3CFeS2FeS2FeSFeS3FeS2FeS2FeSFeS3FeS2FeS2FeSHS2C3HNH2C7H7CHCNHC2H2C6H4C6H4C6H4C6H4C3HCH4C7H4C6H4C6H5CHC2H2NH4C3H2CH3C2NFeC3H3SH5CHC2HCHC2HC2HCHCHCS2C2NCH2CHNH2CHNC6H8C5H3NH2CHC4HCH2C2HCHCHCHCHCH3C5FeH4CHC2H9CHC2HSC2NCHNHCSCFeHFeS2C2S2CSFeCSFeS2FeCFeHS2C4HFeH3SCHCH2C6H3S2CHNSHC6H3CH2C4NH3FeHC3NCHC2HCH4SNHCHC3H2C2H4CH3SC2H3CNCFeCH2C2HCHCFeH3CH2C2H2C2H2CSCH2FeSHCSFeSFeS2CFeS2FeSFeSFeS3FeS2FeS2FeSFeS4HFeS2FeS2FeSFeS3CH2CHC6H4C6H6C9H4C8H4C8H4CNCHCH2C4H5CH3CHSH2NC6H11CNC3H2CH2C3NH3SC3HCH4C3H2CHNCNC2H3NH2C2HC2H3SHC4SCHCH4CHNC3SCHC4HC2HFeH3CH2NHCHCHNH4FeS2FeS2FeS2FeSFeS3HFeHSH2S3FeSCFeS2FeSFeS3FeS2FeS2FeSFeS3FeS2FeS2FeSFeS3CSFeS2FeSFeSC7H4C6H4C6H6SH2FeCHFeHC6H3C6H4C7H3FeCHSC7H4C6H5NCHC7H3C6H5C4H3CNFeHC2NFeHNHC2H2CNC6H8NC5H4CHSH2CH2SHNH2NC6H8C6H2C2SH2SH2C2HCHFeHCHCH4NC6H8CSH3CH2CNC2H6CSCNC6H8CH2C2HCHCH3C2H5C2HSHCHFeHSFeS2FeSHCS2NSH2SCFeSFeSHSH2FeSFeSHCHFeSH2C7HCH3SC3NC2H2C2SC3H2C6H4CH3CHCHCHNCH2NH2CHC2H4CH3CHCHCHCHCHCH4C2HCFeCHC2SC3FeHFeSHC2S2C3HC3SFeH3SHFeS2FeS2FeSFeS3FeS2FeS2FeSFeS3HFeS2FeS2FeSFeS3FeS2FeSHFeSFeS3FeS2HSFeSFeS3HSCFeSHCHSHC2HCFeS2C5H2C4NHCH2CH2C4H2NCHC7H4C4HCHCFeHC5H2CN2C7H4C6H4C6H4C6H4C4H2C6H4C6H4C6H4CH2C3HCHNC6H9CFeH2CH2C2HNC6H11CH2NHCFeHCFeC3H2CSCH2CH3CH2NHNC2HCH2CH2C2HCHC2HCH3NCHC7H4C3SCHNHC3H2CHNHNH2CHCHSC2H3CHC2H2SH3NCHC2H2CH2CH3FeSCH2CH2CHCS2H2FeCNHCSFeHCH3SFeHSHCHCS2FeSH3SH2FeHS2CHSFeS2FeS2FeSFeS3C2SC2FeS2FeS2FeSFeS3C6H4SH2C6H4C6H4C6H4CSC4HC6HSH2CHC2H2CHNC3HNH2CH2C7H5C7SH5CH5FeCHCHCH2NSHNC4HC2H2C2H5C2HNC6H8NC6NH3SC2HCH2C2HC2HC2HCFeCNC2SH4C2FeCFeHSH2CH2CH3NCHCHCHCHSHCH2SH9SCH2CH4CHC2H2CSC2NHSH2CHSC3HCHSCH4FeHSH3C2H3Fe2H4S2FeS2FeS2FeSFeS3NFeHC2SNSFeS3FeS2FeS2FeSFeS3CH2S2HSCNHC3H2CFeS2FeHSFeC3S2FeS3CFeSFeHS2C7H3CHNH2SCHCSC7H4C2HFeCHC8H4C2FeHSHCHCH2C2H5CHC7H4C6H4C6H4C6H4C4HCH2NHNC2SHNCH2FeH2C3HNC6H8SC2NC6H9CH2CHC2HSNH3FeC4HCHC2HCFeSCFeHSCH2CH2NH2CH2C2H2C2HSFeH4CH2S2C2H2C2H7CH2FeCHCFeHC2H4CH2CNHCFe2S2HCH2NSFeS2FeSFeSCSFeS2FeS2FeSFeS3NSC3H2C6H4CHC10H2C6H4C6H4CH2C2FeHC5HS2HC2H3CHCHNC2HCSH4CFeH3CH3C3HCSCH2CH4CH5CH2NCHCH4CHFeSH2CHNC2H2CH4C4Fe
_chemical_formula_sum              "Fe768 S1536 N384 H4608 C4608"
_cell_length_a       127.233
_cell_length_b       128.086
_cell_length_c       128.51
_cell_angle_alpha    74.1142
_cell_angle_beta     74.051
_cell_angle_gamma    74.1266

_space_group_name_H-M_alt    "P 1"
_space_group_IT_number       1

loop_
  _space_group_symop_operation_xyz
  'x, y, z'

loop_
  _atom_site_type_symbol
  _atom_site_label
  _atom_site_symmetry_multiplicity
  _atom_site_fract_x
  _atom_site_fract_y
  _atom_site_fract_z
  _atom_site_occupancy
  Fe  Fe1       1.0  0.39743  0.21508  0.13539  1.0000
  S   S1        1.0  0.38781  0.20251  0.13631  1.0000
  S   S2        1.0  0.38916  0.22962  0.14343  1.0000
  Fe  Fe2       1.0  0.41925  0.20135  0.12504  1.0000
  S   S3        1.0  0.41155  0.18749  0.12515  1.0000
  S   S4        1.0  0.43749  0.20095  0.11830  1.0000
  Fe  Fe3       1.0  0.39807  0.20166  0.11912  1.0000
  S   S5        1.0  0.38985  0.20424  0.10490  1.0000
  Fe  Fe4       1.0  0.40210  0.18965  0.14235  1.0000
  S   S6        1.0  0.39915  0.17815  0.15932  1.0000
  S   S7        1.0  0.40655  0.21528  0.11783  1.0000
  S   S8        1.0  0.41104  0.20243  0.14254  1.0000
  Fe  Fe5       1.0  0.41631  0.21873  0.04278  1.0000
  N   N1        1.0  0.42844  0.22741  0.09000  1.0000
  S   S9        1.0  0.42251  0.20662  0.05741  1.0000
  Fe  Fe6       1.0  0.41665  0.22551  0.01788  1.0000
  S   S10       1.0  0.42194  0.22185  0.00064  1.0000
  H   H1        1.0  0.38593  0.23092  0.05636  1.0000
  H   H2        1.0  0.44351  0.21953  0.08031  1.0000
  S   S11       1.0  0.42945  0.22371  0.02777  1.0000
  S   S12       1.0  0.40416  0.21885  0.03274  1.0000
  H   H3        1.0  0.36537  0.23506  0.09413  1.0000
  N   N2        1.0  0.46293  0.22401  0.03951  1.0000
  Fe  Fe7       1.0  0.39803  0.23678  0.03388  1.0000
  C   C1        1.0  0.40844  0.14030  0.17069  1.0000
  C   C2        1.0  0.38296  0.23702  0.99150  1.0000
  H   H4        1.0  0.37261  0.23464  0.02308  1.0000
  C   C3        1.0  0.41326  0.21832  0.99406  1.0000
  C   C4        1.0  0.40340  0.21476  0.99996  1.0000
  C   C5        1.0  0.39653  0.21246  0.99430  1.0000
  H   H5        1.0  0.40110  0.21373  0.00888  1.0000
  H   H6        1.0  0.38893  0.20969  0.99892  1.0000
  H   H7        1.0  0.43772  0.15460  0.14399  1.0000
  C   C6        1.0  0.41621  0.21944  0.98250  1.0000
  S   S13       1.0  0.41009  0.12577  0.17540  1.0000
  H   H8        1.0  0.37307  0.14278  0.17066  1.0000
  H   H9        1.0  0.44264  0.22712  0.06140  1.0000
  C   C7        1.0  0.42433  0.23430  0.09733  1.0000
  C   C8        1.0  0.40324  0.16359  0.16322  1.0000
  C   C9        1.0  0.40626  0.15670  0.15563  1.0000
  C   C10       1.0  0.40877  0.14507  0.15939  1.0000
  H   H10       1.0  0.40634  0.16032  0.14696  1.0000
  H   H11       1.0  0.41073  0.13974  0.15357  1.0000
  C   C11       1.0  0.44050  0.21354  0.11821  1.0000
  C   C12       1.0  0.43252  0.22135  0.12368  1.0000
  S   S14       1.0  0.45748  0.23651  0.06746  1.0000
  H   H12       1.0  0.42847  0.15309  0.16380  1.0000
  C   C13       1.0  0.45313  0.22626  0.11154  1.0000
  C   C14       1.0  0.45085  0.21595  0.11228  1.0000
  H   H13       1.0  0.42451  0.21954  0.12832  1.0000
  C   C15       1.0  0.43485  0.18101  0.14563  1.0000
  H   H14       1.0  0.46115  0.22802  0.10698  1.0000
  H   H15       1.0  0.45707  0.20991  0.10810  1.0000
  C   C16       1.0  0.39900  0.20502  0.09174  1.0000
  C   C17       1.0  0.39468  0.20985  0.08216  1.0000
  C   C18       1.0  0.40185  0.21057  0.07159  1.0000
  C   C19       1.0  0.41333  0.20614  0.07054  1.0000
  C   C20       1.0  0.41763  0.20120  0.08013  1.0000
  C   C21       1.0  0.41052  0.20083  0.09070  1.0000
  H   H16       1.0  0.38577  0.21300  0.08288  1.0000
  H   H17       1.0  0.39846  0.21425  0.06424  1.0000
  H   H18       1.0  0.42649  0.19767  0.07937  1.0000
  H   H19       1.0  0.41392  0.19703  0.09803  1.0000
  C   C22       1.0  0.43492  0.23158  0.12316  1.0000
  C   C23       1.0  0.37035  0.22605  0.11983  1.0000
  C   C24       1.0  0.37028  0.22933  0.10018  1.0000
  H   H20       1.0  0.43671  0.17641  0.12435  1.0000
  H   H21       1.0  0.44556  0.22608  0.08996  1.0000
  H   H22       1.0  0.44780  0.16452  0.12744  1.0000
  C   C25       1.0  0.43039  0.16094  0.15878  1.0000
  C   C26       1.0  0.42942  0.18044  0.15676  1.0000
  H   H23       1.0  0.40470  0.22917  0.08196  1.0000
  C   C27       1.0  0.44516  0.23411  0.11692  1.0000
  H   H24       1.0  0.38573  0.23369  0.07471  1.0000
  C   C28       1.0  0.43562  0.16186  0.14756  1.0000
  H   H25       1.0  0.42273  0.16983  0.17193  1.0000
  H   H26       1.0  0.47169  0.20798  0.04611  1.0000
  H   H27       1.0  0.37932  0.22860  0.09625  1.0000
  H   H28       1.0  0.40084  0.16410  0.18036  1.0000
  H   H29       1.0  0.43645  0.18894  0.14053  1.0000
  C   C29       1.0  0.37543  0.23525  0.01418  1.0000
  C   C30       1.0  0.44010  0.22125  0.08874  1.0000
  C   C31       1.0  0.39928  0.21397  0.98269  1.0000
  H   H30       1.0  0.43213  0.23377  0.04654  1.0000
  C   C32       1.0  0.44320  0.17272  0.12938  1.0000
  C   C33       1.0  0.37369  0.23229  0.99703  1.0000
  C   C34       1.0  0.40586  0.14723  0.17816  1.0000
  C   C35       1.0  0.46786  0.23261  0.03846  1.0000
  H   H31       1.0  0.42979  0.23557  0.10183  1.0000
  C   C36       1.0  0.38140  0.14259  0.17193  1.0000
  H   H32       1.0  0.37388  0.21733  0.11979  1.0000
  H   H33       1.0  0.42670  0.18785  0.16017  1.0000
  C   C37       1.0  0.42721  0.17032  0.16336  1.0000
  H   H34       1.0  0.42479  0.22012  0.07869  1.0000
  N   N3        1.0  0.43793  0.17178  0.14118  1.0000
  H   H35       1.0  0.37066  0.22400  0.13705  1.0000
  H   H36       1.0  0.38402  0.15047  0.16714  1.0000
  H   H37       1.0  0.47241  0.23244  0.04454  1.0000
  C   C38       1.0  0.40313  0.15881  0.17446  1.0000
  H   H38       1.0  0.45666  0.21056  0.05129  1.0000
  C   C39       1.0  0.44238  0.23548  0.05650  1.0000
  H   H39       1.0  0.44930  0.17821  0.12679  1.0000
  H   H40       1.0  0.44066  0.21323  0.09490  1.0000
  C   C40       1.0  0.45709  0.22429  0.03191  1.0000
  C   C41       1.0  0.42154  0.22564  0.08445  1.0000
  H   H41       1.0  0.46495  0.21671  0.05609  1.0000
  C   C42       1.0  0.41017  0.23079  0.08623  1.0000
  C   C43       1.0  0.46416  0.21431  0.04868  1.0000
  H   H42       1.0  0.36289  0.22755  0.01288  1.0000
  H   H43       1.0  0.45320  0.21746  0.03272  1.0000
  C   C44       1.0  0.36995  0.23136  0.00846  1.0000
  S   S15       1.0  0.40892  0.23605  0.04518  1.0000
  H   H44       1.0  0.36972  0.22904  0.99249  1.0000
  H   H45       1.0  0.36829  0.22101  0.10191  1.0000
  H   H46       1.0  0.38769  0.13577  0.16844  1.0000
  N   N4        1.0  0.36784  0.23335  0.11041  1.0000
  C   C45       1.0  0.36850  0.22974  0.12961  1.0000
  C   C46       1.0  0.45569  0.23355  0.02321  1.0000
  H   H47       1.0  0.45068  0.23396  0.01744  1.0000
  H   H48       1.0  0.42874  0.23760  0.12739  1.0000
  H   H49       1.0  0.38600  0.23739  0.98267  1.0000
  C   C47       1.0  0.40590  0.23781  0.09371  1.0000
  H   H50       1.0  0.46277  0.10896  0.21271  1.0000
  N   N5        1.0  0.45698  0.08004  0.21581  1.0000
  S   S16       1.0  0.32265  0.07022  0.36451  1.0000
  C   C48       1.0  0.36373  0.05398  0.26299  1.0000
  C   C49       1.0  0.36492  0.08955  0.33063  1.0000
  H   H51       1.0  0.33055  0.05192  0.32495  1.0000
  S   S17       1.0  0.26602  0.08251  0.36538  1.0000
  N   N6        1.0  0.34550  0.09376  0.33972  1.0000
  H   H52       1.0  0.41666  0.06387  0.25007  1.0000
  Fe  Fe8       1.0  0.40127  0.11187  0.21735  1.0000
  S   S18       1.0  0.40380  0.10363  0.20325  1.0000
  S   S19       1.0  0.38545  0.11411  0.23040  1.0000
  Fe  Fe9       1.0  0.42463  0.11619  0.21061  1.0000
  S   S20       1.0  0.42925  0.10835  0.19596  1.0000
  S   S21       1.0  0.43657  0.12411  0.21415  1.0000
  Fe  Fe10      1.0  0.41225  0.11763  0.19296  1.0000
  H   H53       1.0  0.35738  0.07306  0.26998  1.0000
  Fe  Fe11      1.0  0.42048  0.09520  0.20753  1.0000
  S   S22       1.0  0.42923  0.07720  0.20936  1.0000
  S   S23       1.0  0.40827  0.12656  0.20680  1.0000
  S   S24       1.0  0.41727  0.10236  0.22245  1.0000
  Fe  Fe12      1.0  0.38213  0.07427  0.30262  1.0000
  S   S25       1.0  0.38972  0.06105  0.29287  1.0000
  S   S26       1.0  0.39274  0.08419  0.30537  1.0000
  Fe  Fe13      1.0  0.35851  0.07216  0.30503  1.0000
  S   S27       1.0  0.36398  0.05912  0.29483  1.0000
  S   S28       1.0  0.34006  0.07768  0.31232  1.0000
  Fe  Fe14      1.0  0.37716  0.05186  0.30478  1.0000
  S   S29       1.0  0.38154  0.03344  0.31073  1.0000
  Fe  Fe15      1.0  0.37612  0.06933  0.28361  1.0000
  S   S30       1.0  0.38280  0.06898  0.26558  1.0000
  S   S31       1.0  0.37104  0.06415  0.31575  1.0000
  S   S32       1.0  0.36921  0.08336  0.29255  1.0000
  Fe  Fe16      1.0  0.41833  0.01648  0.25525  1.0000
  S   S33       1.0  0.42193  0.01528  0.23744  1.0000
  S   S34       1.0  0.42986  0.01907  0.26441  1.0000
  Fe  Fe17      1.0  0.39453  0.01369  0.25971  1.0000
  S   S35       1.0  0.39586  0.01242  0.24235  1.0000
  S   S36       1.0  0.37823  0.01385  0.27201  1.0000
  Fe  Fe18      1.0  0.41260  0.00131  0.24386  1.0000
  Fe  Fe19      1.0  0.40488  0.02639  0.23749  1.0000
  S   S37       1.0  0.39958  0.04110  0.22435  1.0000
  S   S38       1.0  0.41056  0.00150  0.26175  1.0000
  S   S39       1.0  0.40201  0.02868  0.25477  1.0000
  Fe  Fe20      1.0  0.45663  0.08734  0.26433  1.0000
  S   S40       1.0  0.46423  0.07895  0.27912  1.0000
  S   S41       1.0  0.45204  0.10586  0.25967  1.0000
  Fe  Fe21      1.0  0.45894  0.06582  0.25748  1.0000
  S   S42       1.0  0.46731  0.05553  0.27130  1.0000
  S   S43       1.0  0.45403  0.05972  0.24499  1.0000
  Fe  Fe22      1.0  0.45389  0.06641  0.28154  1.0000
  S   S44       1.0  0.44327  0.05837  0.29703  1.0000
  Fe  Fe23      1.0  0.47692  0.06904  0.26750  1.0000
  S   S45       1.0  0.44501  0.07592  0.26791  1.0000
  S   S46       1.0  0.46982  0.07829  0.25250  1.0000
  H   H54       1.0  0.45173  0.10640  0.20082  1.0000
  C   C50       1.0  0.43673  0.03024  0.25873  1.0000
  C   C51       1.0  0.44296  0.03255  0.26497  1.0000
  C   C52       1.0  0.44839  0.04150  0.26078  1.0000
  C   C53       1.0  0.44771  0.04814  0.25025  1.0000
  C   C54       1.0  0.44156  0.04577  0.24396  1.0000
  C   C55       1.0  0.43600  0.03690  0.24822  1.0000
  H   H55       1.0  0.44357  0.02741  0.27310  1.0000
  H   H56       1.0  0.45309  0.04324  0.26571  1.0000
  H   H57       1.0  0.44097  0.05090  0.23585  1.0000
  H   H58       1.0  0.43120  0.03518  0.24335  1.0000
  H   H59       1.0  0.48758  0.07456  0.28565  1.0000
  C   C56       1.0  0.37892  0.01855  0.28335  1.0000
  C   C57       1.0  0.38892  0.01574  0.28703  1.0000
  C   C58       1.0  0.38950  0.01981  0.29590  1.0000
  C   C59       1.0  0.38029  0.02716  0.30070  1.0000
  C   C60       1.0  0.37028  0.02995  0.29703  1.0000
  C   C61       1.0  0.36955  0.02549  0.28849  1.0000
  H   H60       1.0  0.39618  0.01033  0.28313  1.0000
  H   H61       1.0  0.39722  0.01754  0.29879  1.0000
  H   H62       1.0  0.36308  0.03544  0.30085  1.0000
  H   H63       1.0  0.36179  0.02761  0.28571  1.0000
  C   C62       1.0  0.42928  0.06565  0.29936  1.0000
  C   C63       1.0  0.42659  0.07728  0.29697  1.0000
  C   C64       1.0  0.41536  0.08296  0.29921  1.0000
  C   C65       1.0  0.40679  0.07703  0.30339  1.0000
  C   C66       1.0  0.40948  0.06541  0.30558  1.0000
  C   C67       1.0  0.42071  0.05973  0.30373  1.0000
  H   H64       1.0  0.43321  0.08187  0.29372  1.0000
  H   H65       1.0  0.41330  0.09194  0.29763  1.0000
  H   H66       1.0  0.40292  0.06077  0.30899  1.0000
  H   H67       1.0  0.42278  0.05074  0.30569  1.0000
  C   C68       1.0  0.44039  0.11880  0.22702  1.0000
  C   C69       1.0  0.44394  0.12571  0.23147  1.0000
  C   C70       1.0  0.44740  0.12169  0.24155  1.0000
  C   C71       1.0  0.44770  0.11061  0.24704  1.0000
  C   C72       1.0  0.44434  0.10357  0.24253  1.0000
  C   C73       1.0  0.44045  0.10774  0.23263  1.0000
  H   H68       1.0  0.44395  0.13425  0.22715  1.0000
  H   H69       1.0  0.44998  0.12716  0.24501  1.0000
  H   H70       1.0  0.44456  0.09498  0.24674  1.0000
  H   H71       1.0  0.43785  0.10231  0.22916  1.0000
  C   C74       1.0  0.42065  0.06744  0.21407  1.0000
  C   C75       1.0  0.42512  0.05645  0.21886  1.0000
  C   C76       1.0  0.41856  0.04841  0.22241  1.0000
  C   C77       1.0  0.40762  0.05125  0.22078  1.0000
  C   C78       1.0  0.40315  0.06223  0.21594  1.0000
  C   C79       1.0  0.40959  0.07036  0.21277  1.0000
  H   H72       1.0  0.43371  0.05413  0.21974  1.0000
  H   H73       1.0  0.42209  0.03995  0.22608  1.0000
  H   H74       1.0  0.39474  0.06444  0.21454  1.0000
  H   H75       1.0  0.40613  0.07878  0.20896  1.0000
  C   C80       1.0  0.38439  0.10158  0.24010  1.0000
  C   C81       1.0  0.37722  0.10164  0.25056  1.0000
  C   C82       1.0  0.37678  0.09167  0.25855  1.0000
  C   C83       1.0  0.38333  0.08162  0.25597  1.0000
  C   C84       1.0  0.39031  0.08154  0.24545  1.0000
  C   C85       1.0  0.39094  0.09151  0.23757  1.0000
  H   H76       1.0  0.37215  0.10942  0.25254  1.0000
  H   H77       1.0  0.37130  0.09178  0.26664  1.0000
  H   H78       1.0  0.39534  0.07377  0.24338  1.0000
  H   H79       1.0  0.39645  0.09137  0.22950  1.0000
  C   C86       1.0  0.32705  0.07211  0.35001  1.0000
  C   C87       1.0  0.31958  0.07671  0.34292  1.0000
  C   C88       1.0  0.32363  0.07836  0.33136  1.0000
  C   C89       1.0  0.33514  0.07534  0.32685  1.0000
  C   C90       1.0  0.34253  0.07068  0.33399  1.0000
  C   C91       1.0  0.33852  0.06912  0.34549  1.0000
  H   H80       1.0  0.31071  0.07910  0.34635  1.0000
  H   H81       1.0  0.31783  0.08200  0.32589  1.0000
  H   H82       1.0  0.35137  0.06841  0.33071  1.0000
  H   H83       1.0  0.34435  0.06558  0.35094  1.0000
  C   C92       1.0  0.41877  0.04776  0.27982  1.0000
  N   N7        1.0  0.34285  0.04441  0.33474  1.0000
  H   H84       1.0  0.46078  0.06228  0.22055  1.0000
  Fe  Fe24      1.0  0.27954  0.07621  0.37508  1.0000
  C   C93       1.0  0.24716  0.09847  0.36386  1.0000
  H   H85       1.0  0.23200  0.11073  0.36218  1.0000
  H   H86       1.0  0.25042  0.09958  0.35500  1.0000
  C   C94       1.0  0.23673  0.10478  0.36793  1.0000
  C   C95       1.0  0.37808  0.14864  0.19972  1.0000
  H   H87       1.0  0.25037  0.06538  0.37760  1.0000
  H   H88       1.0  0.34825  0.09900  0.31192  1.0000
  H   H89       1.0  0.46985  0.09289  0.22689  1.0000
  H   H90       1.0  0.45340  0.06789  0.20949  1.0000
  H   H91       1.0  0.36838  0.09252  0.31283  1.0000
  H   H92       1.0  0.41569  0.02379  0.21286  1.0000
  H   H93       1.0  0.43295  0.99898  0.22081  1.0000
  C   C96       1.0  0.35068  0.09666  0.31985  1.0000
  C   C97       1.0  0.11049  0.22689  0.37786  1.0000
  N   N8        1.0  0.23266  0.06866  0.38060  1.0000
  C   C98       1.0  0.35642  0.07398  0.26141  1.0000
  C   C99       1.0  0.35211  0.04344  0.32505  1.0000
  H   H94       1.0  0.33776  0.03901  0.36278  1.0000
  C   C100      1.0  0.47873  0.10340  0.27153  1.0000
  C   C101      1.0  0.32318  0.04984  0.34236  1.0000
  C   C102      1.0  0.37671  0.04645  0.24790  1.0000
  H   H95       1.0  0.38184  0.05858  0.23333  1.0000
  C   C103      1.0  0.45292  0.08887  0.20812  1.0000
  H   H96       1.0  0.37036  0.03644  0.26363  1.0000
  C   C104      1.0  0.42462  0.06144  0.26363  1.0000
  N   N9        1.0  0.41136  0.04608  0.27480  1.0000
  C   C105      1.0  0.33215  0.04883  0.33324  1.0000
  H   H97       1.0  0.35884  0.05260  0.27142  1.0000
  C   C106      1.0  0.41712  0.05959  0.25854  1.0000
  H   H98       1.0  0.40291  0.03666  0.28962  1.0000
  H   H99       1.0  0.35093  0.05094  0.31829  1.0000
  C   C107      1.0  0.34252  0.09713  0.32967  1.0000
  H   H100      1.0  0.40482  0.05029  0.26022  1.0000
  N   N10       1.0  0.36362  0.06453  0.25675  1.0000
  C   C108      1.0  0.11263  0.23231  0.36671  1.0000
  H   H101      1.0  0.44787  0.08786  0.20304  1.0000
  S   S47       1.0  0.29102  0.08662  0.37544  1.0000
  C   C109      1.0  0.40147  0.01838  0.21204  1.0000
  C   C110      1.0  0.41053  0.05180  0.26428  1.0000
  H   H102      1.0  0.38180  0.03939  0.24443  1.0000
  H   H103      1.0  0.40946  0.02946  0.27842  1.0000
  C   C111      1.0  0.45511  0.09934  0.20677  1.0000
  H   H104      1.0  0.44616  0.06888  0.22347  1.0000
  C   C112      1.0  0.39743  0.00944  0.21163  1.0000
  S   S48       1.0  0.11207  0.21235  0.38110  1.0000
  C   C113      1.0  0.42544  0.05554  0.27436  1.0000
  H   H105      1.0  0.14394  0.23264  0.38002  1.0000
  S   S49       1.0  0.29335  0.06140  0.37184  1.0000
  H   H106      1.0  0.37877  0.13670  0.21524  1.0000
  H   H107      1.0  0.22892  0.08560  0.37212  1.0000
  C   C114      1.0  0.37666  0.05723  0.24164  1.0000
  H   H108      1.0  0.34754  0.07448  0.26154  1.0000
  H   H109      1.0  0.37011  0.07459  0.24130  1.0000
  H   H110      1.0  0.35874  0.08196  0.25655  1.0000
  C   C115      1.0  0.45424  0.06924  0.21738  1.0000
  C   C116      1.0  0.32520  0.04627  0.35304  1.0000
  H   H111      1.0  0.43371  0.01271  0.21265  1.0000
  C   C117      1.0  0.40476  0.03759  0.28048  1.0000
  N   N11       1.0  0.40924  0.09295  0.26701  1.0000
  C   C118      1.0  0.41715  0.09686  0.26932  1.0000
  C   C119      1.0  0.40485  0.09819  0.25785  1.0000
  C   C120      1.0  0.42093  0.10618  0.26231  1.0000
  C   C121      1.0  0.40845  0.10753  0.25065  1.0000
  C   C122      1.0  0.41657  0.11152  0.25290  1.0000
  C   C123      1.0  0.40487  0.08358  0.27478  1.0000
  H   H112      1.0  0.42060  0.09278  0.27660  1.0000
  H   H113      1.0  0.39853  0.09519  0.25607  1.0000
  H   H114      1.0  0.42726  0.10921  0.26414  1.0000
  H   H115      1.0  0.40492  0.11165  0.24339  1.0000
  H   H116      1.0  0.41954  0.11870  0.24732  1.0000
  H   H117      1.0  0.41134  0.07774  0.27913  1.0000
  H   H118      1.0  0.39765  0.08672  0.28112  1.0000
  H   H119      1.0  0.40202  0.07877  0.27046  1.0000
  H   H120      1.0  0.41971  0.04296  0.28802  1.0000
  C   C124      1.0  0.46136  0.10078  0.21345  1.0000
  C   C125      1.0  0.46299  0.08141  0.22251  1.0000
  H   H121      1.0  0.43150  0.05663  0.27829  1.0000
  H   H122      1.0  0.43011  0.06711  0.25908  1.0000
  H   H123      1.0  0.35336  0.03708  0.34640  1.0000
  C   C126      1.0  0.34489  0.04066  0.34520  1.0000
  H   H124      1.0  0.35260  0.03596  0.32199  1.0000
  H   H125      1.0  0.31475  0.05369  0.34115  1.0000
  H   H126      1.0  0.48811  0.08955  0.25416  1.0000
  C   C127      1.0  0.43144  0.00484  0.21293  1.0000
  H   H127      1.0  0.35891  0.08746  0.34826  1.0000
  C   C128      1.0  0.36195  0.09290  0.32036  1.0000
  H   H128      1.0  0.37369  0.08656  0.33104  1.0000
  C   C129      1.0  0.40465  0.99906  0.21154  1.0000
  C   C130      1.0  0.33690  0.09448  0.34995  1.0000
  H   H129      1.0  0.47043  0.10264  0.27153  1.0000
  C   C131      1.0  0.37026  0.04479  0.25866  1.0000
  C   C132      1.0  0.36998  0.06624  0.24619  1.0000
  C   C133      1.0  0.35654  0.09007  0.34029  1.0000
  H   H130      1.0  0.32849  0.09472  0.34877  1.0000
  C   C134      1.0  0.24367  0.06614  0.37325  1.0000
  H   H131      1.0  0.33649  0.10207  0.35277  1.0000
  C   C135      1.0  0.46529  0.09178  0.22142  1.0000
  H   H132      1.0  0.33378  0.09992  0.32918  1.0000
  H   H133      1.0  0.33872  0.08705  0.35663  1.0000
  H   H134      1.0  0.39658  0.03983  0.27801  1.0000
  H   H135      1.0  0.39592  0.02648  0.21222  1.0000
  N   N12       1.0  0.41971  0.00656  0.21236  1.0000
  H   H136      1.0  0.46595  0.07449  0.22881  1.0000
  H   H137      1.0  0.47357  0.10708  0.28785  1.0000
  H   H138      1.0  0.38870  0.01051  0.21151  1.0000
  H   H139      1.0  0.40556  0.14368  0.18686  1.0000
  C   C136      1.0  0.33612  0.04162  0.35450  1.0000
  H   H140      1.0  0.38221  0.12050  0.20685  1.0000
  Fe  Fe25      1.0  0.30457  0.07122  0.37384  1.0000
  H   H141      1.0  0.31837  0.04739  0.36017  1.0000
  H   H142      1.0  0.39531  0.99101  0.23792  1.0000
  N   N13       1.0  0.48741  0.10181  0.26266  1.0000
  H   H143      1.0  0.36031  0.04269  0.32701  1.0000
  H   H144      1.0  0.37663  0.15580  0.20330  1.0000
  C   C137      1.0  0.25336  0.09073  0.37113  1.0000
  H   H145      1.0  0.24479  0.07280  0.36564  1.0000
  C   C138      1.0  0.37928  0.13796  0.20641  1.0000
  C   C139      1.0  0.48561  0.09872  0.25321  1.0000
  H   H146      1.0  0.11507  0.22756  0.36031  1.0000
  H   H147      1.0  0.24479  0.05827  0.37059  1.0000
  H   H148      1.0  0.43708  0.00129  0.20587  1.0000
  C   C140      1.0  0.41270  0.01679  0.21241  1.0000
  H   H149      1.0  0.47668  0.10145  0.25257  1.0000
  H   H150      1.0  0.25915  0.04529  0.37920  1.0000
  H   H151      1.0  0.49264  0.10857  0.28811  1.0000
  H   H152      1.0  0.22469  0.00176  0.37949  1.0000
  C   C141      1.0  0.38218  0.13049  0.19027  1.0000
  C   C142      1.0  0.49603  0.07577  0.28211  1.0000
  C   C143      1.0  0.23224  0.10326  0.37932  1.0000
  C   C144      1.0  0.41582  0.99776  0.21195  1.0000
  H   H153      1.0  0.25307  0.11220  0.38016  1.0000
  C   C145      1.0  0.48044  0.10595  0.28078  1.0000
  C   C146      1.0  0.38127  0.12883  0.20168  1.0000
  C   C147      1.0  0.37883  0.15003  0.18837  1.0000
  H   H154      1.0  0.49062  0.10267  0.24530  1.0000
  S   S50       1.0  0.49573  0.06680  0.26490  1.0000
  C   C148      1.0  0.22617  0.07917  0.37900  1.0000
  H   H155      1.0  0.40157  0.99198  0.21144  1.0000
  N   N14       1.0  0.38097  0.14100  0.18378  1.0000
  H   H156      1.0  0.38405  0.12332  0.18660  1.0000
  H   H157      1.0  0.99899  0.21692  0.37951  1.0000
  C   C149      1.0  0.49109  0.10685  0.28090  1.0000
  H   H158      1.0  0.42130  0.98957  0.21226  1.0000
  H   H159      1.0  0.37794  0.15836  0.18321  1.0000
  H   H160      1.0  0.49717  0.08153  0.29599  1.0000
  H   H161      1.0  0.08774  0.21700  0.38186  1.0000
  C   C150      1.0  0.13471  0.23555  0.38205  1.0000
  C   C151      1.0  0.21221  0.07363  0.39511  1.0000
  S   S51       1.0  0.12051  0.18540  0.40421  1.0000
  C   C152      1.0  0.27798  0.02185  0.42876  1.0000
  Fe  Fe26      1.0  0.11717  0.20947  0.41838  1.0000
  S   S52       1.0  0.12167  0.19172  0.42710  1.0000
  S   S53       1.0  0.11523  0.22446  0.42494  1.0000
  Fe  Fe27      1.0  0.13332  0.18910  0.41093  1.0000
  S   S54       1.0  0.15121  0.17996  0.41138  1.0000
  Fe  Fe28      1.0  0.10859  0.18924  0.41988  1.0000
  S   S55       1.0  0.09778  0.17715  0.42987  1.0000
  S   S56       1.0  0.12992  0.20727  0.40284  1.0000
  S   S57       1.0  0.10290  0.20732  0.41275  1.0000
  Fe  Fe29      1.0  0.28779  0.07918  0.39372  1.0000
  S   S58       1.0  0.27526  0.07005  0.39338  1.0000
  S   S59       1.0  0.28252  0.08966  0.40655  1.0000
  Fe  Fe30      1.0  0.18719  0.11981  0.41502  1.0000
  S   S60       1.0  0.20186  0.12753  0.40580  1.0000
  S   S61       1.0  0.16911  0.12812  0.41420  1.0000
  Fe  Fe31      1.0  0.20225  0.09823  0.42459  1.0000
  S   S62       1.0  0.21815  0.10418  0.41605  1.0000
  S   S63       1.0  0.20418  0.08174  0.43667  1.0000
  Fe  Fe32      1.0  0.20855  0.12002  0.42126  1.0000
  S   S64       1.0  0.21604  0.13008  0.42789  1.0000
  Fe  Fe33      1.0  0.21012  0.11095  0.40143  1.0000
  Fe  Fe34      1.0  0.04176  0.22906  0.41806  1.0000
  S   S65       1.0  0.19319  0.11367  0.43097  1.0000
  S   S66       1.0  0.19495  0.10362  0.40944  1.0000
  Fe  Fe35      1.0  0.25768  0.08005  0.56962  1.0000
  S   S67       1.0  0.27583  0.07399  0.56253  1.0000
  H   H162      1.0  0.20423  0.07563  0.40074  1.0000
  Fe  Fe36      1.0  0.25998  0.10365  0.56510  1.0000
  S   S68       1.0  0.27836  0.09963  0.55753  1.0000
  S   S69       1.0  0.25078  0.12063  0.56770  1.0000
  Fe  Fe37      1.0  0.27345  0.08908  0.54888  1.0000
  S   S70       1.0  0.27978  0.08806  0.53074  1.0000
  H   H163      1.0  0.08523  0.22161  0.39457  1.0000
  C   C153      1.0  0.27156  0.02062  0.44880  1.0000
  S   S71       1.0  0.25506  0.09438  0.55535  1.0000
  Fe  Fe38      1.0  0.23757  0.02240  0.40615  1.0000
  S   S72       1.0  0.22160  0.01653  0.41023  1.0000
  S   S73       1.0  0.24796  0.02709  0.38917  1.0000
  Fe  Fe39      1.0  0.23664  0.02281  0.42992  1.0000
  S   S74       1.0  0.22055  0.01670  0.43648  1.0000
  S   S75       1.0  0.24804  0.02767  0.43764  1.0000
  Fe  Fe40      1.0  0.22804  0.00489  0.42479  1.0000
  Fe  Fe41      1.0  0.21535  0.02871  0.42140  1.0000
  S   S76       1.0  0.19939  0.04141  0.42048  1.0000
  S   S77       1.0  0.24463  0.00987  0.41973  1.0000
  S   S78       1.0  0.23076  0.03567  0.41586  1.0000
  Fe  Fe42      1.0  0.25437  0.07082  0.48969  1.0000
  S   S79       1.0  0.23835  0.07950  0.48405  1.0000
  S   S80       1.0  0.25316  0.06833  0.50817  1.0000
  Fe  Fe43      1.0  0.26670  0.06802  0.46637  1.0000
  S   S81       1.0  0.25182  0.07674  0.45885  1.0000
  S   S82       1.0  0.28218  0.06067  0.45505  1.0000
  Fe  Fe44      1.0  0.24914  0.08868  0.46964  1.0000
  S   S83       1.0  0.24390  0.10720  0.46508  1.0000
  Fe  Fe45      1.0  0.24245  0.06670  0.47381  1.0000
  S   S84       1.0  0.22914  0.05945  0.47166  1.0000
  S   S85       1.0  0.26496  0.08097  0.47589  1.0000
  S   S86       1.0  0.25750  0.05700  0.48071  1.0000
  C   C154      1.0  0.27077  0.04928  0.52719  1.0000
  Fe  Fe46      1.0  0.03675  0.20905  0.43515  1.0000
  C   C155      1.0  0.24377  0.99799  0.39495  1.0000
  S   S87       1.0  0.04495  0.19194  0.44291  1.0000
  H   H164      1.0  0.27616  0.01348  0.43039  1.0000
  C   C156      1.0  0.22913  0.06053  0.38928  1.0000
  C   C157      1.0  0.23932  0.12198  0.38989  1.0000
  C   C158      1.0  0.03112  0.23139  0.48074  1.0000
  S   S88       1.0  0.01863  0.21689  0.44074  1.0000
  H   H165      1.0  0.02314  0.23588  0.47811  1.0000
  S   S89       1.0  0.07672  0.22486  0.46783  1.0000
  H   H166      1.0  0.05793  0.19492  0.41172  1.0000
  H   H167      1.0  0.14056  0.17346  0.43506  1.0000
  H   H168      1.0  0.25857  0.09974  0.41767  1.0000
  S   S90       1.0  0.03635  0.21417  0.41711  1.0000
  H   H169      1.0  0.07049  0.22432  0.42242  1.0000
  C   C159      1.0  0.03816  0.21011  0.46348  1.0000
  C   C160      1.0  0.24902  0.08929  0.38261  1.0000
  C   C161      1.0  0.27774  0.03106  0.45815  1.0000
  H   H170      1.0  0.15328  0.16346  0.43557  1.0000
  Fe  Fe47      1.0  0.28996  0.05610  0.39037  1.0000
  S   S91       1.0  0.24577  0.06860  0.57629  1.0000
  C   C162      1.0  0.13068  0.21964  0.57300  1.0000
  H   H171      1.0  0.00313  0.20349  0.42319  1.0000
  H   H172      1.0  0.27735  0.03386  0.46553  1.0000
  C   C163      1.0  0.24234  0.03690  0.44669  1.0000
  C   C164      1.0  0.24946  0.04231  0.44884  1.0000
  C   C165      1.0  0.24544  0.04922  0.45649  1.0000
  C   C166      1.0  0.23419  0.05090  0.46194  1.0000
  C   C167      1.0  0.22693  0.04580  0.45955  1.0000
  C   C168      1.0  0.23100  0.03880  0.45191  1.0000
  H   H173      1.0  0.25811  0.04130  0.44449  1.0000
  H   H174      1.0  0.25108  0.05319  0.45820  1.0000
  H   H175      1.0  0.21819  0.04713  0.46371  1.0000
  H   H176      1.0  0.22542  0.03472  0.45026  1.0000
  H   H177      1.0  0.14240  0.16398  0.44809  1.0000
  C   C169      1.0  0.09331  0.23330  0.45195  1.0000
  H   H178      1.0  0.23801  0.12342  0.41615  1.0000
  C   C170      1.0  0.27190  0.08331  0.52430  1.0000
  C   C171      1.0  0.26211  0.07968  0.53028  1.0000
  C   C172      1.0  0.25631  0.07538  0.52512  1.0000
  C   C173      1.0  0.26016  0.07480  0.51391  1.0000
  C   C174      1.0  0.26972  0.07880  0.50780  1.0000
  C   C175      1.0  0.27561  0.08298  0.51301  1.0000
  H   H179      1.0  0.25913  0.07994  0.53896  1.0000
  H   H180      1.0  0.24889  0.07234  0.52989  1.0000
  H   H181      1.0  0.27277  0.07838  0.49916  1.0000
  H   H182      1.0  0.28316  0.08582  0.50832  1.0000
  C   C176      1.0  0.25671  0.10639  0.49124  1.0000
  C   C177      1.0  0.22419  0.12323  0.43781  1.0000
  C   C178      1.0  0.22700  0.12966  0.44340  1.0000
  C   C179      1.0  0.23324  0.12461  0.45157  1.0000
  C   C180      1.0  0.23684  0.11307  0.45415  1.0000
  C   C181      1.0  0.23434  0.10655  0.44835  1.0000
  C   C182      1.0  0.22796  0.11164  0.44018  1.0000
  H   H183      1.0  0.22419  0.13862  0.44153  1.0000
  H   H184      1.0  0.23518  0.12969  0.45598  1.0000
  H   H185      1.0  0.23705  0.09762  0.45033  1.0000
  H   H186      1.0  0.22583  0.10662  0.43587  1.0000
  C   C183      1.0  0.20162  0.07064  0.43289  1.0000
  C   C184      1.0  0.19584  0.07248  0.42452  1.0000
  C   C185      1.0  0.19460  0.06341  0.42115  1.0000
  C   C186      1.0  0.19955  0.05256  0.42581  1.0000
  C   C187      1.0  0.20514  0.05073  0.43432  1.0000
  C   C188      1.0  0.20585  0.05975  0.43809  1.0000
  H   H187      1.0  0.19225  0.08085  0.42070  1.0000
  H   H188      1.0  0.19009  0.06481  0.41470  1.0000
  H   H189      1.0  0.20882  0.04235  0.43808  1.0000
  H   H190      1.0  0.21000  0.05826  0.44483  1.0000
  C   C189      1.0  0.27796  0.03507  0.39585  1.0000
  C   C190      1.0  0.26591  0.02228  0.39881  1.0000
  C   C191      1.0  0.26007  0.02972  0.39105  1.0000
  C   C192      1.0  0.21591  0.08184  0.38627  1.0000
  H   H191      1.0  0.26609  0.01532  0.44906  1.0000
  H   H192      1.0  0.26358  0.01444  0.40297  1.0000
  N   N15       1.0  0.07938  0.20710  0.39627  1.0000
  H   H193      1.0  0.29002  0.03498  0.43078  1.0000
  C   C193      1.0  0.28347  0.08187  0.41998  1.0000
  C   C194      1.0  0.28920  0.07076  0.42166  1.0000
  C   C195      1.0  0.28924  0.06439  0.43244  1.0000
  C   C196      1.0  0.28331  0.06905  0.44161  1.0000
  C   C197      1.0  0.27783  0.08025  0.43995  1.0000
  C   C198      1.0  0.27804  0.08668  0.42915  1.0000
  H   H194      1.0  0.29360  0.06704  0.41465  1.0000
  H   H195      1.0  0.29372  0.05584  0.43363  1.0000
  H   H196      1.0  0.27349  0.08399  0.44698  1.0000
  H   H197      1.0  0.27388  0.09535  0.42797  1.0000
  H   H198      1.0  0.12344  0.16796  0.43582  1.0000
  Fe  Fe48      1.0  0.27876  0.08498  0.57203  1.0000
  H   H199      1.0  0.26765  0.11350  0.49602  1.0000
  C   C199      1.0  0.23838  0.09550  0.38672  1.0000
  H   H200      1.0  0.23490  0.09424  0.39554  1.0000
  C   C200      1.0  0.15644  0.16576  0.41099  1.0000
  C   C201      1.0  0.16704  0.16058  0.41333  1.0000
  C   C202      1.0  0.17120  0.14911  0.41391  1.0000
  C   C203      1.0  0.16483  0.14275  0.41205  1.0000
  C   C204      1.0  0.15440  0.14801  0.40932  1.0000
  C   C205      1.0  0.15016  0.15946  0.40888  1.0000
  H   H201      1.0  0.17198  0.16542  0.41490  1.0000
  H   H202      1.0  0.17926  0.14517  0.41600  1.0000
  H   H203      1.0  0.14946  0.14314  0.40779  1.0000
  H   H204      1.0  0.14202  0.16338  0.40699  1.0000
  C   C206      1.0  0.10488  0.22429  0.43711  1.0000
  C   C207      1.0  0.09921  0.21556  0.44125  1.0000
  C   C208      1.0  0.09055  0.21573  0.45074  1.0000
  C   C209      1.0  0.08762  0.22460  0.45609  1.0000
  C   C210      1.0  0.03216  0.21834  0.46943  1.0000
  C   C211      1.0  0.04977  0.20699  0.46211  1.0000
  H   H205      1.0  0.10149  0.20867  0.43717  1.0000
  H   H206      1.0  0.08621  0.20895  0.45397  1.0000
  H   H207      1.0  0.28474  0.05312  0.51400  1.0000
  C   C212      1.0  0.28481  0.03168  0.43858  1.0000
  C   C213      1.0  0.05969  0.18842  0.43942  1.0000
  C   C214      1.0  0.06505  0.17736  0.44273  1.0000
  C   C215      1.0  0.07672  0.17412  0.43991  1.0000
  C   C216      1.0  0.08320  0.18192  0.43385  1.0000
  C   C217      1.0  0.07790  0.19309  0.43073  1.0000
  C   C218      1.0  0.06613  0.19633  0.43345  1.0000
  H   H208      1.0  0.06014  0.17122  0.44738  1.0000
  H   H209      1.0  0.08075  0.16549  0.44236  1.0000
  H   H210      1.0  0.08283  0.19914  0.42598  1.0000
  H   H211      1.0  0.06206  0.20486  0.43077  1.0000
  C   C219      1.0  0.24974  0.11473  0.38804  1.0000
  H   H212      1.0  0.12267  0.23150  0.56052  1.0000
  C   C220      1.0  0.25773  0.10890  0.41530  1.0000
  C   C221      1.0  0.27492  0.02489  0.40111  1.0000
  H   H213      1.0  0.07381  0.17884  0.41454  1.0000
  H   H214      1.0  0.28607  0.02195  0.42263  1.0000
  N   N16       1.0  0.25143  0.11361  0.40650  1.0000
  N   N17       1.0  0.27831  0.02458  0.43901  1.0000
  H   H215      1.0  0.26054  0.10817  0.48246  1.0000
  H   H216      1.0  0.05450  0.20060  0.45751  1.0000
  H   H217      1.0  0.23346  0.13577  0.57949  1.0000
  C   C222      1.0  0.06676  0.23351  0.57785  1.0000
  C   C223      1.0  0.11174  0.22102  0.57180  1.0000
  H   H218      1.0  0.27127  0.02801  0.42499  1.0000
  H   H219      1.0  0.08265  0.21826  0.42845  1.0000
  C   C224      1.0  0.25568  0.11052  0.39653  1.0000
  H   H220      1.0  0.26775  0.11534  0.58089  1.0000
  H   H221      1.0  0.26627  0.11069  0.41234  1.0000
  C   C225      1.0  0.24692  0.10196  0.51366  1.0000
  N   N18       1.0  0.25582  0.10707  0.51000  1.0000
  N   N19       1.0  0.07543  0.23530  0.42890  1.0000
  H   H222      1.0  0.24471  0.09861  0.48905  1.0000
  C   C226      1.0  0.24777  0.10103  0.49493  1.0000
  H   H223      1.0  0.03385  0.20618  0.45991  1.0000
  C   C227      1.0  0.08816  0.19827  0.39778  1.0000
  C   C228      1.0  0.08165  0.21793  0.38981  1.0000
  H   H224      1.0  0.26686  0.04676  0.52201  1.0000
  H   H225      1.0  0.23607  0.09433  0.50916  1.0000
  Fe  Fe49      1.0  0.02526  0.23177  0.43968  1.0000
  N   N20       1.0  0.20647  0.08754  0.46418  1.0000
  C   C229      1.0  0.20161  0.09684  0.45746  1.0000
  C   C230      1.0  0.21305  0.08836  0.47061  1.0000
  C   C231      1.0  0.20303  0.10735  0.45732  1.0000
  C   C232      1.0  0.21464  0.09874  0.47067  1.0000
  C   C233      1.0  0.20951  0.10828  0.46404  1.0000
  C   C234      1.0  0.20519  0.07657  0.46399  1.0000
  H   H226      1.0  0.19668  0.09616  0.45210  1.0000
  H   H227      1.0  0.21717  0.08095  0.47568  1.0000
  H   H228      1.0  0.19936  0.11471  0.45184  1.0000
  H   H229      1.0  0.22004  0.09937  0.47560  1.0000
  H   H230      1.0  0.21092  0.11635  0.46379  1.0000
  H   H231      1.0  0.21231  0.07285  0.45791  1.0000
  H   H232      1.0  0.20509  0.07086  0.47225  1.0000
  H   H233      1.0  0.19730  0.07709  0.46156  1.0000
  N   N21       1.0  0.03759  0.22331  0.47392  1.0000
  C   C235      1.0  0.12849  0.15977  0.43511  1.0000
  H   H234      1.0  0.24310  0.10009  0.52242  1.0000
  C   C236      1.0  0.12379  0.15229  0.43266  1.0000
  C   C237      1.0  0.14109  0.13866  0.43343  1.0000
  C   C238      1.0  0.13018  0.14168  0.43176  1.0000
  C   C239      1.0  0.14553  0.14637  0.43583  1.0000
  H   H235      1.0  0.11528  0.15479  0.43139  1.0000
  H   H236      1.0  0.14628  0.13055  0.43242  1.0000
  H   H237      1.0  0.12674  0.13586  0.42964  1.0000
  C   C240      1.0  0.08629  0.18796  0.40429  1.0000
  H   H238      1.0  0.25908  0.06296  0.55582  1.0000
  H   H239      1.0  0.25757  0.10572  0.52647  1.0000
  C   C241      1.0  0.25992  0.11053  0.51786  1.0000
  H   H240      1.0  0.25822  0.04856  0.55955  1.0000
  H   H241      1.0  0.25359  0.11232  0.42286  1.0000
  C   C242      1.0  0.24284  0.09877  0.50620  1.0000
  H   H242      1.0  0.24855  0.00269  0.39700  1.0000
  H   H243      1.0  0.26923  0.10897  0.51579  1.0000
  H   H244      1.0  0.25644  0.11951  0.51774  1.0000
  C   C243      1.0  0.26546  0.04961  0.53822  1.0000
  N   N22       1.0  0.24371  0.06156  0.42756  1.0000
  C   C244      1.0  0.24885  0.06731  0.43149  1.0000
  C   C245      1.0  0.24987  0.05458  0.42064  1.0000
  C   C246      1.0  0.26049  0.06592  0.42870  1.0000
  C   C247      1.0  0.26151  0.05307  0.41764  1.0000
  C   C248      1.0  0.26685  0.05876  0.42173  1.0000
  C   C249      1.0  0.23151  0.06319  0.43047  1.0000
  H   H245      1.0  0.24395  0.07284  0.43698  1.0000
  H   H246      1.0  0.24581  0.04998  0.41756  1.0000
  H   H247      1.0  0.26454  0.07037  0.43196  1.0000
  H   H248      1.0  0.26634  0.04754  0.41215  1.0000
  H   H249      1.0  0.27588  0.05767  0.41938  1.0000
  H   H250      1.0  0.22886  0.05562  0.43041  1.0000
  H   H251      1.0  0.22810  0.06478  0.43897  1.0000
  H   H252      1.0  0.22770  0.07035  0.42454  1.0000
  H   H253      1.0  0.25370  0.08320  0.38828  1.0000
  H   H254      1.0  0.09641  0.20847  0.57854  1.0000
  C   C250      1.0  0.07437  0.22409  0.42927  1.0000
  C   C251      1.0  0.06645  0.19575  0.40765  1.0000
  C   C252      1.0  0.12182  0.22464  0.56764  1.0000
  Fe  Fe50      1.0  0.01874  0.22350  0.42263  1.0000
  C   C253      1.0  0.13207  0.23756  0.40106  1.0000
  H   H255      1.0  0.09330  0.18107  0.40574  1.0000
  H   H256      1.0  0.07394  0.22390  0.38777  1.0000
  C   C254      1.0  0.14410  0.16479  0.43900  1.0000
  C   C255      1.0  0.23509  0.12511  0.40007  1.0000
  H   H257      1.0  0.21588  0.05640  0.40343  1.0000
  H   H258      1.0  0.10126  0.23718  0.51807  1.0000
  H   H259      1.0  0.23427  0.05216  0.39053  1.0000
  H   H260      1.0  0.06427  0.20975  0.46571  1.0000
  C   C256      1.0  0.10193  0.23316  0.44244  1.0000
  H   H261      1.0  0.21230  0.99468  0.41553  1.0000
  H   H262      1.0  0.13441  0.22859  0.40364  1.0000
  S   S92       1.0  0.08132  0.23105  0.57361  1.0000
  S   S93       1.0  0.04328  0.22332  0.43576  1.0000
  H   H263      1.0  0.10484  0.22504  0.56767  1.0000
  H   H264      1.0  0.05329  0.22411  0.47630  1.0000
  S   S94       1.0  0.05688  0.23372  0.40569  1.0000
  S   S95       1.0  0.28836  0.03883  0.39976  1.0000
  C   C257      1.0  0.26404  0.05433  0.55589  1.0000
  H   H265      1.0  0.06164  0.21297  0.40009  1.0000
  C   C258      1.0  0.07536  0.18670  0.40921  1.0000
  H   H266      1.0  0.19882  0.98958  0.44304  1.0000
  C   C259      1.0  0.27986  0.05697  0.54020  1.0000
  N   N23       1.0  0.13930  0.15684  0.43644  1.0000
  N   N24       1.0  0.27007  0.05333  0.54459  1.0000
  H   H267      1.0  0.26993  0.05238  0.56149  1.0000
  C   C260      1.0  0.28475  0.03487  0.44818  1.0000
  C   C261      1.0  0.26066  0.10938  0.49894  1.0000
  C   C262      1.0  0.06862  0.20596  0.40114  1.0000
  C   C263      1.0  0.21880  0.06287  0.39662  1.0000
  H   H268      1.0  0.27946  0.01904  0.40703  1.0000
  C   C264      1.0  0.05524  0.21212  0.46668  1.0000
  S   S96       1.0  0.00385  0.22722  0.41459  1.0000
  H   H269      1.0  0.26545  0.02102  0.46617  1.0000
  S   S97       1.0  0.26072  0.08979  0.58013  1.0000
  H   H270      1.0  0.23777  0.10416  0.57158  1.0000
  H   H271      1.0  0.02314  0.22079  0.47036  1.0000
  C   C265      1.0  0.10731  0.23311  0.38610  1.0000
  Fe  Fe51      1.0  0.11598  0.20389  0.39774  1.0000
  C   C266      1.0  0.24133  0.12088  0.40830  1.0000
  H   H272      1.0  0.15416  0.14407  0.43672  1.0000
  C   C267      1.0  0.27228  0.04241  0.38789  1.0000
  H   H273      1.0  0.22698  0.13072  0.40165  1.0000
  C   C268      1.0  0.04897  0.22026  0.47266  1.0000
  H   H274      1.0  0.26370  0.10471  0.39513  1.0000
  C   C269      1.0  0.27113  0.02384  0.45851  1.0000
  H   H275      1.0  0.28996  0.04041  0.44789  1.0000
  H   H276      1.0  0.29292  0.06004  0.52565  1.0000
  S   S98       1.0  0.30227  0.06463  0.39230  1.0000
  C   C270      1.0  0.28078  0.05291  0.52267  1.0000
  C   C271      1.0  0.23282  0.11066  0.57583  1.0000
  C   C272      1.0  0.28538  0.05676  0.52920  1.0000
  H   H277      1.0  0.25745  0.04719  0.54153  1.0000
  H   H278      1.0  0.28327  0.06041  0.54506  1.0000
  H   H279      1.0  0.09218  0.23314  0.41930  1.0000
  H   H280      1.0  0.13842  0.22263  0.57007  1.0000
  H   H281      1.0  0.10562  0.22899  0.39475  1.0000
  H   H282      1.0  0.02919  0.22710  0.48957  1.0000
  C   C273      1.0  0.23662  0.00350  0.38766  1.0000
  C   C274      1.0  0.23702  0.11996  0.57494  1.0000
  S   S99       1.0  0.21870  0.11087  0.38365  1.0000
  H   H283      1.0  0.06915  0.22070  0.43732  1.0000
  H   H284      1.0  0.13079  0.22821  0.38529  1.0000
  H   H285      1.0  0.23587  0.01236  0.38422  1.0000
  N   N25       1.0  0.11054  0.21262  0.58100  1.0000
  C   C275      1.0  0.23040  0.99756  0.38499  1.0000
  H   H286      1.0  0.23446  0.12505  0.38350  1.0000
  H   H287      1.0  0.21090  0.09028  0.38508  1.0000
  C   C276      1.0  0.23044  0.12839  0.58041  1.0000
  C   C277      1.0  0.26347  0.03964  0.38536  1.0000
  H   H288      1.0  0.27460  0.05026  0.38373  1.0000
  H   H289      1.0  0.09669  0.19919  0.39402  1.0000
  H   H290      1.0  0.03584  0.23783  0.47991  1.0000
  C   C278      1.0  0.27644  0.12150  0.60473  1.0000
  Fe  Fe52      1.0  0.23944  0.01091  0.64068  1.0000
  S   S100      1.0  0.25641  0.01420  0.63909  1.0000
  Fe  Fe53      1.0  0.22942  0.03537  0.63269  1.0000
  S   S101      1.0  0.24555  0.04065  0.62966  1.0000
  S   S102      1.0  0.21383  0.04775  0.62900  1.0000
  Fe  Fe54      1.0  0.25332  0.02525  0.62295  1.0000
  S   S103      1.0  0.26662  0.02538  0.60750  1.0000
  Fe  Fe55      1.0  0.24718  0.02931  0.64611  1.0000
  S   S104      1.0  0.25063  0.03696  0.65840  1.0000
  S   S105      1.0  0.23700  0.02117  0.62405  1.0000
  S   S106      1.0  0.23043  0.02482  0.64960  1.0000
  C   C279      1.0  0.13481  0.23764  0.63193  1.0000
  H   H291      1.0  0.12295  0.23737  0.67273  1.0000
  S   S107      1.0  0.04679  0.21432  0.64194  1.0000
  Fe  Fe56      1.0  0.34738  0.08766  0.73106  1.0000
  S   S108      1.0  0.35758  0.08864  0.71376  1.0000
  S   S109      1.0  0.34237  0.07154  0.73941  1.0000
  Fe  Fe57      1.0  0.34715  0.11118  0.73144  1.0000
  S   S110      1.0  0.35654  0.11437  0.71363  1.0000
  S   S111      1.0  0.34110  0.12405  0.74219  1.0000
  Fe  Fe58      1.0  0.34557  0.10494  0.71004  1.0000
  S   S112      1.0  0.33722  0.10995  0.69496  1.0000
  Fe  Fe59      1.0  0.36747  0.09769  0.71904  1.0000
  S   S113      1.0  0.38645  0.09367  0.71529  1.0000
  S   S114      1.0  0.33504  0.10359  0.72740  1.0000
  S   S115      1.0  0.35840  0.09489  0.73680  1.0000
  Fe  Fe60      1.0  0.30528  0.08441  0.66004  1.0000
  S   S116      1.0  0.29110  0.07535  0.66816  1.0000
  S   S117      1.0  0.31666  0.08352  0.67181  1.0000
  Fe  Fe61      1.0  0.29876  0.08964  0.63716  1.0000
  S   S118      1.0  0.28441  0.08120  0.64391  1.0000
  S   S119      1.0  0.30211  0.09713  0.61869  1.0000
  Fe  Fe62      1.0  0.28087  0.08956  0.65804  1.0000
  S   S120      1.0  0.26300  0.09734  0.66462  1.0000
  Fe  Fe63      1.0  0.29595  0.06785  0.65317  1.0000
  S   S121      1.0  0.29689  0.05049  0.65150  1.0000
  S   S122      1.0  0.29448  0.09918  0.65076  1.0000
  S   S123      1.0  0.31086  0.07572  0.64560  1.0000
  Fe  Fe64      1.0  0.20372  0.10608  0.63824  1.0000
  S   S124      1.0  0.21718  0.10552  0.62295  1.0000
  S   S125      1.0  0.20349  0.08963  0.65031  1.0000
  Fe  Fe65      1.0  0.19666  0.13138  0.63225  1.0000
  S   S126      1.0  0.20992  0.13265  0.61648  1.0000
  S   S127      1.0  0.18614  0.14721  0.63770  1.0000
  Fe  Fe66      1.0  0.20458  0.11821  0.61438  1.0000
  S   S128      1.0  0.20372  0.11536  0.59821  1.0000
  Fe  Fe67      1.0  0.22131  0.11983  0.62658  1.0000
  S   S129      1.0  0.23981  0.11899  0.62376  1.0000
  S   S130      1.0  0.19051  0.11766  0.62946  1.0000
  S   S131      1.0  0.20862  0.11966  0.64259  1.0000
  Fe  Fe68      1.0  0.11829  0.20721  0.64118  1.0000
  S   S132      1.0  0.11290  0.19402  0.63671  1.0000
  S   S133      1.0  0.11305  0.21082  0.65818  1.0000
  Fe  Fe69      1.0  0.13186  0.21411  0.61843  1.0000
  S   S134      1.0  0.12776  0.20168  0.61176  1.0000
  C   C280      1.0  0.08589  0.22718  0.66634  1.0000
  Fe  Fe70      1.0  0.11031  0.20690  0.62132  1.0000
  S   S135      1.0  0.09610  0.21078  0.61269  1.0000
  Fe  Fe71      1.0  0.13085  0.18978  0.62758  1.0000
  S   S136      1.0  0.13889  0.17177  0.62698  1.0000
  S   S137      1.0  0.11416  0.22046  0.62657  1.0000
  S   S138      1.0  0.13648  0.20184  0.63354  1.0000
  H   H292      1.0  0.08684  0.23438  0.61658  1.0000
  S   S139      1.0  0.39608  0.04812  0.76480  1.0000
  H   H293      1.0  0.34341  0.00529  0.77425  1.0000
  S   S140      1.0  0.39829  0.02132  0.76747  1.0000
  H   H294      1.0  0.36447  0.99673  0.74311  1.0000
  H   H295      1.0  0.28764  0.10970  0.58233  1.0000
  H   H296      1.0  0.16793  0.15395  0.66016  1.0000
  Fe  Fe72      1.0  0.38993  0.03730  0.75792  1.0000
  S   S141      1.0  0.38975  0.04012  0.74004  1.0000
  S   S142      1.0  0.37336  0.03838  0.76999  1.0000
  Fe  Fe73      1.0  0.42873  0.09738  0.74730  1.0000
  S   S143      1.0  0.43070  0.08050  0.75839  1.0000
  S   S144      1.0  0.41097  0.10626  0.74584  1.0000
  Fe  Fe74      1.0  0.45396  0.09693  0.74275  1.0000
  S   S145      1.0  0.45780  0.07959  0.75290  1.0000
  S   S146      1.0  0.46830  0.10586  0.73485  1.0000
  Fe  Fe75      1.0  0.44565  0.07610  0.74513  1.0000
  S   S147      1.0  0.44602  0.06097  0.73938  1.0000
  Fe  Fe76      1.0  0.44252  0.08574  0.76500  1.0000
  C   C281      1.0  0.02098  0.20405  0.64557  1.0000
  S   S148      1.0  0.44323  0.09286  0.73360  1.0000
  S   S149      1.0  0.43914  0.10321  0.75528  1.0000
  H   H297      1.0  0.33998  0.14807  0.76611  1.0000
  C   C282      1.0  0.42826  0.12631  0.73795  1.0000
  C   C283      1.0  0.41272  0.12956  0.75382  1.0000
  H   H298      1.0  0.25898  0.12863  0.60985  1.0000
  N   N26       1.0  0.99790  0.21124  0.65183  1.0000
  N   N27       1.0  0.48960  0.09009  0.76564  1.0000
  H   H299      1.0  0.13084  0.23119  0.63128  1.0000
  C   C284      1.0  0.42744  0.03836  0.76824  1.0000
  C   C285      1.0  0.42681  0.03902  0.75738  1.0000
  C   C286      1.0  0.43305  0.04548  0.74847  1.0000
  C   C287      1.0  0.43943  0.05179  0.75045  1.0000
  C   C288      1.0  0.44002  0.05118  0.76131  1.0000
  H   H300      1.0  0.11805  0.20137  0.59388  1.0000
  H   H301      1.0  0.42167  0.03436  0.75584  1.0000
  H   H302      1.0  0.43278  0.04576  0.74007  1.0000
  H   H303      1.0  0.44506  0.05592  0.76287  1.0000
  S   S150      1.0  0.29198  0.07813  0.58243  1.0000
  C   C289      1.0  0.48496  0.11809  0.75558  1.0000
  H   H304      1.0  0.19924  0.98987  0.66142  1.0000
  C   C290      1.0  0.48554  0.11213  0.73895  1.0000
  C   C291      1.0  0.47450  0.11061  0.74298  1.0000
  C   C292      1.0  0.46865  0.11294  0.75332  1.0000
  C   C293      1.0  0.47380  0.11684  0.75949  1.0000
  N   N28       1.0  0.15312  0.15298  0.65605  1.0000
  C   C294      1.0  0.08197  0.22330  0.65925  1.0000
  H   H305      1.0  0.46013  0.11186  0.75650  1.0000
  H   H306      1.0  0.46917  0.11877  0.76741  1.0000
  H   H307      1.0  0.48353  0.08238  0.74516  1.0000
  C   C295      1.0  0.37502  0.01802  0.75161  1.0000
  C   C296      1.0  0.01380  0.19937  0.64264  1.0000
  C   C297      1.0  0.17422  0.15468  0.63227  1.0000
  C   C298      1.0  0.16814  0.14932  0.62863  1.0000
  C   C299      1.0  0.15752  0.15487  0.62649  1.0000
  C   C300      1.0  0.15302  0.16588  0.62773  1.0000
  C   C301      1.0  0.15943  0.17148  0.63063  1.0000
  C   C302      1.0  0.16996  0.16586  0.63298  1.0000
  H   H308      1.0  0.17136  0.14071  0.62802  1.0000
  H   H309      1.0  0.15264  0.15051  0.62416  1.0000
  H   H310      1.0  0.15608  0.17999  0.63154  1.0000
  H   H311      1.0  0.17467  0.17008  0.63572  1.0000
  C   C303      1.0  0.24598  0.11373  0.63537  1.0000
  C   C304      1.0  0.23954  0.11246  0.64621  1.0000
  C   C305      1.0  0.24477  0.10776  0.65525  1.0000
  C   C306      1.0  0.25646  0.10431  0.65346  1.0000
  C   C307      1.0  0.26287  0.10587  0.64264  1.0000
  C   C308      1.0  0.25766  0.11048  0.63364  1.0000
  H   H312      1.0  0.23054  0.11507  0.64763  1.0000
  H   H313      1.0  0.23977  0.10665  0.66361  1.0000
  H   H314      1.0  0.27189  0.10354  0.64117  1.0000
  H   H315      1.0  0.26271  0.11132  0.62533  1.0000
  C   C309      1.0  0.33168  0.10238  0.68857  1.0000
  C   C310      1.0  0.32593  0.10822  0.68003  1.0000
  C   C311      1.0  0.32139  0.10266  0.67473  1.0000
  C   C312      1.0  0.32261  0.09108  0.67782  1.0000
  C   C313      1.0  0.32849  0.08524  0.68626  1.0000
  C   C314      1.0  0.33292  0.09081  0.69164  1.0000
  H   H316      1.0  0.32495  0.11715  0.67749  1.0000
  H   H317      1.0  0.31700  0.10733  0.66823  1.0000
  H   H318      1.0  0.32954  0.07630  0.68875  1.0000
  H   H319      1.0  0.33730  0.08613  0.69816  1.0000
  C   C315      1.0  0.35531  0.06243  0.73968  1.0000
  C   C316      1.0  0.35966  0.05511  0.73244  1.0000
  C   C317      1.0  0.37052  0.04852  0.73211  1.0000
  C   C318      1.0  0.37686  0.04919  0.73914  1.0000
  C   C319      1.0  0.37248  0.05656  0.74629  1.0000
  C   C320      1.0  0.36180  0.06328  0.74645  1.0000
  H   H320      1.0  0.35472  0.05469  0.72698  1.0000
  H   H321      1.0  0.37389  0.04278  0.72659  1.0000
  H   H322      1.0  0.37735  0.05711  0.75173  1.0000
  H   H323      1.0  0.35856  0.06910  0.75187  1.0000
  C   C321      1.0  0.39320  0.09743  0.72367  1.0000
  C   C322      1.0  0.40482  0.09367  0.72267  1.0000
  C   C323      1.0  0.41037  0.09632  0.72940  1.0000
  C   C324      1.0  0.40434  0.10286  0.73712  1.0000
  C   C325      1.0  0.39274  0.10673  0.73803  1.0000
  C   C326      1.0  0.38718  0.10398  0.73139  1.0000
  H   H324      1.0  0.40956  0.08861  0.71673  1.0000
  H   H325      1.0  0.41931  0.09330  0.72860  1.0000
  H   H326      1.0  0.38800  0.11184  0.74393  1.0000
  H   H327      1.0  0.37824  0.10700  0.73220  1.0000
  C   C327      1.0  0.36031  0.01257  0.74781  1.0000
  S   S151      1.0  0.49124  0.12273  0.76375  1.0000
  H   H328      1.0  0.10519  0.23260  0.64497  1.0000
  H   H329      1.0  0.26764  0.99551  0.61604  1.0000
  C   C328      1.0  0.28141  0.11397  0.58832  1.0000
  C   C329      1.0  0.35479  0.13502  0.76642  1.0000
  C   C330      1.0  0.36101  0.12557  0.76217  1.0000
  C   C331      1.0  0.35720  0.12206  0.75450  1.0000
  C   C332      1.0  0.34716  0.12798  0.75114  1.0000
  C   C333      1.0  0.34106  0.13726  0.75553  1.0000
  C   C334      1.0  0.34485  0.14077  0.76299  1.0000
  H   H330      1.0  0.36877  0.12108  0.76466  1.0000
  H   H331      1.0  0.36201  0.11484  0.75122  1.0000
  H   H332      1.0  0.33331  0.14188  0.75307  1.0000
  S   S152      1.0  0.41311  0.13191  0.78129  1.0000
  C   C335      1.0  0.06057  0.21296  0.63395  1.0000
  C   C336      1.0  0.06972  0.20932  0.63911  1.0000
  S   S153      1.0  0.02321  0.22770  0.62379  1.0000
  C   C337      1.0  0.08256  0.21123  0.62111  1.0000
  C   C338      1.0  0.07342  0.21458  0.61602  1.0000
  C   C339      1.0  0.06246  0.21562  0.62239  1.0000
  H   H333      1.0  0.28871  0.05399  0.59744  1.0000
  H   H334      1.0  0.41555  0.08982  0.77724  1.0000
  H   H335      1.0  0.07483  0.21645  0.60710  1.0000
  H   H336      1.0  0.05547  0.21825  0.61833  1.0000
  C   C340      1.0  0.20163  0.02300  0.63415  1.0000
  H   H337      1.0  0.21423  0.98881  0.65816  1.0000
  S   S154      1.0  0.14242  0.22615  0.60787  1.0000
  C   C341      1.0  0.29619  0.05883  0.60807  1.0000
  H   H338      1.0  0.40898  0.13666  0.75802  1.0000
  C   C342      1.0  0.30623  0.08910  0.70725  1.0000
  H   H339      1.0  0.44785  0.13518  0.75052  1.0000
  C   C343      1.0  0.26351  0.04081  0.65607  1.0000
  C   C344      1.0  0.26399  0.04916  0.66098  1.0000
  C   C345      1.0  0.27419  0.05220  0.65958  1.0000
  C   C346      1.0  0.28403  0.04668  0.65354  1.0000
  C   C347      1.0  0.28357  0.03831  0.64864  1.0000
  C   C348      1.0  0.27331  0.03549  0.64976  1.0000
  H   H340      1.0  0.25646  0.05321  0.66595  1.0000
  H   H341      1.0  0.27450  0.05859  0.66345  1.0000
  H   H342      1.0  0.29116  0.03403  0.64393  1.0000
  H   H343      1.0  0.27303  0.02898  0.64603  1.0000
  C   C349      1.0  0.21114  0.05942  0.63485  1.0000
  C   C350      1.0  0.21732  0.05958  0.64227  1.0000
  C   C351      1.0  0.21499  0.06890  0.64694  1.0000
  C   C352      1.0  0.20672  0.07825  0.64395  1.0000
  C   C353      1.0  0.20072  0.07818  0.63634  1.0000
  C   C354      1.0  0.20277  0.06870  0.63199  1.0000
  H   H344      1.0  0.22374  0.05244  0.64461  1.0000
  H   H345      1.0  0.21959  0.06883  0.65289  1.0000
  H   H346      1.0  0.19421  0.08530  0.63415  1.0000
  H   H347      1.0  0.19781  0.06852  0.62645  1.0000
  H   H348      1.0  0.22637  0.00302  0.62677  1.0000
  S   S155      1.0  0.23690  0.99317  0.64577  1.0000
  H   H349      1.0  0.40302  0.08932  0.77382  1.0000
  H   H350      1.0  0.04680  0.22619  0.60056  1.0000
  N   N29       1.0  0.20516  0.00172  0.64741  1.0000
  H   H351      1.0  0.34155  0.11427  0.77979  1.0000
  C   C355      1.0  0.26261  0.05490  0.58612  1.0000
  S   S156      1.0  0.35870  0.14039  0.77591  1.0000
  C   C356      1.0  0.29370  0.08465  0.59219  1.0000
  C   C357      1.0  0.28562  0.08596  0.60199  1.0000
  C   C358      1.0  0.28814  0.08943  0.61042  1.0000
  C   C359      1.0  0.29869  0.09176  0.60899  1.0000
  C   C360      1.0  0.30657  0.09067  0.59911  1.0000
  S   S157      1.0  0.37121  0.06585  0.77956  1.0000
  H   H352      1.0  0.27757  0.08398  0.60319  1.0000
  H   H353      1.0  0.28190  0.09048  0.61793  1.0000
  H   H354      1.0  0.31467  0.09256  0.59786  1.0000
  S   S158      1.0  0.41941  0.03058  0.77945  1.0000
  H   H355      1.0  0.21519  0.13344  0.59199  1.0000
  C   C361      1.0  0.25187  0.05629  0.58441  1.0000
  C   C362      1.0  0.25052  0.03823  0.59636  1.0000
  C   C363      1.0  0.26131  0.03681  0.59794  1.0000
  C   C364      1.0  0.26744  0.04505  0.59266  1.0000
  H   H356      1.0  0.26951  0.05490  0.63059  1.0000
  H   H357      1.0  0.24575  0.03188  0.60047  1.0000
  H   H358      1.0  0.27574  0.04397  0.59397  1.0000
  H   H359      1.0  0.44277  0.12265  0.72493  1.0000
  C   C365      1.0  0.44654  0.12915  0.73695  1.0000
  C   C366      1.0  0.35209  0.00161  0.77457  1.0000
  H   H360      1.0  0.28359  0.10947  0.68100  1.0000
  N   N30       1.0  0.21769  0.08126  0.60584  1.0000
  C   C367      1.0  0.22560  0.08729  0.60413  1.0000
  C   C368      1.0  0.22063  0.06993  0.60744  1.0000
  C   C369      1.0  0.23680  0.08198  0.60400  1.0000
  C   C370      1.0  0.23169  0.06433  0.60764  1.0000
  C   C371      1.0  0.23984  0.07041  0.60579  1.0000
  C   C372      1.0  0.20605  0.08711  0.60579  1.0000
  C   C373      1.0  0.35799  0.00681  0.77872  1.0000
  H   H361      1.0  0.21440  0.06511  0.60875  1.0000
  H   H362      1.0  0.24305  0.08684  0.60244  1.0000
  H   H363      1.0  0.23388  0.05533  0.60917  1.0000
  H   H364      1.0  0.24849  0.06614  0.60562  1.0000
  H   H365      1.0  0.20541  0.09234  0.59743  1.0000
  N   N31       1.0  0.36409  0.02008  0.75085  1.0000
  H   H366      1.0  0.06685  0.21997  0.59212  1.0000
  N   N32       1.0  0.23395  0.08546  0.65689  1.0000
  C   C374      1.0  0.24387  0.08050  0.66011  1.0000
  C   C375      1.0  0.23369  0.08885  0.64589  1.0000
  C   C376      1.0  0.25392  0.07921  0.65222  1.0000
  C   C377      1.0  0.24359  0.08774  0.63777  1.0000
  C   C378      1.0  0.25377  0.08295  0.64099  1.0000
  C   C379      1.0  0.22347  0.08692  0.66523  1.0000
  H   H367      1.0  0.24412  0.07777  0.66882  1.0000
  H   H368      1.0  0.22583  0.09273  0.64335  1.0000
  H   H369      1.0  0.26177  0.07568  0.65487  1.0000
  H   H370      1.0  0.24335  0.09096  0.62909  1.0000
  H   H371      1.0  0.30493  0.07288  0.70657  1.0000
  H   H372      1.0  0.22496  0.08714  0.67328  1.0000
  H   H373      1.0  0.21772  0.09490  0.66250  1.0000
  H   H374      1.0  0.21921  0.08003  0.66645  1.0000
  H   H375      1.0  0.27164  0.05098  0.61209  1.0000
  N   N33       1.0  0.36887  0.10238  0.68530  1.0000
  C   C380      1.0  0.36288  0.11252  0.68099  1.0000
  C   C381      1.0  0.37741  0.10170  0.69019  1.0000
  C   C382      1.0  0.36512  0.12232  0.68183  1.0000
  C   C383      1.0  0.37997  0.11134  0.69104  1.0000
  C   C384      1.0  0.37373  0.12171  0.68691  1.0000
  C   C385      1.0  0.36622  0.09227  0.68438  1.0000
  H   H376      1.0  0.35611  0.11305  0.67711  1.0000
  H   H377      1.0  0.38218  0.09368  0.69366  1.0000
  H   H378      1.0  0.36007  0.13032  0.67874  1.0000
  H   H379      1.0  0.38659  0.11074  0.69515  1.0000
  H   H380      1.0  0.37545  0.12923  0.68779  1.0000
  H   H381      1.0  0.36909  0.09122  0.67568  1.0000
  H   H382      1.0  0.37021  0.08473  0.68983  1.0000
  H   H383      1.0  0.35703  0.09279  0.68698  1.0000
  C   C386      1.0  0.20044  0.00372  0.63848  1.0000
  H   H384      1.0  0.03001  0.20136  0.64304  1.0000
  H   H385      1.0  0.20032  0.08131  0.60804  1.0000
  C   C387      1.0  0.48850  0.08429  0.74976  1.0000
  H   H386      1.0  0.12156  0.22869  0.60154  1.0000
  C   C388      1.0  0.37431  0.99204  0.77590  1.0000
  H   H387      1.0  0.37138  0.08900  0.77546  1.0000
  C   C389      1.0  0.27689  0.05616  0.62412  1.0000
  C   C390      1.0  0.36909  0.00201  0.77952  1.0000
  H   H388      1.0  0.28442  0.06156  0.63421  1.0000
  H   H389      1.0  0.06829  0.20715  0.64805  1.0000
  H   H390      1.0  0.30074  0.07071  0.62563  1.0000
  C   C391      1.0  0.28540  0.05980  0.62618  1.0000
  C   C392      1.0  0.30418  0.08693  0.59091  1.0000
  N   N34       1.0  0.29494  0.06095  0.61826  1.0000
  C   C393      1.0  0.29807  0.10430  0.69399  1.0000
  H   H391      1.0  0.20827  0.02767  0.64547  1.0000
  H   H392      1.0  0.39119  0.00683  0.74968  1.0000
  H   H393      1.0  0.25485  0.99752  0.62643  1.0000
  C   C394      1.0  0.33772  0.10400  0.76685  1.0000
  C   C395      1.0  0.11873  0.22569  0.66611  1.0000
  N   N35       1.0  0.40605  0.06642  0.73758  1.0000
  C   C396      1.0  0.41079  0.06976  0.74413  1.0000
  C   C397      1.0  0.39474  0.06946  0.73828  1.0000
  C   C398      1.0  0.40416  0.07646  0.75151  1.0000
  C   C399      1.0  0.38787  0.07609  0.74562  1.0000
  C   C400      1.0  0.39262  0.07960  0.75227  1.0000
  C   C401      1.0  0.41301  0.05910  0.73016  1.0000
  H   H394      1.0  0.41977  0.06743  0.74354  1.0000
  H   H395      1.0  0.39099  0.06681  0.73308  1.0000
  H   H396      1.0  0.40801  0.07944  0.75635  1.0000
  H   H397      1.0  0.37893  0.07859  0.74602  1.0000
  H   H398      1.0  0.38740  0.08493  0.75783  1.0000
  H   H399      1.0  0.41297  0.05029  0.73446  1.0000
  H   H400      1.0  0.40976  0.06089  0.72252  1.0000
  H   H401      1.0  0.42178  0.06026  0.72755  1.0000
  C   C402      1.0  0.19874  0.01435  0.63164  1.0000
  H   H402      1.0  0.33476  0.11295  0.76505  1.0000
  C   C403      1.0  0.33934  0.08626  0.76276  1.0000
  H   H403      1.0  0.15422  0.13591  0.66370  1.0000
  H   H404      1.0  0.16641  0.13898  0.65320  1.0000
  C   C404      1.0  0.21598  0.11771  0.58847  1.0000
  H   H405      1.0  0.35077  0.02786  0.76215  1.0000
  C   C405      1.0  0.20797  0.01016  0.64996  1.0000
  C   C406      1.0  0.22007  0.12711  0.58744  1.0000
  C   C407      1.0  0.34732  0.08762  0.77721  1.0000
  H   H406      1.0  0.29577  0.10183  0.67293  1.0000
  Fe  Fe77      1.0  0.03525  0.22858  0.63330  1.0000
  N   N36       1.0  0.26228  0.12239  0.59521  1.0000
  C   C408      1.0  0.26526  0.12457  0.60372  1.0000
  H   H407      1.0  0.31105  0.08598  0.71366  1.0000
  H   H408      1.0  0.24741  0.11843  0.59445  1.0000
  H   H409      1.0  0.09157  0.22136  0.67128  1.0000
  H   H410      1.0  0.19523  0.01586  0.62443  1.0000
  H   H411      1.0  0.35545  0.10581  0.77817  1.0000
  H   H412      1.0  0.02209  0.21602  0.65393  1.0000
  H   H413      1.0  0.15402  0.13935  0.64909  1.0000
  H   H414      1.0  0.08774  0.20596  0.63669  1.0000
  C   C409      1.0  0.38254  0.00837  0.74903  1.0000
  C   C410      1.0  0.48353  0.08708  0.76007  1.0000
  C   C411      1.0  0.49081  0.11567  0.74529  1.0000
  C   C412      1.0  0.43426  0.04425  0.77018  1.0000
  C   C413      1.0  0.11389  0.22428  0.65820  1.0000
  C   C414      1.0  0.27016  0.11710  0.58760  1.0000
  H   H415      1.0  0.39799  0.07197  0.77738  1.0000
  C   C415      1.0  0.30389  0.10045  0.70257  1.0000
  H   H416      1.0  0.21898  0.10250  0.58295  1.0000
  C   C416      1.0  0.11913  0.20780  0.58640  1.0000
  H   H417      1.0  0.47470  0.08714  0.76342  1.0000
  C   C417      1.0  0.37878  0.00072  0.74581  1.0000
  C   C418      1.0  0.06182  0.22723  0.58781  1.0000
  C   C419      1.0  0.40774  0.08660  0.78054  1.0000
  H   H418      1.0  0.10054  0.20105  0.59136  1.0000
  H   H419      1.0  0.37800  0.02379  0.75426  1.0000
  C   C420      1.0  0.07462  0.23067  0.65290  1.0000
  H   H420      1.0  0.21791  0.99478  0.61654  1.0000
  H   H421      1.0  0.31016  0.06692  0.61347  1.0000
  H   H422      1.0  0.34848  0.07219  0.77276  1.0000
  H   H423      1.0  0.33105  0.10191  0.75399  1.0000
  C   C421      1.0  0.35620  0.03007  0.75385  1.0000
  Fe  Fe78      1.0  0.40275  0.03225  0.77581  1.0000
  H   H424      1.0  0.21173  0.00858  0.65702  1.0000
  H   H425      1.0  0.27878  0.12306  0.61159  1.0000
  Fe  Fe79      1.0  0.38210  0.02294  0.78010  1.0000
  C   C422      1.0  0.01652  0.21234  0.65167  1.0000
  H   H426      1.0  0.42792  0.13592  0.75990  1.0000
  H   H427      1.0  0.30849  0.05659  0.62633  1.0000
  H   H428      1.0  0.12237  0.21852  0.67175  1.0000
  C   C423      1.0  0.34529  0.08113  0.77111  1.0000
  H   H429      1.0  0.00228  0.22234  0.62615  1.0000
  C   C424      1.0  0.43335  0.11708  0.77919  1.0000
  C   C425      1.0  0.20616  0.02093  0.64342  1.0000
  H   H430      1.0  0.14251  0.18399  0.65749  1.0000
  C   C426      1.0  0.25846  0.99605  0.61791  1.0000
  H   H431      1.0  0.13081  0.17419  0.65254  1.0000
  H   H432      1.0  0.30364  0.05996  0.60167  1.0000
  H   H433      1.0  0.40724  0.12984  0.74830  1.0000
  C   C427      1.0  0.28923  0.10118  0.68072  1.0000
  C   C428      1.0  0.11902  0.23636  0.66669  1.0000
  C   C429      1.0  0.25063  0.12580  0.59404  1.0000
  H   H434      1.0  0.24683  0.99368  0.60444  1.0000
  C   C430      1.0  0.24588  0.04789  0.58940  1.0000
  N   N37       1.0  0.34360  0.09891  0.77500  1.0000
  C   C431      1.0  0.43109  0.13320  0.75212  1.0000
  C   C432      1.0  0.44235  0.13284  0.74685  1.0000
  C   C433      1.0  0.08072  0.20863  0.63269  1.0000
  C   C434      1.0  0.13740  0.23368  0.59593  1.0000
  H   H435      1.0  0.24503  0.13005  0.60066  1.0000
  C   C435      1.0  0.14541  0.17522  0.65732  1.0000
  H   H436      1.0  0.29324  0.11387  0.59761  1.0000
  C   C436      1.0  0.14278  0.15851  0.65408  1.0000
  H   H437      1.0  0.49010  0.11043  0.73094  1.0000
  H   H438      1.0  0.36061  0.03636  0.75410  1.0000
  H   H439      1.0  0.07139  0.22773  0.64748  1.0000
  C   C437      1.0  0.13880  0.16971  0.65462  1.0000
  C   C438      1.0  0.05050  0.23075  0.59258  1.0000
  N   N38       1.0  0.29463  0.09704  0.69022  1.0000
  C   C439      1.0  0.34644  0.10555  0.78108  1.0000
  C   C440      1.0  0.28455  0.11628  0.59691  1.0000
  H   H440      1.0  0.28406  0.09552  0.68053  1.0000
  H   H441      1.0  0.45531  0.12860  0.73290  1.0000
  C   C441      1.0  0.22208  0.98948  0.62301  1.0000
  H   H442      1.0  0.16122  0.17373  0.66132  1.0000
  H   H443      1.0  0.29665  0.11307  0.69010  1.0000
  N   N39       1.0  0.42421  0.12995  0.74766  1.0000
  C   C442      1.0  0.15589  0.16947  0.65948  1.0000
  H   H444      1.0  0.35094  0.03412  0.74762  1.0000
  H   H445      1.0  0.01720  0.19298  0.63782  1.0000
  C   C443      1.0  0.48434  0.09303  0.77642  1.0000
  C   C444      1.0  0.22694  0.99416  0.62876  1.0000
  C   C445      1.0  0.33551  0.09777  0.76060  1.0000
  H   H446      1.0  0.33777  0.08134  0.75791  1.0000
  H   H447      1.0  0.41272  0.12170  0.76024  1.0000
  H   H448      1.0  0.13774  0.15444  0.65157  1.0000
  H   H449      1.0  0.38448  0.99311  0.74398  1.0000
  C   C446      1.0  0.28775  0.05542  0.60563  1.0000
  C   C447      1.0  0.15962  0.15827  0.65885  1.0000
  C   C448      1.0  0.30278  0.08176  0.70329  1.0000
  C   C449      1.0  0.43947  0.12585  0.73245  1.0000
  H   H450      1.0  0.35155  0.01398  0.74762  1.0000
  C   C450      1.0  0.30406  0.06391  0.62101  1.0000
  H   H451      1.0  0.23755  0.04897  0.58815  1.0000
  C   C451      1.0  0.00221  0.20301  0.64595  1.0000
  H   H452      1.0  0.30696  0.10617  0.70526  1.0000
  C   C452      1.0  0.27812  0.05392  0.61377  1.0000
  H   H453      1.0  0.42290  0.12346  0.73454  1.0000
  H   H454      1.0  0.26156  0.08238  0.63482  1.0000
  C   C453      1.0  0.29700  0.08589  0.69468  1.0000
  H   H455      1.0  0.29485  0.08007  0.69126  1.0000
  C   C454      1.0  0.15710  0.14121  0.65555  1.0000
  C   C455      1.0  0.00489  0.21590  0.65470  1.0000
  Fe  Fe80      1.0  0.38020  0.04822  0.77775  1.0000
  H   H456      1.0  0.19823  0.99702  0.63645  1.0000
  C   C456      1.0  0.36759  0.00280  0.74522  1.0000
  H   H457      1.0  0.20039  0.03131  0.62895  1.0000
  H   H458      1.0  0.08454  0.23282  0.59857  1.0000
  H   H459      1.0  0.20310  0.09260  0.61185  1.0000
  C   C457      1.0  0.35719  0.99154  0.77118  1.0000
  C   C458      1.0  0.10913  0.23363  0.65097  1.0000
  H   H460      1.0  0.08468  0.21462  0.65868  1.0000
  C   C459      1.0  0.20673  0.99058  0.65458  1.0000
  H   H461      1.0  0.00149  0.22251  0.65926  1.0000
  H   H462      1.0  0.43713  0.12411  0.77487  1.0000
  H   H463      1.0  0.22326  0.09626  0.60283  1.0000
  C   C460      1.0  0.12675  0.23355  0.59497  1.0000
  C   C461      1.0  0.22217  0.10970  0.58233  1.0000
  H   H464      1.0  0.14349  0.23642  0.62684  1.0000
  H   H465      1.0  0.25485  0.00345  0.61205  1.0000
  H   H466      1.0  0.25010  0.13162  0.58593  1.0000
  H   H467      1.0  0.00181  0.23292  0.60194  1.0000
  H   H468      1.0  0.13610  0.20749  0.58685  1.0000
  H   H469      1.0  0.48729  0.10020  0.77708  1.0000
  H   H470      1.0  0.44869  0.10495  0.77576  1.0000
  H   H471      1.0  0.09367  0.21545  0.58975  1.0000
  H   H472      1.0  0.43494  0.04361  0.77854  1.0000
  C   C462      1.0  0.43993  0.10625  0.77987  1.0000
  H   H473      1.0  0.47508  0.09561  0.77755  1.0000
  H   H474      1.0  0.35378  0.01429  0.78179  1.0000
  C   C463      1.0  0.09980  0.20919  0.58535  1.0000
  H   H475      1.0  0.26713  0.06149  0.58262  1.0000
  H   H476      1.0  0.13507  0.23623  0.64080  1.0000
  H   H477      1.0  0.31057  0.08572  0.58352  1.0000
  H   H478      1.0  0.09461  0.23643  0.67669  1.0000
  N   N40       1.0  0.08288  0.23818  0.66680  1.0000
  C   C464      1.0  0.12934  0.21119  0.58246  1.0000
  C   C465      1.0  0.40436  0.06816  0.78220  1.0000
  Fe  Fe81      1.0  0.39454  0.21124  0.95763  1.0000
  S   S159      1.0  0.41038  0.21537  0.94619  1.0000
  Fe  Fe82      1.0  0.38746  0.20529  0.93912  1.0000
  S   S160      1.0  0.40272  0.20892  0.92654  1.0000
  S   S161      1.0  0.37449  0.19940  0.93454  1.0000
  Fe  Fe83      1.0  0.41173  0.20011  0.94020  1.0000
  S   S162      1.0  0.42791  0.18796  0.93689  1.0000
  Fe  Fe84      1.0  0.39973  0.22380  0.93372  1.0000
  H   H479      1.0  0.41582  0.21718  0.83542  1.0000
  S   S163      1.0  0.39669  0.19516  0.95248  1.0000
  S   S164      1.0  0.38362  0.22094  0.94547  1.0000
  Fe  Fe85      1.0  0.46233  0.22690  0.89628  1.0000
  S   S165      1.0  0.46609  0.21407  0.91131  1.0000
  H   H480      1.0  0.49213  0.21106  0.90099  1.0000
  N   N41       1.0  0.41031  0.07447  0.78431  1.0000
  C   C466      1.0  0.40977  0.17975  0.92477  1.0000
  H   H481      1.0  0.33887  0.14777  0.82767  1.0000
  H   H482      1.0  0.45225  0.22149  0.93446  1.0000
  S   S166      1.0  0.47222  0.22371  0.87974  1.0000
  C   C467      1.0  0.37655  0.09138  0.78915  1.0000
  C   C468      1.0  0.39942  0.17577  0.91368  1.0000
  S   S167      1.0  0.36611  0.12595  0.80472  1.0000
  H   H483      1.0  0.42387  0.22211  0.97788  1.0000
  C   C469      1.0  0.35087  0.15659  0.79636  1.0000
  S   S168      1.0  0.39178  0.12143  0.80682  1.0000
  Fe  Fe86      1.0  0.45632  0.23211  0.87374  1.0000
  Fe  Fe87      1.0  0.38166  0.11269  0.80145  1.0000
  S   S169      1.0  0.38294  0.09404  0.80710  1.0000
  Fe  Fe88      1.0  0.37694  0.13560  0.80813  1.0000
  S   S170      1.0  0.37273  0.14434  0.82277  1.0000
  H   H484      1.0  0.34478  0.10187  0.79012  1.0000
  H   H485      1.0  0.36867  0.16453  0.80471  1.0000
  Fe  Fe89      1.0  0.38601  0.19109  0.87277  1.0000
  S   S171      1.0  0.39688  0.20307  0.86955  1.0000
  S   S172      1.0  0.37384  0.18874  0.88928  1.0000
  Fe  Fe90      1.0  0.39603  0.18392  0.85043  1.0000
  S   S173      1.0  0.40822  0.19536  0.84579  1.0000
  S   S174      1.0  0.39771  0.17402  0.83709  1.0000
  Fe  Fe91      1.0  0.41061  0.18974  0.86327  1.0000
  S   S175      1.0  0.42672  0.18658  0.86909  1.0000
  Fe  Fe92      1.0  0.39362  0.20795  0.85249  1.0000
  S   S176      1.0  0.39278  0.22603  0.84449  1.0000
  S   S177      1.0  0.39993  0.17709  0.86754  1.0000
  S   S178      1.0  0.38121  0.19716  0.85609  1.0000
  C   C470      1.0  0.44603  0.22852  0.93138  1.0000
  H   H486      1.0  0.45818  0.23650  0.91886  1.0000
  H   H487      1.0  0.36961  0.22527  0.85484  1.0000
  H   H488      1.0  0.42810  0.22137  0.89585  1.0000
  C   C471      1.0  0.40923  0.21737  0.97683  1.0000
  H   H489      1.0  0.36588  0.16842  0.79109  1.0000
  C   C472      1.0  0.41802  0.18208  0.91527  1.0000
  Fe  Fe93      1.0  0.39553  0.12974  0.78887  1.0000
  S   S179      1.0  0.37555  0.00699  0.78720  1.0000
  N   N42       1.0  0.44068  0.21875  0.83902  1.0000
  C   C473      1.0  0.37926  0.15336  0.82623  1.0000
  C   C474      1.0  0.38827  0.15765  0.81896  1.0000
  C   C475      1.0  0.39345  0.16431  0.82228  1.0000
  C   C476      1.0  0.38977  0.16683  0.83291  1.0000
  C   C477      1.0  0.38056  0.16279  0.84005  1.0000
  C   C478      1.0  0.37537  0.15613  0.83672  1.0000
  H   H490      1.0  0.39136  0.15573  0.81083  1.0000
  H   H491      1.0  0.40052  0.16740  0.81664  1.0000
  H   H492      1.0  0.37760  0.16458  0.84825  1.0000
  H   H493      1.0  0.36839  0.15295  0.84244  1.0000
  H   H494      1.0  0.45584  0.21559  0.84464  1.0000
  H   H495      1.0  0.42591  0.22652  0.86071  1.0000
  C   C479      1.0  0.44936  0.23694  0.92256  1.0000
  C   C480      1.0  0.34946  0.15754  0.81490  1.0000
  C   C481      1.0  0.40619  0.05668  0.78645  1.0000
  C   C482      1.0  0.38005  0.08628  0.79911  1.0000
  C   C483      1.0  0.43885  0.22999  0.83808  1.0000
  C   C484      1.0  0.42041  0.05811  0.79477  1.0000
  H   H496      1.0  0.41590  0.22122  0.90681  1.0000
  C   C485      1.0  0.37894  0.06829  0.79678  1.0000
  C   C486      1.0  0.38134  0.07470  0.80282  1.0000
  N   N43       1.0  0.35391  0.16043  0.80381  1.0000
  H   H497      1.0  0.39816  0.23221  0.90377  1.0000
  H   H498      1.0  0.37974  0.05942  0.79986  1.0000
  H   H499      1.0  0.38408  0.07068  0.81049  1.0000
  C   C487      1.0  0.44044  0.21688  0.86708  1.0000
  C   C488      1.0  0.44587  0.20619  0.87159  1.0000
  C   C489      1.0  0.44139  0.19695  0.87258  1.0000
  C   C490      1.0  0.43143  0.19836  0.86912  1.0000
  C   C491      1.0  0.42570  0.20911  0.86522  1.0000
  C   C492      1.0  0.43018  0.21831  0.86421  1.0000
  H   H500      1.0  0.45385  0.20497  0.87373  1.0000
  H   H501      1.0  0.44588  0.18867  0.87564  1.0000
  H   H502      1.0  0.41805  0.21034  0.86250  1.0000
  C   C493      1.0  0.41671  0.18129  0.90505  1.0000
  C   C494      1.0  0.45139  0.21155  0.84103  1.0000
  C   C495      1.0  0.37538  0.19641  0.92166  1.0000
  C   C496      1.0  0.38293  0.19999  0.91186  1.0000
  C   C497      1.0  0.38272  0.19769  0.90175  1.0000
  C   C498      1.0  0.37500  0.19177  0.90148  1.0000
  C   C499      1.0  0.36757  0.18827  0.91129  1.0000
  C   C500      1.0  0.36774  0.19058  0.92125  1.0000
  H   H503      1.0  0.38880  0.20461  0.91206  1.0000
  H   H504      1.0  0.38842  0.20057  0.89420  1.0000
  H   H505      1.0  0.36154  0.18376  0.91118  1.0000
  H   H506      1.0  0.36183  0.18785  0.92873  1.0000
  C   C501      1.0  0.43846  0.19514  0.92938  1.0000
  C   C502      1.0  0.44961  0.19012  0.92980  1.0000
  C   C503      1.0  0.45807  0.19599  0.92419  1.0000
  C   C504      1.0  0.45544  0.20673  0.91785  1.0000
  C   C505      1.0  0.44430  0.21167  0.91720  1.0000
  C   C506      1.0  0.43579  0.20594  0.92311  1.0000
  H   H507      1.0  0.45168  0.18180  0.93470  1.0000
  H   H508      1.0  0.46666  0.19217  0.92475  1.0000
  H   H509      1.0  0.44220  0.22004  0.91251  1.0000
  H   H510      1.0  0.42717  0.20988  0.92285  1.0000
  C   C507      1.0  0.37523  0.07342  0.78694  1.0000
  C   C508      1.0  0.36134  0.22134  0.90623  1.0000
  H   H511      1.0  0.42310  0.18320  0.89765  1.0000
  H   H512      1.0  0.40144  0.05168  0.78484  1.0000
  H   H513      1.0  0.35512  0.22706  0.88292  1.0000
  C   C509      1.0  0.37413  0.08497  0.78312  1.0000
  N   N44       1.0  0.41353  0.23320  0.89191  1.0000
  H   H514      1.0  0.35438  0.15882  0.78754  1.0000
  C   C510      1.0  0.33899  0.14629  0.81131  1.0000
  H   H515      1.0  0.37558  0.10027  0.78616  1.0000
  C   C511      1.0  0.36279  0.22337  0.88632  1.0000
  C   C512      1.0  0.40039  0.17663  0.92399  1.0000
  H   H516      1.0  0.42684  0.05427  0.79953  1.0000
  H   H517      1.0  0.36374  0.21417  0.88856  1.0000
  C   C513      1.0  0.38185  0.23523  0.85129  1.0000
  H   H518      1.0  0.41315  0.17115  0.89012  1.0000
  C   C514      1.0  0.40212  0.23531  0.89525  1.0000
  C   C515      1.0  0.40628  0.17763  0.89353  1.0000
  H   H519      1.0  0.48539  0.22517  0.89683  1.0000
  Fe  Fe94      1.0  0.37167  0.13341  0.78660  1.0000
  H   H520      1.0  0.45000  0.20375  0.84715  1.0000
  H   H521      1.0  0.39202  0.17347  0.91315  1.0000
  H   H522      1.0  0.39380  0.17510  0.93130  1.0000
  C   C516      1.0  0.36186  0.16780  0.80003  1.0000
  S   S180      1.0  0.38103  0.14426  0.79025  1.0000
  C   C517      1.0  0.41831  0.06957  0.79045  1.0000
  H   H523      1.0  0.43202  0.22227  0.94258  1.0000
  H   H524      1.0  0.33336  0.14058  0.81424  1.0000
  C   C518      1.0  0.34205  0.15033  0.81883  1.0000
  H   H525      1.0  0.41062  0.18042  0.93273  1.0000
  C   C519      1.0  0.37115  0.23293  0.85552  1.0000
  H   H526      1.0  0.41147  0.21855  0.96791  1.0000
  H   H527      1.0  0.48647  0.08582  0.78317  1.0000
  N   N45       1.0  0.41122  0.13560  0.81941  1.0000
  C   C520      1.0  0.40274  0.13163  0.82733  1.0000
  C   C521      1.0  0.41652  0.14256  0.82147  1.0000
  C   C522      1.0  0.39950  0.13444  0.83771  1.0000
  C   C523      1.0  0.41349  0.14554  0.83177  1.0000
  C   C524      1.0  0.40491  0.14145  0.83992  1.0000
  C   C525      1.0  0.41408  0.13296  0.80842  1.0000
  H   H528      1.0  0.39820  0.12651  0.82556  1.0000
  H   H529      1.0  0.42295  0.14606  0.81508  1.0000
  H   H530      1.0  0.39251  0.13158  0.84382  1.0000
  H   H531      1.0  0.41736  0.15142  0.83326  1.0000
  H   H532      1.0  0.40216  0.14412  0.84774  1.0000
  H   H533      1.0  0.41429  0.12406  0.80911  1.0000
  H   H534      1.0  0.40777  0.13817  0.80355  1.0000
  H   H535      1.0  0.42246  0.13445  0.80366  1.0000
  C   C526      1.0  0.41421  0.05167  0.79284  1.0000
  H   H536      1.0  0.35751  0.17626  0.80138  1.0000
  H   H537      1.0  0.42292  0.23250  0.90343  1.0000
  H   H538      1.0  0.43401  0.20525  0.83875  1.0000
  H   H539      1.0  0.34110  0.14634  0.79406  1.0000
  H   H540      1.0  0.36105  0.21269  0.90760  1.0000
  H   H541      1.0  0.41986  0.09185  0.79479  1.0000
  H   H542      1.0  0.40674  0.18574  0.88764  1.0000
  C   C527      1.0  0.36105  0.22558  0.91527  1.0000
  S   S181      1.0  0.44621  0.23369  0.89066  1.0000
  N   N46       1.0  0.36204  0.22799  0.89582  1.0000
  H   H543      1.0  0.35196  0.08355  0.78368  1.0000
  H   H544      1.0  0.42534  0.18451  0.91585  1.0000
  S   S182      1.0  0.44717  0.22822  0.86282  1.0000
  N   N47       1.0  0.40748  0.17821  0.90437  1.0000
  C   C528      1.0  0.36114  0.23678  0.91367  1.0000
  H   H545      1.0  0.39813  0.17575  0.89393  1.0000
  H   H546      1.0  0.37020  0.22519  0.87970  1.0000
  S   S183      1.0  0.38724  0.03281  0.78938  1.0000
  C   C529      1.0  0.43262  0.21417  0.83791  1.0000
  H   H547      1.0  0.35194  0.16052  0.82082  1.0000
  C   C530      1.0  0.43467  0.22894  0.93589  1.0000
  C   C531      1.0  0.34334  0.14950  0.79999  1.0000
  C   C532      1.0  0.42022  0.23224  0.83543  1.0000
  H   H548      1.0  0.45683  0.20950  0.83316  1.0000
  H   H549      1.0  0.36076  0.22019  0.92347  1.0000
  C   C533      1.0  0.41707  0.10953  0.78931  1.0000
  H   H550      1.0  0.40819  0.11056  0.79247  1.0000
  H   H551      1.0  0.42313  0.07447  0.79208  1.0000
  H   H552      1.0  0.42755  0.23626  0.87876  1.0000
  C   C534      1.0  0.41851  0.23755  0.88132  1.0000
  C   C535      1.0  0.42372  0.09881  0.79047  1.0000
  C   C536      1.0  0.43503  0.09710  0.78526  1.0000
  C   C537      1.0  0.42048  0.22675  0.89988  1.0000
  H   H553      1.0  0.40264  0.09049  0.78759  1.0000
  H   H554      1.0  0.41575  0.04276  0.79613  1.0000
  C   C538      1.0  0.42229  0.22084  0.83611  1.0000
  S   S184      1.0  0.38957  0.21265  0.97576  1.0000
  C   C539      1.0  0.42181  0.11867  0.78355  1.0000
  H   H555      1.0  0.44520  0.23362  0.83906  1.0000
  C   C540      1.0  0.49371  0.21949  0.89680  1.0000
  H   H556      1.0  0.41212  0.23742  0.83428  1.0000
  C   C541      1.0  0.42856  0.23689  0.83637  1.0000
  S   S185      1.0  0.44201  0.08388  0.78295  1.0000
  S   S186      1.0  0.38677  0.11988  0.78333  1.0000
  H   H557      1.0  0.41794  0.23802  0.93496  1.0000
  C   C542      1.0  0.42676  0.23784  0.93150  1.0000
  Fe  Fe95      1.0  0.28849  0.36317  0.07311  1.0000
  S   S187      1.0  0.30370  0.37028  0.06925  1.0000
  S   S188      1.0  0.28486  0.35588  0.06084  1.0000
  Fe  Fe96      1.0  0.28069  0.36780  0.09613  1.0000
  S   S189      1.0  0.29516  0.37549  0.09434  1.0000
  S   S190      1.0  0.26670  0.36581  0.11115  1.0000
  Fe  Fe97      1.0  0.29203  0.38387  0.07732  1.0000
  S   S191      1.0  0.29137  0.40151  0.06777  1.0000
  Fe  Fe98      1.0  0.30557  0.36117  0.08645  1.0000
  S   S192      1.0  0.32249  0.35218  0.09043  1.0000
  S   S193      1.0  0.27664  0.37739  0.07984  1.0000
  S   S194      1.0  0.29130  0.35280  0.08967  1.0000
  Fe  Fe99      1.0  0.19163  0.42858  0.12222  1.0000
  S   S195      1.0  0.18040  0.41669  0.12607  1.0000
  S   S196      1.0  0.18553  0.44658  0.12272  1.0000
  Fe  Fe100     1.0  0.21295  0.41094  0.11891  1.0000
  S   S197      1.0  0.20375  0.39720  0.12278  1.0000
  S   S198      1.0  0.23127  0.41113  0.11235  1.0000
  Fe  Fe101     1.0  0.19259  0.40952  0.11211  1.0000
  S   S199      1.0  0.18682  0.40477  0.09939  1.0000
  Fe  Fe102     1.0  0.19229  0.40545  0.13650  1.0000
  S   S200      1.0  0.18643  0.39719  0.15441  1.0000
  S   S201      1.0  0.20254  0.42261  0.10724  1.0000
  S   S202      1.0  0.20272  0.41800  0.13360  1.0000
  Fe  Fe103     1.0  0.35994  0.29334  0.08638  1.0000
  S   S203      1.0  0.36252  0.27705  0.09870  1.0000
  S   S204      1.0  0.34270  0.30282  0.08370  1.0000
  Fe  Fe104     1.0  0.38488  0.29177  0.07728  1.0000
  S   S205      1.0  0.38965  0.27547  0.08863  1.0000
  S   S206      1.0  0.39699  0.30128  0.06479  1.0000
  Fe  Fe105     1.0  0.37563  0.27084  0.08484  1.0000
  H   H558      1.0  0.22337  0.42839  0.12544  1.0000
  Fe  Fe106     1.0  0.37633  0.28291  0.10150  1.0000
  S   S207      1.0  0.38000  0.27992  0.11821  1.0000
  S   S208      1.0  0.37200  0.28651  0.07213  1.0000
  S   S209      1.0  0.37261  0.29985  0.09054  1.0000
  C   C543      1.0  0.28677  0.34184  0.11843  1.0000
  Fe  Fe107     1.0  0.45668  0.25307  0.09795  1.0000
  H   H559      1.0  0.41873  0.26403  0.07017  1.0000
  Fe  Fe108     1.0  0.46113  0.24877  0.07496  1.0000
  H   H560      1.0  0.23316  0.41280  0.06995  1.0000
  H   H561      1.0  0.40733  0.30205  0.08927  1.0000
  S   S210      1.0  0.46431  0.26807  0.09215  1.0000
  Fe  Fe109     1.0  0.45523  0.27229  0.07829  1.0000
  S   S211      1.0  0.44627  0.28984  0.07245  1.0000
  C   C544      1.0  0.22733  0.42685  0.08354  1.0000
  H   H562      1.0  0.26517  0.44189  0.11683  1.0000
  Fe  Fe110     1.0  0.23355  0.40870  0.01931  1.0000
  S   S212      1.0  0.24748  0.39906  0.02800  1.0000
  S   S213      1.0  0.23669  0.41093  0.00067  1.0000
  Fe  Fe111     1.0  0.21834  0.41468  0.04053  1.0000
  S   S214      1.0  0.23070  0.40530  0.05104  1.0000
  S   S215      1.0  0.20157  0.42397  0.04804  1.0000
  Fe  Fe112     1.0  0.24302  0.41293  0.03696  1.0000
  S   S216      1.0  0.25607  0.41860  0.04150  1.0000
  Fe  Fe113     1.0  0.23403  0.39232  0.04130  1.0000
  S   S217      1.0  0.23699  0.37431  0.04949  1.0000
  S   S218      1.0  0.23038  0.42341  0.02703  1.0000
  S   S219      1.0  0.22032  0.40086  0.03204  1.0000
  Fe  Fe114     1.0  0.24321  0.46034  0.07873  1.0000
  S   S220      1.0  0.26052  0.46387  0.07335  1.0000
  S   S221      1.0  0.23299  0.45567  0.06955  1.0000
  Fe  Fe115     1.0  0.23967  0.46443  0.10180  1.0000
  S   S222      1.0  0.25667  0.46789  0.09872  1.0000
  S   S223      1.0  0.22705  0.46707  0.11739  1.0000
  Fe  Fe116     1.0  0.25322  0.47808  0.08232  1.0000
  Fe  Fe117     1.0  0.26246  0.45345  0.09024  1.0000
  S   S224      1.0  0.27637  0.43929  0.09515  1.0000
  S   S225      1.0  0.23573  0.47543  0.08604  1.0000
  S   S226      1.0  0.24566  0.44904  0.09497  1.0000
  N   N48       1.0  0.20980  0.42749  0.99487  1.0000
  C   C545      1.0  0.22984  0.40507  0.99413  1.0000
  C   C546      1.0  0.22081  0.40008  0.00000  1.0000
  C   C547      1.0  0.21464  0.39687  0.99427  1.0000
  C   C548      1.0  0.38463  0.25188  0.14163  1.0000
  H   H563      1.0  0.39706  0.24170  0.09532  1.0000
  C   C549      1.0  0.41302  0.23966  0.09925  1.0000
  H   H564      1.0  0.21836  0.39901  0.00891  1.0000
  H   H565      1.0  0.20751  0.39326  0.99883  1.0000
  H   H566      1.0  0.43985  0.27114  0.10694  1.0000
  C   C550      1.0  0.24993  0.42930  0.04884  1.0000
  C   C551      1.0  0.25634  0.43291  0.05392  1.0000
  C   C552      1.0  0.25128  0.44108  0.06025  1.0000
  C   C553      1.0  0.23981  0.44574  0.06138  1.0000
  C   C554      1.0  0.23346  0.44216  0.05623  1.0000
  C   C555      1.0  0.23847  0.43391  0.05007  1.0000
  H   H567      1.0  0.26520  0.42931  0.05305  1.0000
  H   H568      1.0  0.25625  0.44377  0.06422  1.0000
  H   H569      1.0  0.22464  0.44575  0.05697  1.0000
  H   H570      1.0  0.23346  0.43119  0.04618  1.0000
  S   S227      1.0  0.43029  0.25392  0.02968  1.0000
  C   C556      1.0  0.36369  0.24441  0.11037  1.0000
  C   C557      1.0  0.15631  0.39642  0.17578  1.0000
  H   H571      1.0  0.24773  0.45293  0.12645  1.0000
  N   N49       1.0  0.30495  0.33019  0.11375  1.0000
  N   N50       1.0  0.23836  0.43007  0.12822  1.0000
  H   H572      1.0  0.26478  0.41509  0.08379  1.0000
  C   C558      1.0  0.25765  0.43855  0.12008  1.0000
  C   C559      1.0  0.36184  0.24840  0.11998  1.0000
  C   C560      1.0  0.37258  0.25812  0.05343  1.0000
  C   C561      1.0  0.37247  0.25970  0.06386  1.0000
  C   C562      1.0  0.23827  0.44034  0.12955  1.0000
  C   C563      1.0  0.37766  0.24779  0.05065  1.0000
  H   H573      1.0  0.36918  0.26500  0.04737  1.0000
  H   H574      1.0  0.36881  0.26775  0.06588  1.0000
  C   C564      1.0  0.41085  0.29750  0.06660  1.0000
  C   C565      1.0  0.41792  0.30493  0.06138  1.0000
  C   C566      1.0  0.42885  0.30236  0.06305  1.0000
  C   C567      1.0  0.43292  0.29220  0.06971  1.0000
  C   C568      1.0  0.42596  0.28461  0.07472  1.0000
  C   C569      1.0  0.41489  0.28733  0.07328  1.0000
  H   H575      1.0  0.41489  0.31281  0.05620  1.0000
  H   H576      1.0  0.43418  0.30829  0.05920  1.0000
  H   H577      1.0  0.42894  0.27683  0.08000  1.0000
  H   H578      1.0  0.40953  0.28155  0.07734  1.0000
  C   C570      1.0  0.38306  0.26579  0.12470  1.0000
  C   C571      1.0  0.38249  0.26302  0.13610  1.0000
  H   H579      1.0  0.38014  0.26951  0.14073  1.0000
  C   C572      1.0  0.17197  0.39774  0.15976  1.0000
  H   H580      1.0  0.24364  0.37052  0.12264  1.0000
  C   C573      1.0  0.15293  0.40172  0.15723  1.0000
  C   C574      1.0  0.16445  0.40087  0.15275  1.0000
  H   H581      1.0  0.14718  0.40408  0.15173  1.0000
  H   H582      1.0  0.16751  0.40250  0.14388  1.0000
  C   C575      1.0  0.21550  0.46148  0.11868  1.0000
  C   C576      1.0  0.21688  0.45210  0.11447  1.0000
  C   C577      1.0  0.20770  0.44744  0.11583  1.0000
  C   C578      1.0  0.19704  0.45235  0.12112  1.0000
  C   C579      1.0  0.19561  0.46185  0.12515  1.0000
  C   C580      1.0  0.20487  0.46630  0.12410  1.0000
  H   H583      1.0  0.22507  0.44826  0.11039  1.0000
  H   H584      1.0  0.20889  0.44009  0.11272  1.0000
  H   H585      1.0  0.18738  0.46565  0.12927  1.0000
  H   H586      1.0  0.20376  0.47355  0.12739  1.0000
  C   C581      1.0  0.19111  0.41063  0.08527  1.0000
  C   C582      1.0  0.20128  0.41413  0.08097  1.0000
  C   C583      1.0  0.20475  0.41795  0.06946  1.0000
  C   C584      1.0  0.19783  0.41867  0.06234  1.0000
  C   C585      1.0  0.18759  0.41545  0.06672  1.0000
  C   C586      1.0  0.18435  0.41124  0.07810  1.0000
  H   H587      1.0  0.20654  0.41372  0.08646  1.0000
  H   H588      1.0  0.21260  0.42061  0.06608  1.0000
  H   H589      1.0  0.18221  0.41602  0.06127  1.0000
  H   H590      1.0  0.17652  0.40851  0.08137  1.0000
  C   C587      1.0  0.32787  0.33838  0.08877  1.0000
  C   C588      1.0  0.32243  0.33328  0.08412  1.0000
  C   C589      1.0  0.32702  0.32230  0.08276  1.0000
  C   C590      1.0  0.33707  0.31639  0.08598  1.0000
  C   C591      1.0  0.34250  0.32149  0.09066  1.0000
  C   C592      1.0  0.33788  0.33245  0.09208  1.0000
  H   H591      1.0  0.31474  0.33779  0.08150  1.0000
  H   H592      1.0  0.32280  0.31840  0.07910  1.0000
  H   H593      1.0  0.35024  0.31701  0.09318  1.0000
  H   H594      1.0  0.34212  0.33636  0.09570  1.0000
  C   C593      1.0  0.27134  0.36120  0.05822  1.0000
  C   C594      1.0  0.26598  0.35417  0.05594  1.0000
  C   C595      1.0  0.25535  0.35822  0.05348  1.0000
  C   C596      1.0  0.25019  0.36944  0.05286  1.0000
  C   C597      1.0  0.25560  0.37659  0.05495  1.0000
  C   C598      1.0  0.26610  0.37243  0.05782  1.0000
  H   H595      1.0  0.27002  0.34551  0.05618  1.0000
  H   H596      1.0  0.25121  0.35268  0.05184  1.0000
  H   H597      1.0  0.25167  0.38530  0.05438  1.0000
  H   H598      1.0  0.27030  0.37797  0.05933  1.0000
  C   C599      1.0  0.28039  0.42883  0.08750  1.0000
  C   C600      1.0  0.27959  0.43134  0.07642  1.0000
  C   C601      1.0  0.28329  0.42293  0.07034  1.0000
  C   C602      1.0  0.28738  0.41193  0.07544  1.0000
  C   C603      1.0  0.28790  0.40937  0.08661  1.0000
  C   C604      1.0  0.28458  0.41785  0.09258  1.0000
  H   H599      1.0  0.27643  0.43981  0.07243  1.0000
  H   H600      1.0  0.28285  0.42495  0.06170  1.0000
  H   H601      1.0  0.29108  0.40092  0.09058  1.0000
  H   H602      1.0  0.28529  0.41589  0.10113  1.0000
  C   C605      1.0  0.25700  0.37838  0.11218  1.0000
  C   C606      1.0  0.26007  0.38849  0.10667  1.0000
  C   C607      1.0  0.25219  0.39849  0.10725  1.0000
  C   C608      1.0  0.24110  0.39845  0.11294  1.0000
  C   C609      1.0  0.23804  0.38837  0.11862  1.0000
  C   C610      1.0  0.24602  0.37833  0.11831  1.0000
  H   H603      1.0  0.26857  0.38860  0.10206  1.0000
  H   H604      1.0  0.25470  0.40628  0.10323  1.0000
  H   H605      1.0  0.22954  0.38827  0.12321  1.0000
  C   C611      1.0  0.29355  0.33189  0.11577  1.0000
  H   H606      1.0  0.27772  0.34327  0.11986  1.0000
  H   H607      1.0  0.31021  0.31262  0.11802  1.0000
  H   H608      1.0  0.30983  0.31839  0.10355  1.0000
  H   H609      1.0  0.48168  0.24325  0.11711  1.0000
  N   N51       1.0  0.27949  0.38383  0.03223  1.0000
  C   C612      1.0  0.27655  0.39455  0.03363  1.0000
  C   C613      1.0  0.28775  0.37631  0.03690  1.0000
  C   C614      1.0  0.28214  0.39804  0.03962  1.0000
  C   C615      1.0  0.29355  0.37953  0.04287  1.0000
  C   C616      1.0  0.29074  0.39047  0.04420  1.0000
  C   C617      1.0  0.27334  0.38021  0.02621  1.0000
  H   H610      1.0  0.26984  0.40050  0.03015  1.0000
  H   H611      1.0  0.28973  0.36767  0.03630  1.0000
  H   H612      1.0  0.27975  0.40654  0.04077  1.0000
  H   H613      1.0  0.29999  0.37347  0.04665  1.0000
  H   H614      1.0  0.29515  0.39307  0.04884  1.0000
  H   H615      1.0  0.27851  0.37297  0.02265  1.0000
  H   H616      1.0  0.26569  0.37774  0.03193  1.0000
  H   H617      1.0  0.27087  0.38697  0.01922  1.0000
  N   N52       1.0  0.23852  0.42032  0.07989  1.0000
  C   C618      1.0  0.41499  0.26501  0.06323  1.0000
  C   C619      1.0  0.38618  0.25732  0.11874  1.0000
  H   H618      1.0  0.38384  0.24983  0.15052  1.0000
  N   N53       1.0  0.20142  0.45499  0.08378  1.0000
  C   C620      1.0  0.19367  0.44937  0.09103  1.0000
  C   C621      1.0  0.20435  0.45442  0.07284  1.0000
  C   C622      1.0  0.18849  0.44314  0.08735  1.0000
  C   C623      1.0  0.19936  0.44824  0.06888  1.0000
  C   C624      1.0  0.19133  0.44263  0.07619  1.0000
  C   C625      1.0  0.20708  0.46108  0.08790  1.0000
  H   H619      1.0  0.19145  0.44969  0.09972  1.0000
  H   H620      1.0  0.21058  0.45878  0.06711  1.0000
  H   H621      1.0  0.18239  0.43865  0.09315  1.0000
  H   H622      1.0  0.20172  0.44774  0.06020  1.0000
  H   H623      1.0  0.18737  0.43783  0.07323  1.0000
  H   H624      1.0  0.20975  0.46816  0.08136  1.0000
  H   H625      1.0  0.20151  0.46451  0.09507  1.0000
  H   H626      1.0  0.21468  0.45545  0.09053  1.0000
  N   N54       1.0  0.21981  0.38437  0.08282  1.0000
  C   C626      1.0  0.23036  0.37918  0.07833  1.0000
  C   C627      1.0  0.21810  0.38941  0.09144  1.0000
  C   C628      1.0  0.23954  0.37893  0.08248  1.0000
  C   C629      1.0  0.22709  0.38946  0.09568  1.0000
  C   C630      1.0  0.23788  0.38416  0.09118  1.0000
  C   C631      1.0  0.21041  0.38508  0.07794  1.0000
  H   H627      1.0  0.23171  0.37511  0.07158  1.0000
  H   H628      1.0  0.20972  0.39335  0.09514  1.0000
  H   H629      1.0  0.24787  0.37463  0.07901  1.0000
  H   H630      1.0  0.22565  0.39350  0.10249  1.0000
  H   H631      1.0  0.24492  0.38399  0.09449  1.0000
  H   H632      1.0  0.21151  0.37752  0.07475  1.0000
  H   H633      1.0  0.20233  0.38591  0.08414  1.0000
  H   H634      1.0  0.20983  0.39244  0.07094  1.0000
  N   N55       1.0  0.35389  0.33844  0.06550  1.0000
  C   C632      1.0  0.36464  0.33623  0.06687  1.0000
  C   C633      1.0  0.35009  0.33068  0.06286  1.0000
  C   C634      1.0  0.37188  0.32601  0.06562  1.0000
  C   C635      1.0  0.35708  0.32035  0.06165  1.0000
  C   C636      1.0  0.36805  0.31806  0.06298  1.0000
  C   C637      1.0  0.34658  0.34931  0.06663  1.0000
  H   H635      1.0  0.36765  0.34237  0.06896  1.0000
  H   H636      1.0  0.34153  0.33232  0.06194  1.0000
  H   H637      1.0  0.38041  0.32420  0.06673  1.0000
  H   H638      1.0  0.35392  0.31407  0.05994  1.0000
  H   H639      1.0  0.37359  0.31011  0.06201  1.0000
  H   H640      1.0  0.34954  0.35592  0.05968  1.0000
  H   H641      1.0  0.33775  0.34958  0.06669  1.0000
  H   H642      1.0  0.34647  0.35119  0.07462  1.0000
  H   H643      1.0  0.47017  0.24898  0.02931  1.0000
  H   H644      1.0  0.22225  0.42889  0.07719  1.0000
  H   H645      1.0  0.24779  0.41608  0.12128  1.0000
  H   H646      1.0  0.21820  0.43281  0.00410  1.0000
  C   C638      1.0  0.30989  0.33819  0.11435  1.0000
  C   C639      1.0  0.30337  0.34832  0.11677  1.0000
  C   C640      1.0  0.29174  0.35012  0.11886  1.0000
  H   H647      1.0  0.31893  0.33694  0.11264  1.0000
  H   H648      1.0  0.30735  0.35481  0.11678  1.0000
  H   H649      1.0  0.28657  0.35799  0.12062  1.0000
  H   H650      1.0  0.26802  0.40284  0.07069  1.0000
  H   H651      1.0  0.22260  0.42902  0.13949  1.0000
  C   C641      1.0  0.38191  0.24048  0.06888  1.0000
  H   H652      1.0  0.39482  0.27635  0.03461  1.0000
  H   H653      1.0  0.26510  0.42350  0.11400  1.0000
  C   C642      1.0  0.20497  0.42498  0.01471  1.0000
  C   C643      1.0  0.21151  0.42891  0.00440  1.0000
  C   C644      1.0  0.22806  0.42582  0.13215  1.0000
  C   C645      1.0  0.25761  0.42819  0.11853  1.0000
  C   C646      1.0  0.25968  0.40756  0.07345  1.0000
  C   C647      1.0  0.24781  0.42407  0.12264  1.0000
  H   H654      1.0  0.28962  0.32559  0.11521  1.0000
  S   S228      1.0  0.37909  0.25301  0.08375  1.0000
  H   H655      1.0  0.41626  0.27869  0.03644  1.0000
  H   H656      1.0  0.24597  0.42631  0.08946  1.0000
  H   H657      1.0  0.40251  0.24214  0.98363  1.0000
  H   H658      1.0  0.12993  0.43709  0.17414  1.0000
  C   C648      1.0  0.46662  0.24200  0.02985  1.0000
  H   H659      1.0  0.39629  0.25555  0.05589  1.0000
  C   C649      1.0  0.19666  0.41956  0.01521  1.0000
  H   H660      1.0  0.42441  0.27699  0.05241  1.0000
  S   S229      1.0  0.44774  0.24728  0.11540  1.0000
  C   C650      1.0  0.24007  0.41324  0.07307  1.0000
  H   H661      1.0  0.09253  0.39902  0.17649  1.0000
  C   C651      1.0  0.44225  0.25676  0.04316  1.0000
  H   H662      1.0  0.40771  0.26806  0.02808  1.0000
  H   H663      1.0  0.35881  0.25721  0.11985  1.0000
  Fe  Fe118     1.0  0.47793  0.25788  0.08141  1.0000
  H   H664      1.0  0.24961  0.48071  0.11842  1.0000
  H   H665      1.0  0.36314  0.24398  0.13710  1.0000
  N   N56       1.0  0.41712  0.29018  0.10003  1.0000
  C   C652      1.0  0.42811  0.28549  0.10031  1.0000
  C   C653      1.0  0.40891  0.28459  0.10619  1.0000
  C   C654      1.0  0.43113  0.27486  0.10674  1.0000
  C   C655      1.0  0.41164  0.27395  0.11273  1.0000
  C   C656      1.0  0.42283  0.26907  0.11299  1.0000
  C   C657      1.0  0.41399  0.30149  0.09360  1.0000
  H   H666      1.0  0.43465  0.28991  0.09547  1.0000
  H   H667      1.0  0.40017  0.28836  0.10613  1.0000
  C   C658      1.0  0.41353  0.27324  0.04426  1.0000
  H   H668      1.0  0.40510  0.26960  0.11768  1.0000
  H   H669      1.0  0.42508  0.26084  0.11808  1.0000
  H   H670      1.0  0.41093  0.30745  0.09917  1.0000
  H   H671      1.0  0.42121  0.30400  0.08709  1.0000
  H   H672      1.0  0.23065  0.44532  0.13355  1.0000
  C   C659      1.0  0.24791  0.44471  0.12554  1.0000
  C   C660      1.0  0.25793  0.41456  0.08065  1.0000
  C   C661      1.0  0.46042  0.24249  0.02225  1.0000
  H   H673      1.0  0.45278  0.25830  0.05306  1.0000
  H   H674      1.0  0.39673  0.26149  0.03687  1.0000
  H   H675      1.0  0.22554  0.43037  0.98483  1.0000
  S   S230      1.0  0.46943  0.26326  0.06692  1.0000
  C   C662      1.0  0.31181  0.31968  0.11096  1.0000
  H   H676      1.0  0.22784  0.43487  0.08494  1.0000
  H   H677      1.0  0.32092  0.31957  0.10892  1.0000
  C   C663      1.0  0.40693  0.25908  0.06423  1.0000
  C   C664      1.0  0.25069  0.40681  0.06968  1.0000
  S   S231      1.0  0.38032  0.24635  0.03696  1.0000
  H   H678      1.0  0.22311  0.42207  0.09140  1.0000
  C   C665      1.0  0.37739  0.25093  0.07147  1.0000
  C   C666      1.0  0.14881  0.39959  0.16874  1.0000
  H   H679      1.0  0.22993  0.41658  0.13458  1.0000
  H   H680      1.0  0.25203  0.40160  0.06385  1.0000
  H   H681      1.0  0.38660  0.25939  0.10993  1.0000
  C   C667      1.0  0.38768  0.24339  0.13578  1.0000
  C   C668      1.0  0.24724  0.42090  0.08384  1.0000
  C   C669      1.0  0.43656  0.24978  0.04117  1.0000
  N   N57       1.0  0.40586  0.26715  0.04523  1.0000
  H   H682      1.0  0.40413  0.25360  0.07199  1.0000
  H   H683      1.0  0.48252  0.25730  0.10954  1.0000
  S   S232      1.0  0.44636  0.25823  0.08515  1.0000
  C   C670      1.0  0.38866  0.24609  0.12427  1.0000
  N   N58       1.0  0.38850  0.24049  0.99724  1.0000
  C   C671      1.0  0.41821  0.27226  0.05324  1.0000
  C   C672      1.0  0.40102  0.26835  0.03573  1.0000
  C   C673      1.0  0.38471  0.23986  0.00840  1.0000
  H   H684      1.0  0.17255  0.41736  0.17825  1.0000
  C   C674      1.0  0.39834  0.24522  0.99138  1.0000
  C   C675      1.0  0.49671  0.27087  0.09129  1.0000
  C   C676      1.0  0.40243  0.26027  0.05509  1.0000
  S   S233      1.0  0.13427  0.40095  0.17394  1.0000
  H   H685      1.0  0.48779  0.27352  0.09178  1.0000
  H   H686      1.0  0.44241  0.26491  0.03784  1.0000
  H   H687      1.0  0.14284  0.43212  0.15685  1.0000
  N   N59       1.0  0.14660  0.42736  0.17290  1.0000
  C   C677      1.0  0.16787  0.39538  0.17129  1.0000
  H   H688      1.0  0.17767  0.42119  0.15769  1.0000
  C   C678      1.0  0.44808  0.25304  0.05179  1.0000
  C   C679      1.0  0.15478  0.42309  0.17889  1.0000
  H   H689      1.0  0.36189  0.25025  0.10286  1.0000
  H   H690      1.0  0.40977  0.24497  0.10521  1.0000
  C   C680      1.0  0.19487  0.41826  0.00543  1.0000
  H   H691      1.0  0.16274  0.42858  0.14695  1.0000
  H   H692      1.0  0.13027  0.37910  0.17491  1.0000
  C   C681      1.0  0.44842  0.24226  0.05825  1.0000
  S   S234      1.0  0.40968  0.24350  0.01854  1.0000
  C   C682      1.0  0.48619  0.24835  0.10966  1.0000
  H   H693      1.0  0.26978  0.48772  0.09098  1.0000
  H   H694      1.0  0.19170  0.41628  0.02319  1.0000
  H   H695      1.0  0.45904  0.24988  0.01576  1.0000
  C   C683      1.0  0.16896  0.42312  0.16196  1.0000
  H   H696      1.0  0.39088  0.23954  0.11975  1.0000
  C   C684      1.0  0.14934  0.42922  0.16157  1.0000
  Fe  Fe119     1.0  0.42125  0.24107  0.02973  1.0000
  C   C685      1.0  0.16608  0.42097  0.17351  1.0000
  H   H697      1.0  0.20644  0.42598  0.02229  1.0000
  H   H698      1.0  0.17366  0.39288  0.17676  1.0000
  C   C686      1.0  0.43641  0.23925  0.04804  1.0000
  C   C687      1.0  0.16056  0.42723  0.15593  1.0000
  C   C688      1.0  0.36422  0.24098  0.12966  1.0000
  H   H699      1.0  0.38892  0.24282  0.01294  1.0000
  S   S235      1.0  0.47090  0.24245  0.08835  1.0000
  H   H700      1.0  0.39588  0.25442  0.98934  1.0000
  H   H701      1.0  0.11390  0.39459  0.17298  1.0000
  H   H702      1.0  0.20025  0.42109  0.98772  1.0000
  H   H703      1.0  0.49630  0.25709  0.11977  1.0000
  H   H704      1.0  0.18858  0.41388  0.00571  1.0000
  C   C689      1.0  0.12219  0.37838  0.18040  1.0000
  S   S236      1.0  0.49668  0.25544  0.07970  1.0000
  C   C690      1.0  0.20150  0.42239  0.99526  1.0000
  C   C691      1.0  0.21669  0.43178  0.98416  1.0000
  H   H705      1.0  0.48477  0.24673  0.10214  1.0000
  C   C692      1.0  0.13478  0.42941  0.17861  1.0000
  C   C693      1.0  0.38207  0.23892  0.05848  1.0000
  H   H706      1.0  0.49708  0.28212  0.10096  1.0000
  H   H707      1.0  0.40473  0.24261  0.99654  1.0000
  H   H708      1.0  0.13114  0.42229  0.17915  1.0000
  C   C694      1.0  0.11288  0.38714  0.17934  1.0000
  H   H709      1.0  0.23701  0.48816  0.10528  1.0000
  C   C695      1.0  0.21753  0.39849  0.98266  1.0000
  C   C696      1.0  0.23293  0.40636  0.98256  1.0000
  Fe  Fe120     1.0  0.09211  0.36387  0.28418  1.0000
  S   S237      1.0  0.10369  0.35737  0.29602  1.0000
  S   S238      1.0  0.09376  0.36310  0.26655  1.0000
  Fe  Fe121     1.0  0.07326  0.37464  0.30074  1.0000
  S   S239      1.0  0.08285  0.36923  0.31421  1.0000
  S   S240      1.0  0.05619  0.38569  0.30131  1.0000
  Fe  Fe122     1.0  0.09698  0.37425  0.30032  1.0000
  S   S241      1.0  0.10783  0.38460  0.30200  1.0000
  Fe  Fe123     1.0  0.08866  0.35279  0.30899  1.0000
  S   S242      1.0  0.08729  0.33553  0.31928  1.0000
  S   S243      1.0  0.08683  0.38098  0.28740  1.0000
  S   S244      1.0  0.07774  0.35789  0.29666  1.0000
  Fe  Fe124     1.0  0.10437  0.40001  0.20860  1.0000
  S   S245      1.0  0.10948  0.40568  0.22106  1.0000
  S   S246      1.0  0.08850  0.39364  0.21315  1.0000
  Fe  Fe125     1.0  0.12663  0.40139  0.19195  1.0000
  S   S247      1.0  0.13371  0.40687  0.20326  1.0000
  H   H710      1.0  0.03609  0.37190  0.30945  1.0000
  Fe  Fe126     1.0  0.12586  0.39410  0.21674  1.0000
  S   S248      1.0  0.13255  0.38380  0.23163  1.0000
  Fe  Fe127     1.0  0.11672  0.41789  0.20659  1.0000
  S   S249      1.0  0.11512  0.43537  0.20773  1.0000
  S   S250      1.0  0.12039  0.38747  0.20511  1.0000
  S   S251      1.0  0.11000  0.41340  0.19441  1.0000
  N   N60       1.0  0.04843  0.35774  0.30532  1.0000
  C   C697      1.0  0.11195  0.24380  0.36377  1.0000
  S   S252      1.0  0.09157  0.31815  0.36940  1.0000
  C   C698      1.0  0.10344  0.42027  0.25282  1.0000
  H   H711      1.0  0.05988  0.34824  0.31583  1.0000
  N   N61       1.0  0.10273  0.38645  0.18640  1.0000
  S   S253      1.0  0.10910  0.26431  0.36765  1.0000
  C   C699      1.0  0.04666  0.45655  0.24153  1.0000
  H   H712      1.0  0.13184  0.24014  0.37429  1.0000
  Fe  Fe128     1.0  0.02984  0.40028  0.25229  1.0000
  S   S254      1.0  0.02464  0.40193  0.23653  1.0000
  S   S255      1.0  0.04192  0.38506  0.25848  1.0000
  Fe  Fe129     1.0  0.01752  0.42354  0.25503  1.0000
  S   S256      1.0  0.01125  0.42732  0.23939  1.0000
  S   S257      1.0  0.01188  0.43638  0.26552  1.0000
  Fe  Fe130     1.0  0.00761  0.41012  0.24508  1.0000
  Fe  Fe131     1.0  0.02878  0.41879  0.23232  1.0000
  S   S258      1.0  0.04056  0.42584  0.21707  1.0000
  S   S259      1.0  0.01268  0.40701  0.26134  1.0000
  S   S260      1.0  0.03517  0.41648  0.24754  1.0000
  Fe  Fe132     1.0  0.08213  0.44687  0.28007  1.0000
  S   S261      1.0  0.07007  0.43958  0.27609  1.0000
  S   S262      1.0  0.09474  0.43712  0.29033  1.0000
  Fe  Fe133     1.0  0.07365  0.47025  0.26792  1.0000
  S   S263      1.0  0.06060  0.46506  0.26272  1.0000
  Fe  Fe134     1.0  0.05753  0.45474  0.27988  1.0000
  S   S264      1.0  0.04026  0.45271  0.28904  1.0000
  Fe  Fe135     1.0  0.07394  0.45019  0.25915  1.0000
  S   S265      1.0  0.07303  0.44152  0.24660  1.0000
  S   S266      1.0  0.06916  0.46127  0.28564  1.0000
  S   S267      1.0  0.08744  0.45613  0.26262  1.0000
  H   H713      1.0  0.07914  0.48177  0.28483  1.0000
  C   C700      1.0  0.02044  0.43950  0.27246  1.0000
  C   C701      1.0  0.03218  0.43710  0.26938  1.0000
  C   C702      1.0  0.03847  0.44107  0.27440  1.0000
  C   C703      1.0  0.03299  0.44720  0.28266  1.0000
  C   C704      1.0  0.02134  0.44920  0.28592  1.0000
  C   C705      1.0  0.01511  0.44551  0.28076  1.0000
  H   H714      1.0  0.03637  0.43251  0.26292  1.0000
  H   H715      1.0  0.04749  0.43947  0.27183  1.0000
  H   H716      1.0  0.01706  0.45388  0.29229  1.0000
  H   H717      1.0  0.15324  0.39464  0.18467  1.0000
  H   H718      1.0  0.10989  0.36119  0.20283  1.0000
  C   C706      1.0  0.11076  0.36835  0.19606  1.0000
  H   H719      1.0  0.09366  0.37680  0.20055  1.0000
  H   H720      1.0  0.06653  0.39806  0.31104  1.0000
  C   C707      1.0  0.06927  0.42385  0.30953  1.0000
  C   C708      1.0  0.10883  0.25006  0.37191  1.0000
  C   C709      1.0  0.03039  0.46411  0.25480  1.0000
  C   C710      1.0  0.06057  0.43011  0.30423  1.0000
  C   C711      1.0  0.10290  0.43829  0.21774  1.0000
  C   C712      1.0  0.10194  0.44554  0.22452  1.0000
  C   C713      1.0  0.09260  0.44685  0.23331  1.0000
  C   C714      1.0  0.08426  0.44094  0.23520  1.0000
  C   C715      1.0  0.08502  0.43404  0.22816  1.0000
  C   C716      1.0  0.09434  0.43270  0.21945  1.0000
  H   H721      1.0  0.10856  0.44988  0.22317  1.0000
  H   H722      1.0  0.09195  0.45230  0.23867  1.0000
  H   H723      1.0  0.07852  0.42954  0.22954  1.0000
  H   H724      1.0  0.09492  0.42730  0.21407  1.0000
  C   C717      1.0  0.07538  0.40291  0.21422  1.0000
  C   C718      1.0  0.07432  0.41440  0.21037  1.0000
  C   C719      1.0  0.06361  0.42145  0.21109  1.0000
  C   C720      1.0  0.05398  0.41705  0.21592  1.0000
  C   C721      1.0  0.05512  0.40559  0.21994  1.0000
  C   C722      1.0  0.06576  0.39854  0.21892  1.0000
  H   H725      1.0  0.08172  0.41784  0.20671  1.0000
  H   H726      1.0  0.06279  0.43031  0.20794  1.0000
  H   H727      1.0  0.04776  0.40210  0.22362  1.0000
  H   H728      1.0  0.06651  0.38965  0.22184  1.0000
  C   C723      1.0  0.08709  0.33143  0.33360  1.0000
  C   C724      1.0  0.08947  0.33815  0.33920  1.0000
  C   C725      1.0  0.09039  0.33411  0.35033  1.0000
  C   C726      1.0  0.08897  0.32334  0.35591  1.0000
  C   C727      1.0  0.08619  0.31677  0.35043  1.0000
  C   C728      1.0  0.08526  0.32081  0.33931  1.0000
  H   H729      1.0  0.09090  0.34634  0.33488  1.0000
  H   H730      1.0  0.09250  0.33925  0.35455  1.0000
  H   H731      1.0  0.08490  0.30853  0.35471  1.0000
  H   H732      1.0  0.08334  0.31560  0.33503  1.0000
  C   C729      1.0  0.05280  0.38699  0.28861  1.0000
  C   C730      1.0  0.04293  0.39410  0.28594  1.0000
  C   C731      1.0  0.03978  0.39405  0.27629  1.0000
  C   C732      1.0  0.04635  0.38664  0.26956  1.0000
  C   C733      1.0  0.05633  0.37985  0.27207  1.0000
  C   C734      1.0  0.05967  0.38024  0.28140  1.0000
  H   H733      1.0  0.03761  0.39944  0.29142  1.0000
  H   H734      1.0  0.03205  0.39936  0.27433  1.0000
  H   H735      1.0  0.06142  0.37409  0.26692  1.0000
  H   H736      1.0  0.06744  0.37504  0.28309  1.0000
  C   C735      1.0  0.10404  0.39917  0.29814  1.0000
  C   C736      1.0  0.10999  0.40543  0.30077  1.0000
  C   C737      1.0  0.10703  0.41704  0.29828  1.0000
  C   C738      1.0  0.09818  0.42254  0.29299  1.0000
  C   C739      1.0  0.09233  0.41635  0.29007  1.0000
  C   C740      1.0  0.09520  0.40466  0.29273  1.0000
  H   H737      1.0  0.11683  0.40126  0.30493  1.0000
  H   H738      1.0  0.11161  0.42178  0.30052  1.0000
  H   H739      1.0  0.08550  0.42053  0.28595  1.0000
  H   H740      1.0  0.09051  0.39995  0.29069  1.0000
  C   C741      1.0  0.10476  0.36860  0.25700  1.0000
  C   C742      1.0  0.11388  0.36966  0.26041  1.0000
  C   C743      1.0  0.12259  0.37408  0.25256  1.0000
  C   C744      1.0  0.12200  0.37773  0.24137  1.0000
  C   C745      1.0  0.11277  0.37680  0.23803  1.0000
  C   C746      1.0  0.10427  0.37209  0.24579  1.0000
  H   H741      1.0  0.11435  0.36688  0.26905  1.0000
  H   H742      1.0  0.12972  0.37477  0.25517  1.0000
  H   H743      1.0  0.11227  0.37953  0.22942  1.0000
  H   H744      1.0  0.09732  0.37115  0.24308  1.0000
  H   H745      1.0  0.11618  0.43141  0.25814  1.0000
  H   H746      1.0  0.05889  0.43914  0.30235  1.0000
  H   H747      1.0  0.11188  0.38972  0.26778  1.0000
  H   H748      1.0  0.11494  0.42359  0.27220  1.0000
  H   H749      1.0  0.06046  0.45002  0.22924  1.0000
  H   H750      1.0  0.07439  0.42817  0.31164  1.0000
  C   C747      1.0  0.03965  0.36650  0.30358  1.0000
  N   N62       1.0  0.07186  0.39554  0.25023  1.0000
  C   C748      1.0  0.07611  0.39433  0.25929  1.0000
  C   C749      1.0  0.06620  0.40571  0.24556  1.0000
  C   C750      1.0  0.07451  0.40341  0.26406  1.0000
  C   C751      1.0  0.06456  0.41499  0.25003  1.0000
  C   C752      1.0  0.06871  0.41380  0.25936  1.0000
  C   C753      1.0  0.07357  0.38603  0.24526  1.0000
  H   H751      1.0  0.08060  0.38625  0.26300  1.0000
  H   H752      1.0  0.06287  0.40667  0.23836  1.0000
  H   H753      1.0  0.07767  0.40237  0.27138  1.0000
  H   H754      1.0  0.06009  0.42305  0.24629  1.0000
  H   H755      1.0  0.06742  0.42095  0.26291  1.0000
  H   H756      1.0  0.07689  0.37805  0.25063  1.0000
  H   H757      1.0  0.06549  0.38537  0.24399  1.0000
  H   H758      1.0  0.07962  0.38703  0.23715  1.0000
  C   C754      1.0  0.03389  0.44629  0.23479  1.0000
  H   H759      1.0  0.15259  0.42117  0.18788  1.0000
  N   N63       1.0  0.11188  0.30145  0.34329  1.0000
  H   H760      1.0  0.11543  0.40481  0.27396  1.0000
  H   H761      1.0  0.02260  0.46164  0.26020  1.0000
  C   C755      1.0  0.11072  0.42672  0.26509  1.0000
  C   C756      1.0  0.10134  0.41188  0.24913  1.0000
  H   H762      1.0  0.10309  0.39421  0.25155  1.0000
  H   H763      1.0  0.10110  0.42884  0.24857  1.0000
  H   H764      1.0  0.04727  0.42941  0.29721  1.0000
  C   C757      1.0  0.10957  0.29063  0.34970  1.0000
  N   N64       1.0  0.07135  0.41248  0.31191  1.0000
  H   H765      1.0  0.02885  0.44227  0.23221  1.0000
  H   H766      1.0  0.06032  0.34436  0.29895  1.0000
  C   C758      1.0  0.02914  0.45236  0.24312  1.0000
  C   C759      1.0  0.06496  0.40708  0.30910  1.0000
  H   H767      1.0  0.04596  0.35374  0.32288  1.0000
  H   H768      1.0  0.08700  0.41039  0.31618  1.0000
  H   H769      1.0  0.11120  0.31854  0.31805  1.0000
  H   H770      1.0  0.10111  0.29179  0.35522  1.0000
  C   C760      1.0  0.10944  0.39829  0.26353  1.0000
  C   C761      1.0  0.04038  0.36241  0.28612  1.0000
  C   C762      1.0  0.04937  0.35352  0.28792  1.0000
  H   H771      1.0  0.07633  0.40480  0.32716  1.0000
  H   H772      1.0  0.02831  0.47302  0.25069  1.0000
  H   H773      1.0  0.00606  0.44743  0.28316  1.0000
  C   C763      1.0  0.10161  0.37723  0.19472  1.0000
  C   C764      1.0  0.11146  0.40689  0.26697  1.0000
  C   C765      1.0  0.05325  0.35123  0.29767  1.0000
  C   C766      1.0  0.04521  0.44545  0.22976  1.0000
  H   H774      1.0  0.08371  0.39779  0.31594  1.0000
  C   C767      1.0  0.07999  0.40606  0.31813  1.0000
  C   C768      1.0  0.05164  0.45063  0.23310  1.0000
  C   C769      1.0  0.11521  0.32245  0.33158  1.0000
  H   H775      1.0  0.05122  0.40880  0.30147  1.0000
  H   H776      1.0  0.02032  0.45297  0.24698  1.0000
  H   H777      1.0  0.05344  0.34859  0.28170  1.0000
  H   H778      1.0  0.11391  0.24783  0.35510  1.0000
  H   H779      1.0  0.04899  0.44082  0.22326  1.0000
  H   H780      1.0  0.10992  0.28503  0.34431  1.0000
  H   H781      1.0  0.11607  0.33081  0.32713  1.0000
  S   S268      1.0  0.08370  0.28753  0.37751  1.0000
  H   H782      1.0  0.03749  0.36452  0.27843  1.0000
  N   N65       1.0  0.03555  0.45733  0.24644  1.0000
  H   H783      1.0  0.09748  0.41398  0.24206  1.0000
  C   C770      1.0  0.05627  0.41309  0.30370  1.0000
  H   H784      1.0  0.05178  0.46046  0.24413  1.0000
  C   C771      1.0  0.05266  0.35550  0.31543  1.0000
  C   C772      1.0  0.03543  0.36891  0.29401  1.0000
  H   H785      1.0  0.02869  0.37607  0.29249  1.0000
  H   H786      1.0  0.05558  0.36283  0.31570  1.0000
  H   H787      1.0  0.03614  0.46304  0.26034  1.0000
  H   H788      1.0  0.11777  0.32429  0.34684  1.0000
  H   H789      1.0  0.11583  0.28628  0.35489  1.0000
  C   C773      1.0  0.11443  0.30823  0.34839  1.0000
  H   H790      1.0  0.11467  0.30568  0.35712  1.0000
  C   C774      1.0  0.10445  0.40082  0.25448  1.0000
  C   C775      1.0  0.11251  0.31553  0.32647  1.0000
  N   N66       1.0  0.10849  0.41771  0.26159  1.0000
  H   H791      1.0  0.10273  0.43251  0.26774  1.0000
  C   C776      1.0  0.11619  0.31879  0.34261  1.0000
  H   H792      1.0  0.08516  0.39363  0.19017  1.0000
  H   H793      1.0  0.10834  0.29985  0.32856  1.0000
  C   C777      1.0  0.11082  0.30501  0.33249  1.0000
  C   C778      1.0  0.05405  0.42466  0.30131  1.0000
  H   H794      1.0  0.12836  0.36224  0.18990  1.0000
  C   C779      1.0  0.12112  0.36895  0.18883  1.0000
  H   H795      1.0  0.09428  0.40271  0.18846  1.0000
  H   H796      1.0  0.13371  0.43056  0.18716  1.0000
  H   H797      1.0  0.12811  0.25775  0.37857  1.0000
  C   C780      1.0  0.09321  0.39590  0.18529  1.0000
  Fe  Fe136     1.0  0.09187  0.30040  0.37902  1.0000
  Fe  Fe137     1.0  0.10009  0.27564  0.37940  1.0000
  S   S269      1.0  0.10860  0.28880  0.37947  1.0000
  Fe  Fe138     1.0  0.10245  0.28468  0.39787  1.0000
  C   C781      1.0  0.07619  0.25166  0.52789  1.0000
  S   S270      1.0  0.11343  0.28330  0.40933  1.0000
  H   H798      1.0  0.06412  0.24758  0.56449  1.0000
  H   H799      1.0  0.09077  0.26697  0.48669  1.0000
  H   H800      1.0  0.05101  0.28743  0.42743  1.0000
  Fe  Fe139     1.0  0.08844  0.26837  0.55210  1.0000
  C   C782      1.0  0.05486  0.28359  0.54007  1.0000
  S   S271      1.0  0.08436  0.27691  0.53528  1.0000
  Fe  Fe140     1.0  0.08662  0.24730  0.56922  1.0000
  S   S272      1.0  0.08645  0.29733  0.39761  1.0000
  Fe  Fe141     1.0  0.10683  0.25710  0.56491  1.0000
  S   S273      1.0  0.07491  0.26394  0.56689  1.0000
  S   S274      1.0  0.09696  0.27473  0.56168  1.0000
  H   H801      1.0  0.06754  0.29581  0.41888  1.0000
  H   H802      1.0  0.08741  0.29741  0.43461  1.0000
  Fe  Fe142     1.0  0.07386  0.24084  0.47309  1.0000
  C   C783      1.0  0.04972  0.25492  0.54573  1.0000
  S   S275      1.0  0.06571  0.26909  0.48170  1.0000
  H   H803      1.0  0.07423  0.27048  0.50365  1.0000
  C   C784      1.0  0.05252  0.26316  0.41388  1.0000
  H   H804      1.0  0.10664  0.24906  0.52732  1.0000
  S   S276      1.0  0.05882  0.24510  0.48629  1.0000
  Fe  Fe143     1.0  0.08040  0.26278  0.46897  1.0000
  S   S277      1.0  0.09272  0.27372  0.46080  1.0000
  H   H805      1.0  0.07835  0.30851  0.42701  1.0000
  Fe  Fe144     1.0  0.06994  0.25209  0.49231  1.0000
  C   C785      1.0  0.08055  0.26880  0.52837  1.0000
  C   C786      1.0  0.07925  0.25797  0.53351  1.0000
  H   H806      1.0  0.07444  0.29101  0.45071  1.0000
  C   C787      1.0  0.07445  0.25609  0.51708  1.0000
  C   C788      1.0  0.07570  0.26695  0.51193  1.0000
  C   C789      1.0  0.07870  0.27330  0.51759  1.0000
  C   C790      1.0  0.06180  0.26721  0.40696  1.0000
  C   C791      1.0  0.04778  0.25477  0.53560  1.0000
  H   H807      1.0  0.07964  0.28171  0.51360  1.0000
  H   H808      1.0  0.00828  0.25994  0.46304  1.0000
  S   S278      1.0  0.06384  0.27997  0.40764  1.0000
  S   S279      1.0  0.08538  0.24621  0.48006  1.0000
  C   C792      1.0  0.05100  0.25282  0.41358  1.0000
  C   C793      1.0  0.10562  0.25205  0.51882  1.0000
  N   N67       1.0  0.07199  0.29386  0.43428  1.0000
  C   C794      1.0  0.12648  0.25551  0.40586  1.0000
  C   C795      1.0  0.04054  0.25356  0.45935  1.0000
  C   C796      1.0  0.10771  0.27983  0.42360  1.0000
  C   C797      1.0  0.11209  0.28295  0.43085  1.0000
  C   C798      1.0  0.10749  0.28082  0.44223  1.0000
  C   C799      1.0  0.09862  0.27532  0.44652  1.0000
  C   C800      1.0  0.09438  0.27185  0.43934  1.0000
  C   C801      1.0  0.09888  0.27421  0.42782  1.0000
  H   H809      1.0  0.11893  0.28725  0.42763  1.0000
  H   H810      1.0  0.11080  0.28352  0.44772  1.0000
  H   H811      1.0  0.08756  0.26755  0.44261  1.0000
  H   H812      1.0  0.09555  0.27172  0.42222  1.0000
  S   S280      1.0  0.09482  0.25145  0.58041  1.0000
  S   S281      1.0  0.07029  0.24788  0.51057  1.0000
  C   C802      1.0  0.06955  0.26092  0.39973  1.0000
  C   C803      1.0  0.06802  0.25060  0.39941  1.0000
  Fe  Fe145     1.0  0.08443  0.26863  0.57677  1.0000
  C   C804      1.0  0.10262  0.24538  0.51363  1.0000
  H   H813      1.0  0.04380  0.24975  0.41891  1.0000
  H   H814      1.0  0.04069  0.24071  0.45124  1.0000
  H   H815      1.0  0.10398  0.24949  0.38948  1.0000
  C   C805      1.0  0.12955  0.24399  0.40900  1.0000
  C   C806      1.0  0.06932  0.29027  0.44555  1.0000
  S   S282      1.0  0.09958  0.25137  0.55394  1.0000
  S   S283      1.0  0.03944  0.26980  0.47042  1.0000
  H   H816      1.0  0.05779  0.28276  0.45954  1.0000
  Fe  Fe146     1.0  0.07987  0.28340  0.39616  1.0000
  C   C807      1.0  0.05995  0.28555  0.45060  1.0000
  H   H817      1.0  0.01699  0.27106  0.46984  1.0000
  H   H818      1.0  0.04673  0.26404  0.51906  1.0000
  C   C808      1.0  0.03558  0.24744  0.45513  1.0000
  S   S284      1.0  0.12534  0.25265  0.56414  1.0000
  H   H819      1.0  0.04650  0.26803  0.41946  1.0000
  C   C809      1.0  0.08144  0.29936  0.42909  1.0000
  N   N68       1.0  0.05244  0.27363  0.53853  1.0000
  H   H820      1.0  0.04603  0.28088  0.44788  1.0000
  S   S285      1.0  0.09556  0.27043  0.39787  1.0000
  H   H821      1.0  0.12448  0.26057  0.41196  1.0000
  C   C810      1.0  0.09995  0.26438  0.48617  1.0000
  C   C811      1.0  0.05334  0.28449  0.44406  1.0000
  H   H822      1.0  0.08628  0.29651  0.42137  1.0000
  H   H823      1.0  0.05982  0.28783  0.53228  1.0000
  S   S286      1.0  0.02425  0.23904  0.42193  1.0000
  H   H824      1.0  0.06008  0.28143  0.54635  1.0000
  H   H825      1.0  0.05867  0.23986  0.43782  1.0000
  C   C812      1.0  0.12600  0.26048  0.39484  1.0000
  N   N69       1.0  0.10224  0.26005  0.49731  1.0000
  C   C813      1.0  0.10506  0.26668  0.50238  1.0000
  C   C814      1.0  0.05198  0.26452  0.54707  1.0000
  H   H826      1.0  0.05066  0.28085  0.52188  1.0000
  Fe  Fe147     1.0  0.05616  0.26150  0.47444  1.0000
  C   C815      1.0  0.10682  0.26278  0.51320  1.0000
  H   H827      1.0  0.08055  0.25445  0.54185  1.0000
  C   C816      1.0  0.03381  0.26208  0.46470  1.0000
  H   H828      1.0  0.09397  0.25206  0.41843  1.0000
  S   S287      1.0  0.01705  0.24123  0.45322  1.0000
  C   C817      1.0  0.10087  0.24957  0.50283  1.0000
  C   C818      1.0  0.08618  0.24947  0.42271  1.0000
  S   S288      1.0  0.07043  0.25684  0.46075  1.0000
  C   C819      1.0  0.06551  0.29290  0.42782  1.0000
  C   C820      1.0  0.04883  0.24611  0.57676  1.0000
  C   C821      1.0  0.05612  0.28818  0.43260  1.0000
  H   H829      1.0  0.04950  0.25159  0.45858  1.0000
  H   H830      1.0  0.14560  0.25037  0.57092  1.0000
  H   H831      1.0  0.07664  0.26406  0.39424  1.0000
  C   C822      1.0  0.12961  0.24571  0.57665  1.0000
  C   C823      1.0  0.04794  0.26421  0.52704  1.0000
  H   H832      1.0  0.07515  0.24329  0.53196  1.0000
  H   H833      1.0  0.05359  0.26458  0.55491  1.0000
  C   C824      1.0  0.01730  0.25822  0.46184  1.0000
  H   H834      1.0  0.10346  0.25796  0.48107  1.0000
  H   H835      1.0  0.10871  0.26816  0.51735  1.0000
  H   H836      1.0  0.04695  0.28944  0.54277  1.0000
  H   H837      1.0  0.04381  0.25349  0.57260  1.0000
  H   H838      1.0  0.04638  0.24728  0.53429  1.0000
  C   C825      1.0  0.05027  0.27364  0.52867  1.0000
  C   C826      1.0  0.02223  0.26450  0.46573  1.0000
  C   C827      1.0  0.02391  0.24969  0.45655  1.0000
  H   H839      1.0  0.07769  0.26526  0.42700  1.0000
  C   C828      1.0  0.05871  0.24658  0.40627  1.0000
  H   H840      1.0  0.10575  0.27513  0.49818  1.0000
  H   H841      1.0  0.10375  0.27164  0.48161  1.0000
  N   N70       1.0  0.13152  0.24248  0.39028  1.0000
  H   H842      1.0  0.06004  0.25898  0.43692  1.0000
  H   H843      1.0  0.12366  0.26946  0.39235  1.0000
  H   H844      1.0  0.10630  0.23993  0.43924  1.0000
  C   C829      1.0  0.14027  0.24576  0.57765  1.0000
  C   C830      1.0  0.06025  0.24283  0.57222  1.0000
  C   C831      1.0  0.07712  0.25680  0.42767  1.0000
  H   H845      1.0  0.09812  0.24450  0.49902  1.0000
  H   H846      1.0  0.07399  0.24581  0.39373  1.0000
  C   C832      1.0  0.06649  0.24245  0.43372  1.0000
  C   C833      1.0  0.06721  0.25328  0.43324  1.0000
  H   H847      1.0  0.12988  0.24003  0.41757  1.0000
  H   H848      1.0  0.09118  0.24010  0.45612  1.0000
  C   C834      1.0  0.12856  0.25381  0.38711  1.0000
  C   C835      1.0  0.08513  0.23874  0.42328  1.0000
  H   H849      1.0  0.04965  0.24759  0.55242  1.0000
  C   C836      1.0  0.10635  0.24474  0.38312  1.0000
  H   H850      1.0  0.12061  0.27455  0.63347  1.0000
  H   H851      1.0  0.09934  0.46485  0.76337  1.0000
  Fe  Fe148     1.0  0.02966  0.25362  0.62956  1.0000
  H   H852      1.0  0.00550  0.24606  0.59439  1.0000
  S   S289      1.0  0.03623  0.26836  0.62978  1.0000
  C   C837      1.0  0.14060  0.46518  0.72452  1.0000
  H   H853      1.0  0.06566  0.35425  0.76579  1.0000
  S   S290      1.0  0.01671  0.25526  0.61995  1.0000
  C   C838      1.0  0.14428  0.46017  0.74322  1.0000
  C   C839      1.0  0.00131  0.24157  0.60249  1.0000
  C   C840      1.0  0.01086  0.39082  0.74581  1.0000
  Fe  Fe149     1.0  0.09044  0.35001  0.72261  1.0000
  S   S291      1.0  0.09428  0.35865  0.70482  1.0000
  S   S292      1.0  0.07304  0.34732  0.72975  1.0000
  Fe  Fe150     1.0  0.11415  0.34643  0.72531  1.0000
  S   S293      1.0  0.11987  0.35396  0.70724  1.0000
  S   S294      1.0  0.12638  0.34018  0.73686  1.0000
  Fe  Fe151     1.0  0.10430  0.36719  0.71049  1.0000
  S   S295      1.0  0.10411  0.38567  0.70484  1.0000
  Fe  Fe152     1.0  0.10912  0.34439  0.70351  1.0000
  S   S296      1.0  0.11297  0.33589  0.68872  1.0000
  S   S297      1.0  0.09893  0.35982  0.72852  1.0000
  S   S298      1.0  0.10500  0.33557  0.72136  1.0000
  Fe  Fe153     1.0  0.09104  0.29103  0.63934  1.0000
  S   S299      1.0  0.08925  0.27345  0.64651  1.0000
  S   S300      1.0  0.09410  0.29669  0.62059  1.0000
  Fe  Fe154     1.0  0.08864  0.29636  0.66224  1.0000
  S   S301      1.0  0.08635  0.27893  0.67082  1.0000
  S   S302      1.0  0.08640  0.30833  0.67381  1.0000
  Fe  Fe155     1.0  0.10041  0.27334  0.65725  1.0000
  S   S303      1.0  0.11459  0.25891  0.66084  1.0000
  Fe  Fe156     1.0  0.07530  0.28068  0.65919  1.0000
  S   S304      1.0  0.05935  0.27408  0.66493  1.0000
  S   S305      1.0  0.10348  0.29048  0.64920  1.0000
  S   S306      1.0  0.07632  0.29849  0.65148  1.0000
  H   H854      1.0  0.07428  0.33400  0.67390  1.0000
  C   C841      1.0  0.00150  0.39478  0.75355  1.0000
  S   S307      1.0  0.05344  0.39629  0.75902  1.0000
  S   S308      1.0  0.07518  0.27594  0.59188  1.0000
  S   S309      1.0  0.02625  0.39922  0.76269  1.0000
  S   S310      1.0  0.12634  0.38742  0.77503  1.0000
  Fe  Fe157     1.0  0.04171  0.39113  0.75229  1.0000
  S   S311      1.0  0.04259  0.39400  0.73421  1.0000
  H   H855      1.0  0.08526  0.42248  0.71388  1.0000
  H   H856      1.0  0.09891  0.40716  0.75908  1.0000
  S   S312      1.0  0.04309  0.37429  0.76356  1.0000
  C   C842      1.0  0.11695  0.27009  0.62003  1.0000
  Fe  Fe158     1.0  0.08042  0.44769  0.73781  1.0000
  S   S313      1.0  0.09582  0.44606  0.72416  1.0000
  S   S314      1.0  0.06287  0.45142  0.73537  1.0000
  Fe  Fe159     1.0  0.09348  0.44376  0.75533  1.0000
  S   S315      1.0  0.10999  0.44148  0.74327  1.0000
  S   S316      1.0  0.09385  0.44281  0.77282  1.0000
  Fe  Fe160     1.0  0.10166  0.45642  0.73235  1.0000
  S   S317      1.0  0.10949  0.47145  0.72438  1.0000
  Fe  Fe161     1.0  0.10258  0.43126  0.73658  1.0000
  S   S318      1.0  0.11127  0.41346  0.73535  1.0000
  S   S319      1.0  0.08558  0.45923  0.74483  1.0000
  S   S320      1.0  0.08678  0.43239  0.74972  1.0000
  H   H857      1.0  0.07405  0.40663  0.76715  1.0000
  C   C843      1.0  0.01320  0.36659  0.76431  1.0000
  C   C844      1.0  0.00859  0.36230  0.75801  1.0000
  H   H858      1.0  0.02215  0.36588  0.76262  1.0000
  H   H859      1.0  0.01405  0.35828  0.75148  1.0000
  C   C845      1.0  0.04258  0.42888  0.76261  1.0000
  C   C846      1.0  0.05351  0.42455  0.75742  1.0000
  C   C847      1.0  0.05978  0.43149  0.74915  1.0000
  C   C848      1.0  0.05509  0.44277  0.74589  1.0000
  C   C849      1.0  0.04407  0.44708  0.75086  1.0000
  C   C850      1.0  0.03788  0.44017  0.75934  1.0000
  H   H860      1.0  0.05725  0.41594  0.76000  1.0000
  H   H861      1.0  0.06815  0.42802  0.74509  1.0000
  H   H862      1.0  0.04039  0.45580  0.74832  1.0000
  H   H863      1.0  0.13399  0.46445  0.72076  1.0000
  C   C851      1.0  0.05363  0.30164  0.63499  1.0000
  H   H864      1.0  0.07983  0.40430  0.72289  1.0000
  H   H865      1.0  0.06149  0.33777  0.70757  1.0000
  C   C852      1.0  0.11386  0.47782  0.73262  1.0000
  C   C853      1.0  0.11588  0.47211  0.74308  1.0000
  N   N71       1.0  0.14063  0.45755  0.73536  1.0000
  N   N72       1.0  0.08196  0.34387  0.67930  1.0000
  C   C854      1.0  0.10664  0.43362  0.77382  1.0000
  H   H866      1.0  0.11438  0.46380  0.74641  1.0000
  C   C855      1.0  0.06872  0.43207  0.71888  1.0000
  C   C856      1.0  0.05340  0.26144  0.59852  1.0000
  C   C857      1.0  0.09584  0.40156  0.76698  1.0000
  C   C858      1.0  0.06197  0.30245  0.61558  1.0000
  C   C859      1.0  0.10901  0.24437  0.65186  1.0000
  C   C860      1.0  0.04328  0.42134  0.73574  1.0000
  H   H867      1.0  0.05676  0.26746  0.59115  1.0000
  C   C861      1.0  0.10653  0.32660  0.68551  1.0000
  C   C862      1.0  0.11048  0.32358  0.67512  1.0000
  C   C863      1.0  0.10492  0.31733  0.67168  1.0000
  C   C864      1.0  0.09527  0.31396  0.67859  1.0000
  C   C865      1.0  0.09166  0.31650  0.68920  1.0000
  C   C866      1.0  0.09723  0.32273  0.69265  1.0000
  H   H868      1.0  0.11772  0.32639  0.66953  1.0000
  H   H869      1.0  0.10787  0.31551  0.66350  1.0000
  H   H870      1.0  0.08428  0.31390  0.69470  1.0000
  H   H871      1.0  0.09412  0.32479  0.70072  1.0000
  C   C867      1.0  0.06408  0.36039  0.72962  1.0000
  C   C868      1.0  0.05287  0.36124  0.73516  1.0000
  C   C869      1.0  0.04601  0.37171  0.73607  1.0000
  C   C870      1.0  0.05031  0.38130  0.73114  1.0000
  C   C871      1.0  0.06139  0.38046  0.72525  1.0000
  C   C872      1.0  0.06831  0.36999  0.72458  1.0000
  H   H872      1.0  0.04961  0.35382  0.73915  1.0000
  H   H873      1.0  0.03750  0.37234  0.74086  1.0000
  H   H874      1.0  0.06480  0.38784  0.72163  1.0000
  H   H875      1.0  0.07698  0.36941  0.72042  1.0000
  C   C873      1.0  0.10465  0.39361  0.71394  1.0000
  C   C874      1.0  0.10504  0.38891  0.72506  1.0000
  C   C875      1.0  0.10645  0.39527  0.73177  1.0000
  C   C876      1.0  0.10731  0.40641  0.72747  1.0000
  C   C877      1.0  0.10654  0.41121  0.71647  1.0000
  C   C878      1.0  0.10522  0.40483  0.70974  1.0000
  H   H876      1.0  0.10467  0.38029  0.72841  1.0000
  H   H877      1.0  0.10716  0.39143  0.74024  1.0000
  H   H878      1.0  0.10745  0.41970  0.71299  1.0000
  H   H879      1.0  0.10498  0.40852  0.70114  1.0000
  H   H880      1.0  0.10296  0.39726  0.77110  1.0000
  H   H881      1.0  0.02944  0.44357  0.76334  1.0000
  C   C879      1.0  0.11022  0.42526  0.76777  1.0000
  H   H882      1.0  0.08662  0.48095  0.74678  1.0000
  H   H883      1.0  0.01672  0.38271  0.73203  1.0000
  Fe  Fe162     1.0  0.02906  0.24229  0.61171  1.0000
  N   N73       1.0  0.06258  0.25408  0.60355  1.0000
  H   H884      1.0  0.07323  0.25412  0.66109  1.0000
  C   C880      1.0  0.08934  0.48614  0.75048  1.0000
  C   C881      1.0  0.13818  0.35403  0.76033  1.0000
  C   C882      1.0  0.12855  0.36018  0.75631  1.0000
  C   C883      1.0  0.12463  0.35621  0.74906  1.0000
  C   C884      1.0  0.13018  0.34595  0.74609  1.0000
  C   C885      1.0  0.13954  0.33983  0.75041  1.0000
  C   C886      1.0  0.14357  0.34388  0.75729  1.0000
  H   H885      1.0  0.12433  0.36808  0.75852  1.0000
  H   H886      1.0  0.11742  0.36109  0.74572  1.0000
  H   H887      1.0  0.14391  0.33194  0.74821  1.0000
  H   H888      1.0  0.15101  0.33906  0.76025  1.0000
  C   C887      1.0  0.04394  0.26752  0.63963  1.0000
  C   C888      1.0  0.05352  0.27206  0.63613  1.0000
  C   C889      1.0  0.05863  0.27357  0.64385  1.0000
  C   C890      1.0  0.05406  0.27076  0.65517  1.0000
  C   C891      1.0  0.04478  0.26575  0.65873  1.0000
  C   C892      1.0  0.03978  0.26405  0.65099  1.0000
  H   H889      1.0  0.05668  0.27497  0.62740  1.0000
  H   H890      1.0  0.06573  0.27747  0.64105  1.0000
  H   H891      1.0  0.04121  0.26353  0.66751  1.0000
  H   H892      1.0  0.03230  0.26068  0.65381  1.0000
  H   H893      1.0  0.03857  0.42002  0.73026  1.0000
  C   C893      1.0  0.08230  0.28012  0.59959  1.0000
  C   C894      1.0  0.07954  0.27716  0.61120  1.0000
  C   C895      1.0  0.08361  0.28173  0.61768  1.0000
  C   C896      1.0  0.09026  0.28958  0.61264  1.0000
  C   C897      1.0  0.09332  0.29231  0.60101  1.0000
  C   C898      1.0  0.08943  0.28754  0.59450  1.0000
  H   H894      1.0  0.07403  0.27149  0.61520  1.0000
  H   H895      1.0  0.08118  0.27957  0.62657  1.0000
  H   H896      1.0  0.09847  0.29837  0.59701  1.0000
  H   H897      1.0  0.14886  0.46333  0.71884  1.0000
  H   H898      1.0  0.09791  0.34680  0.66985  1.0000
  C   C899      1.0  0.04423  0.29708  0.62376  1.0000
  H   H899      1.0  0.06882  0.30386  0.60849  1.0000
  C   C900      1.0  0.00947  0.38604  0.73789  1.0000
  H   H900      1.0  0.06105  0.33009  0.69185  1.0000
  C   C901      1.0  0.08217  0.34822  0.68784  1.0000
  H   H901      1.0  0.08834  0.35302  0.68682  1.0000
  H   H902      1.0  0.03888  0.29270  0.65126  1.0000
  Fe  Fe163     1.0  0.05335  0.38034  0.77165  1.0000
  C   C902      1.0  0.03565  0.29613  0.64351  1.0000
  C   C903      1.0  0.12284  0.23964  0.58538  1.0000
  C   C904      1.0  0.11403  0.24573  0.65971  1.0000
  C   C905      1.0  0.11375  0.43520  0.77957  1.0000
  C   C906      1.0  0.12458  0.42854  0.77900  1.0000
  H   H903      1.0  0.04302  0.41447  0.74320  1.0000
  H   H904      1.0  0.09178  0.33923  0.66423  1.0000
  H   H905      1.0  0.08735  0.35814  0.76090  1.0000
  H   H906      1.0  0.13459  0.44557  0.73118  1.0000
  H   H907      1.0  0.14657  0.46812  0.74169  1.0000
  C   C907      1.0  0.06680  0.33538  0.69075  1.0000
  C   C908      1.0  0.13806  0.44002  0.74749  1.0000
  H   H908      1.0  0.08619  0.35400  0.66335  1.0000
  H   H909      1.0  0.08922  0.25039  0.67022  1.0000
  C   C909      1.0  0.07875  0.23906  0.60282  1.0000
  H   H910      1.0  0.07104  0.44005  0.71517  1.0000
  C   C910      1.0  0.99876  0.38539  0.73769  1.0000
  C   C911      1.0  0.06709  0.33962  0.69956  1.0000
  N   N74       1.0  0.04476  0.29825  0.63387  1.0000
  C   C912      1.0  0.07672  0.42221  0.71828  1.0000
  C   C913      1.0  0.07569  0.24546  0.66060  1.0000
  H   H911      1.0  0.05270  0.29768  0.60657  1.0000
  C   C914      1.0  0.00625  0.37155  0.77296  1.0000
  C   C915      1.0  0.07429  0.33767  0.68058  1.0000
  C   C916      1.0  0.08906  0.35031  0.75842  1.0000
  H   H912      1.0  0.99993  0.34501  0.77944  1.0000
  C   C917      1.0  0.07367  0.41203  0.72337  1.0000
  C   C918      1.0  0.06261  0.41190  0.72912  1.0000
  N   N75       1.0  0.12851  0.24882  0.62794  1.0000
  C   C919      1.0  0.11820  0.26151  0.61475  1.0000
  H   H913      1.0  0.14761  0.45494  0.75969  1.0000
  H   H914      1.0  0.11059  0.32848  0.75344  1.0000
  C   C920      1.0  0.10219  0.33362  0.75428  1.0000
  C   C921      1.0  0.13755  0.44763  0.73738  1.0000
  H   H915      1.0  0.05410  0.30249  0.64302  1.0000
  N   N76       1.0  0.08687  0.40799  0.77414  1.0000
  H   H916      1.0  0.11471  0.26312  0.60750  1.0000
  H   H917      1.0  0.08433  0.46824  0.76518  1.0000
  H   H918      1.0  0.09418  0.36544  0.77404  1.0000
  S   S321      1.0  0.02289  0.24038  0.64329  1.0000
  H   H919      1.0  0.00271  0.39821  0.75988  1.0000
  H   H920      1.0  0.10521  0.25157  0.64638  1.0000
  S   S322      1.0  0.04248  0.24174  0.62014  1.0000
  C   C922      1.0  0.12159  0.26796  0.62925  1.0000
  H   H921      1.0  0.03729  0.29420  0.62290  1.0000
  S   S323      1.0  0.07058  0.37065  0.77448  1.0000
  H   H922      1.0  0.02932  0.30395  0.64432  1.0000
  H   H923      1.0  0.07511  0.34935  0.70497  1.0000
  C   C923      1.0  0.12750  0.25724  0.63303  1.0000
  S   S324      1.0  0.14147  0.41177  0.77208  1.0000
  C   C924      1.0  0.07138  0.24183  0.65362  1.0000
  C   C925      1.0  0.12091  0.41853  0.76734  1.0000
  H   H924      1.0  0.12210  0.47239  0.75701  1.0000
  H   H925      1.0  0.10637  0.34620  0.75966  1.0000
  H   H926      1.0  0.11481  0.23914  0.58459  1.0000
  C   C926      1.0  0.06999  0.24630  0.59818  1.0000
  C   C927      1.0  0.12816  0.42030  0.77278  1.0000
  Fe  Fe164     1.0  0.03798  0.40300  0.77062  1.0000
  Fe  Fe165     1.0  0.13751  0.39509  0.78013  1.0000
  H   H927      1.0  0.06403  0.35135  0.75345  1.0000
  H   H928      1.0  0.15236  0.23998  0.58802  1.0000
  H   H929      1.0  0.04898  0.25651  0.59594  1.0000
  C   C928      1.0  0.07256  0.24806  0.61830  1.0000
  H   H930      1.0  0.09285  0.39501  0.76516  1.0000
  N   N77       1.0  0.13738  0.38187  0.72841  1.0000
  C   C929      1.0  0.13242  0.38390  0.71965  1.0000
  C   C930      1.0  0.14330  0.37146  0.73212  1.0000
  C   C931      1.0  0.13305  0.37532  0.71456  1.0000
  C   C932      1.0  0.14437  0.36276  0.72701  1.0000
  C   C933      1.0  0.13904  0.36467  0.71831  1.0000
  C   C934      1.0  0.13564  0.39067  0.73438  1.0000
  H   H931      1.0  0.12771  0.39213  0.71670  1.0000
  H   H932      1.0  0.14700  0.36975  0.73925  1.0000
  H   H933      1.0  0.12872  0.37689  0.70789  1.0000
  H   H934      1.0  0.14890  0.35446  0.73009  1.0000
  H   H935      1.0  0.13941  0.35786  0.71464  1.0000
  H   H936      1.0  0.14295  0.38978  0.73794  1.0000
  H   H937      1.0  0.13431  0.39905  0.72883  1.0000
  H   H938      1.0  0.12809  0.39032  0.74123  1.0000
  C   C935      1.0  0.14485  0.45278  0.75343  1.0000
  H   H939      1.0  0.06956  0.30619  0.62682  1.0000
  H   H940      1.0  0.12507  0.24424  0.61465  1.0000
  H   H941      1.0  0.10476  0.42403  0.76331  1.0000
  H   H942      1.0  0.11247  0.27840  0.61693  1.0000
  H   H943      1.0  0.13873  0.47397  0.72530  1.0000
  C   C936      1.0  0.09984  0.34361  0.75770  1.0000
  H   H944      1.0  0.13557  0.43216  0.74913  1.0000
  C   C937      1.0  0.08004  0.23996  0.61294  1.0000
  H   H945      1.0  0.08035  0.24316  0.68191  1.0000
  C   C938      1.0  0.12407  0.25086  0.61883  1.0000
  H   H946      1.0  0.03151  0.28983  0.64276  1.0000
  C   C939      1.0  0.14181  0.44261  0.75551  1.0000
  C   C940      1.0  0.08694  0.24220  0.67430  1.0000
  N   N78       1.0  0.08081  0.34707  0.75593  1.0000
  C   C941      1.0  0.08298  0.33717  0.75280  1.0000
  C   C942      1.0  0.09373  0.33037  0.75178  1.0000
  C   C943      1.0  0.06956  0.35420  0.75693  1.0000
  H   H947      1.0  0.07645  0.33457  0.75086  1.0000
  H   H948      1.0  0.09550  0.32271  0.74895  1.0000
  H   H949      1.0  0.09152  0.29002  0.58556  1.0000
  S   S325      1.0  0.03034  0.24548  0.59347  1.0000
  H   H950      1.0  0.01919  0.39122  0.74609  1.0000
  H   H951      1.0  0.12365  0.41211  0.76259  1.0000
  H   H952      1.0  0.06030  0.40397  0.73306  1.0000
  C   C944      1.0  0.12260  0.48766  0.74471  1.0000
  C   C945      1.0  0.05290  0.29902  0.61449  1.0000
  H   H953      1.0  0.03900  0.42913  0.73873  1.0000
  N   N79       1.0  0.05485  0.42163  0.72979  1.0000
  C   C946      1.0  0.06384  0.25510  0.61343  1.0000
  H   H954      1.0  0.05162  0.43936  0.72512  1.0000
  C   C947      1.0  0.12031  0.47698  0.74904  1.0000
  C   C948      1.0  0.06238  0.30375  0.62588  1.0000
  C   C949      1.0  0.08980  0.34614  0.66863  1.0000
  C   C950      1.0  0.05773  0.43162  0.72457  1.0000
  H   H955      1.0  0.05809  0.26138  0.61757  1.0000
  H   H956      1.0  0.14237  0.43670  0.76333  1.0000
  C   C951      1.0  0.07477  0.34613  0.69810  1.0000
  Fe  Fe166     1.0  0.02801  0.38269  0.77453  1.0000
  N   N80       1.0  0.09215  0.48211  0.76060  1.0000
  H   H957      1.0  0.99899  0.33843  0.76927  1.0000
  H   H958      1.0  0.13110  0.25568  0.64020  1.0000
  H   H959      1.0  0.07352  0.24893  0.62611  1.0000
  H   H960      1.0  0.06997  0.36286  0.75235  1.0000
  S   S326      1.0  0.14468  0.35864  0.76838  1.0000
  H   H961      1.0  0.09052  0.46952  0.77553  1.0000
  C   C952      1.0  0.07853  0.37561  0.78074  1.0000
  C   C953      1.0  0.07606  0.41008  0.77300  1.0000
  C   C954      1.0  0.09156  0.47066  0.76645  1.0000
  S   S327      1.0  0.03480  0.42032  0.77325  1.0000
  H   H962      1.0  0.04710  0.26617  0.60442  1.0000
  C   C955      1.0  0.06744  0.41652  0.77949  1.0000
  C   C956      1.0  0.04406  0.24025  0.58708  1.0000
  H   H963      1.0  0.05883  0.41803  0.77873  1.0000
  Fe  Fe167     1.0  0.01134  0.24063  0.63256  1.0000
  C   C957      1.0  0.14411  0.23987  0.58731  1.0000
  H   H964      1.0  0.06919  0.24575  0.59022  1.0000
  C   C958      1.0  0.08941  0.41225  0.78159  1.0000
  H   H965      1.0  0.00605  0.24096  0.60880  1.0000
  S   S328      1.0  0.01170  0.37668  0.78137  1.0000
  H   H966      1.0  0.09885  0.48515  0.77274  1.0000
  C   C959      1.0  0.09017  0.37145  0.77919  1.0000
  Fe  Fe168     1.0  0.13851  0.37146  0.77923  1.0000
  H   H967      1.0  0.06552  0.24763  0.64888  1.0000
  H   H968      1.0  0.99758  0.38145  0.73173  1.0000
  H   H969      1.0  0.16098  0.34782  0.78199  1.0000
  H   H970      1.0  0.22326  0.43282  0.89999  1.0000
  H   H971      1.0  0.26767  0.39067  0.85652  1.0000
  S   S329      1.0  0.43619  0.26363  0.89160  1.0000
  Fe  Fe169     1.0  0.21662  0.39338  0.95791  1.0000
  S   S330      1.0  0.23491  0.38578  0.95408  1.0000
  Fe  Fe170     1.0  0.21436  0.39592  0.93392  1.0000
  S   S331      1.0  0.23254  0.38855  0.92856  1.0000
  S   S332      1.0  0.20496  0.40411  0.92004  1.0000
  Fe  Fe171     1.0  0.23020  0.37614  0.94460  1.0000
  S   S333      1.0  0.23889  0.35820  0.94594  1.0000
  Fe  Fe172     1.0  0.23546  0.39890  0.93851  1.0000
  S   S334      1.0  0.25001  0.40718  0.93105  1.0000
  S   S335      1.0  0.21166  0.38261  0.94950  1.0000
  S   S336      1.0  0.21744  0.40734  0.94285  1.0000
  Fe  Fe173     1.0  0.24956  0.47136  0.86748  1.0000
  S   S337      1.0  0.23331  0.46565  0.87186  1.0000
  C   C960      1.0  0.28532  0.36826  0.93859  1.0000
  Fe  Fe174     1.0  0.26328  0.44765  0.87233  1.0000
  S   S338      1.0  0.24833  0.43993  0.87781  1.0000
  S   S339      1.0  0.28143  0.43926  0.87092  1.0000
  Fe  Fe175     1.0  0.24271  0.45181  0.86296  1.0000
  S   S340      1.0  0.23879  0.44346  0.85149  1.0000
  Fe  Fe176     1.0  0.24026  0.45429  0.88619  1.0000
  S   S341      1.0  0.22967  0.45308  0.90325  1.0000
  S   S342      1.0  0.25830  0.45877  0.85691  1.0000
  S   S343      1.0  0.25582  0.46073  0.88238  1.0000
  Fe  Fe177     1.0  0.36302  0.27841  0.89140  1.0000
  S   S344      1.0  0.37253  0.29159  0.88154  1.0000
  S   S345      1.0  0.35916  0.27310  0.90984  1.0000
  Fe  Fe178     1.0  0.35996  0.27281  0.87130  1.0000
  S   S346      1.0  0.36904  0.28559  0.85954  1.0000
  S   S347      1.0  0.35321  0.26056  0.86687  1.0000
  Fe  Fe179     1.0  0.38136  0.27938  0.87063  1.0000
  S   S348      1.0  0.39965  0.27443  0.86291  1.0000
  Fe  Fe180     1.0  0.35929  0.29662  0.87147  1.0000
  S   S349      1.0  0.35189  0.31485  0.86581  1.0000
  S   S350      1.0  0.37293  0.26577  0.88143  1.0000
  S   S351      1.0  0.34912  0.28430  0.88229  1.0000
  Fe  Fe181     1.0  0.28597  0.36059  0.89737  1.0000
  S   S352      1.0  0.30106  0.35957  0.88347  1.0000
  S   S353      1.0  0.28721  0.35487  0.91515  1.0000
  Fe  Fe182     1.0  0.26962  0.36755  0.88215  1.0000
  S   S354      1.0  0.28328  0.36676  0.86682  1.0000
  S   S355      1.0  0.25087  0.37243  0.88423  1.0000
  Fe  Fe183     1.0  0.29193  0.35100  0.87692  1.0000
  S   S356      1.0  0.29960  0.33402  0.87286  1.0000
  Fe  Fe184     1.0  0.29120  0.37540  0.87476  1.0000
  S   S357      1.0  0.29944  0.38951  0.86477  1.0000
  S   S358      1.0  0.27737  0.35103  0.89149  1.0000
  S   S359      1.0  0.27700  0.37723  0.88938  1.0000
  Fe  Fe185     1.0  0.19241  0.39085  0.87044  1.0000
  S   S360      1.0  0.20622  0.39999  0.86335  1.0000
  S   S361      1.0  0.19127  0.38189  0.88843  1.0000
  Fe  Fe186     1.0  0.18522  0.39606  0.84793  1.0000
  S   S362      1.0  0.19909  0.40544  0.83940  1.0000
  S   S363      1.0  0.17161  0.39748  0.83839  1.0000
  Fe  Fe187     1.0  0.20986  0.39151  0.84929  1.0000
  S   S364      1.0  0.22807  0.38423  0.84333  1.0000
  Fe  Fe188     1.0  0.19427  0.41292  0.85439  1.0000
  S   S365      1.0  0.19299  0.43065  0.85501  1.0000
  S   S366      1.0  0.19658  0.38147  0.85678  1.0000
  S   S367      1.0  0.17980  0.40453  0.86251  1.0000
  Fe  Fe189     1.0  0.14129  0.37721  0.80044  1.0000
  H   H972      1.0  0.31001  0.32741  0.89554  1.0000
  S   S368      1.0  0.15197  0.37155  0.81382  1.0000
  H   H973      1.0  0.37661  0.26062  0.85755  1.0000
  H   H974      1.0  0.15439  0.39371  0.89567  1.0000
  H   H975      1.0  0.35300  0.29765  0.90058  1.0000
  H   H976      1.0  0.28701  0.39098  0.84821  1.0000
  S   S369      1.0  0.13034  0.36740  0.79737  1.0000
  H   H977      1.0  0.42466  0.26314  0.91530  1.0000
  H   H978      1.0  0.11099  0.44171  0.78421  1.0000
  H   H979      1.0  0.27862  0.42121  0.84607  1.0000
  H   H980      1.0  0.29722  0.48415  0.88335  1.0000
  H   H981      1.0  0.35495  0.31657  0.88958  1.0000
  C   C961      1.0  0.34563  0.30429  0.89985  1.0000
  H   H982      1.0  0.15177  0.40025  0.87600  1.0000
  H   H983      1.0  0.34446  0.32145  0.84423  1.0000
  H   H984      1.0  0.32961  0.32602  0.84668  1.0000
  C   C962      1.0  0.26612  0.39946  0.85635  1.0000
  H   H985      1.0  0.22365  0.39953  0.87641  1.0000
  H   H986      1.0  0.22556  0.35364  0.92977  1.0000
  H   H987      1.0  0.33717  0.32200  0.83373  1.0000
  C   C963      1.0  0.16677  0.39013  0.83114  1.0000
  C   C964      1.0  0.17075  0.37874  0.83139  1.0000
  C   C965      1.0  0.16619  0.37327  0.82601  1.0000
  C   C966      1.0  0.15774  0.37908  0.82007  1.0000
  C   C967      1.0  0.15394  0.39051  0.81963  1.0000
  C   C968      1.0  0.15833  0.39594  0.82520  1.0000
  H   H988      1.0  0.17727  0.37409  0.83581  1.0000
  H   H989      1.0  0.16926  0.36444  0.82646  1.0000
  H   H990      1.0  0.14743  0.39515  0.81518  1.0000
  H   H991      1.0  0.15509  0.40472  0.82492  1.0000
  C   C969      1.0  0.24502  0.37469  0.87270  1.0000
  C   C970      1.0  0.23343  0.37604  0.87442  1.0000
  C   C971      1.0  0.22836  0.37835  0.86542  1.0000
  C   C972      1.0  0.23475  0.37984  0.85459  1.0000
  C   C973      1.0  0.24642  0.37821  0.85284  1.0000
  C   C974      1.0  0.25157  0.37551  0.86191  1.0000
  H   H992      1.0  0.22829  0.37528  0.88271  1.0000
  H   H993      1.0  0.21948  0.37889  0.86691  1.0000
  H   H994      1.0  0.25142  0.37914  0.84448  1.0000
  H   H995      1.0  0.26055  0.37416  0.86055  1.0000
  C   C975      1.0  0.33731  0.32005  0.86872  1.0000
  C   C976      1.0  0.33316  0.33158  0.86625  1.0000
  C   C977      1.0  0.32157  0.33599  0.86783  1.0000
  C   C978      1.0  0.31409  0.32886  0.87172  1.0000
  C   C979      1.0  0.31824  0.31735  0.87438  1.0000
  C   C980      1.0  0.32981  0.31295  0.87300  1.0000
  H   H996      1.0  0.33892  0.33713  0.86292  1.0000
  H   H997      1.0  0.31844  0.34488  0.86571  1.0000
  H   H998      1.0  0.31247  0.31180  0.87742  1.0000
  H   H999      1.0  0.33291  0.30407  0.87491  1.0000
  C   C981      1.0  0.14179  0.33886  0.80454  1.0000
  S   S370      1.0  0.46600  0.24356  0.89399  1.0000
  C   C982      1.0  0.25364  0.41598  0.86166  1.0000
  C   C983      1.0  0.22603  0.43942  0.85365  1.0000
  C   C984      1.0  0.21588  0.44529  0.85891  1.0000
  C   C985      1.0  0.20575  0.44252  0.85938  1.0000
  C   C986      1.0  0.20576  0.43367  0.85490  1.0000
  C   C987      1.0  0.21596  0.42751  0.85007  1.0000
  C   C988      1.0  0.22603  0.43049  0.84931  1.0000
  H   H1000     1.0  0.21579  0.45226  0.86219  1.0000
  H   H1001     1.0  0.19789  0.44731  0.86313  1.0000
  H   H1002     1.0  0.21609  0.42064  0.84663  1.0000
  H   H1003     1.0  0.23384  0.42594  0.84519  1.0000
  C   C989      1.0  0.28581  0.42532  0.86950  1.0000
  C   C990      1.0  0.29676  0.42183  0.86382  1.0000
  C   C991      1.0  0.30073  0.41084  0.86251  1.0000
  C   C992      1.0  0.29392  0.40309  0.86711  1.0000
  C   C993      1.0  0.28293  0.40649  0.87292  1.0000
  C   C994      1.0  0.27883  0.41765  0.87402  1.0000
  H   H1004     1.0  0.30222  0.42767  0.86036  1.0000
  H   H1005     1.0  0.30921  0.40831  0.85800  1.0000
  H   H1006     1.0  0.27756  0.40059  0.87641  1.0000
  H   H1007     1.0  0.27038  0.42026  0.87852  1.0000
  C   C995      1.0  0.25223  0.35693  0.93720  1.0000
  C   C996      1.0  0.26139  0.34961  0.94111  1.0000
  C   C997      1.0  0.27216  0.34892  0.93429  1.0000
  C   C998      1.0  0.27370  0.35526  0.92345  1.0000
  C   C999      1.0  0.26445  0.36217  0.91938  1.0000
  C   C1000     1.0  0.25375  0.36313  0.92630  1.0000
  H   H1008     1.0  0.26021  0.34474  0.94951  1.0000
  H   H1009     1.0  0.27929  0.34351  0.93744  1.0000
  H   H1010     1.0  0.26555  0.36698  0.91098  1.0000
  H   H1011     1.0  0.24667  0.36852  0.92313  1.0000
  C   C1001     1.0  0.20193  0.39748  0.91113  1.0000
  C   C1002     1.0  0.20254  0.38601  0.91355  1.0000
  C   C1003     1.0  0.19938  0.38125  0.90649  1.0000
  C   C1004     1.0  0.19589  0.38787  0.89683  1.0000
  C   C1005     1.0  0.19561  0.39926  0.89427  1.0000
  C   C1006     1.0  0.19845  0.40405  0.90147  1.0000
  H   H1012     1.0  0.20505  0.38091  0.92106  1.0000
  H   H1013     1.0  0.19953  0.37245  0.90858  1.0000
  H   H1014     1.0  0.19282  0.40448  0.88693  1.0000
  H   H1015     1.0  0.19780  0.41293  0.89961  1.0000
  C   C1007     1.0  0.24509  0.42069  0.92410  1.0000
  C   C1008     1.0  0.25131  0.42512  0.91383  1.0000
  C   C1009     1.0  0.24675  0.43536  0.90759  1.0000
  C   C1010     1.0  0.23600  0.44115  0.91165  1.0000
  C   C1011     1.0  0.23002  0.43698  0.92216  1.0000
  C   C1012     1.0  0.23459  0.42675  0.92839  1.0000
  H   H1016     1.0  0.25950  0.42050  0.91053  1.0000
  H   H1017     1.0  0.25153  0.43868  0.89960  1.0000
  H   H1018     1.0  0.22175  0.44150  0.92536  1.0000
  H   H1019     1.0  0.22999  0.42359  0.93653  1.0000
  H   H1020     1.0  0.22913  0.40439  0.96790  1.0000
  H   H1021     1.0  0.20437  0.42949  0.81040  1.0000
  H   H1022     1.0  0.22993  0.42072  0.90855  1.0000
  H   H1023     1.0  0.27136  0.39679  0.91720  1.0000
  C   C1013     1.0  0.32400  0.29524  0.85666  1.0000
  C   C1014     1.0  0.42595  0.26670  0.88371  1.0000
  C   C1015     1.0  0.41480  0.27152  0.88796  1.0000
  C   C1016     1.0  0.40660  0.27391  0.88169  1.0000
  C   C1017     1.0  0.40960  0.27174  0.87104  1.0000
  C   C1018     1.0  0.42077  0.26711  0.86675  1.0000
  C   C1019     1.0  0.42886  0.26440  0.87313  1.0000
  H   H1024     1.0  0.41249  0.27336  0.89612  1.0000
  H   H1025     1.0  0.39803  0.27759  0.88501  1.0000
  H   H1026     1.0  0.42317  0.26554  0.85847  1.0000
  H   H1027     1.0  0.43743  0.26081  0.86972  1.0000
  H   H1028     1.0  0.36288  0.25666  0.92962  1.0000
  C   C1020     1.0  0.26195  0.42195  0.85593  1.0000
  C   C1021     1.0  0.28476  0.39998  0.84441  1.0000
  H   H1029     1.0  0.13440  0.33537  0.80680  1.0000
  C   C1022     1.0  0.32557  0.31085  0.90390  1.0000
  C   C1023     1.0  0.27221  0.41651  0.85044  1.0000
  C   C1024     1.0  0.16475  0.37885  0.86311  1.0000
  N   N81       1.0  0.33561  0.30854  0.84760  1.0000
  H   H1030     1.0  0.23239  0.39096  0.89269  1.0000
  H   H1031     1.0  0.28409  0.40094  0.83575  1.0000
  H   H1032     1.0  0.29179  0.40360  0.84437  1.0000
  C   C1025     1.0  0.15675  0.34595  0.79064  1.0000
  H   H1033     1.0  0.21491  0.42401  0.91059  1.0000
  H   H1034     1.0  0.26043  0.43076  0.85570  1.0000
  H   H1035     1.0  0.24559  0.42021  0.86578  1.0000
  H   H1036     1.0  0.24458  0.48057  0.91193  1.0000
  H   H1037     1.0  0.14454  0.33931  0.78710  1.0000
  H   H1038     1.0  0.21687  0.42737  0.97773  1.0000
  H   H1039     1.0  0.99830  0.33075  0.78345  1.0000
  C   C1026     1.0  0.34399  0.28903  0.85126  1.0000
  H   H1040     1.0  0.31781  0.31291  0.85257  1.0000
  H   H1041     1.0  0.35398  0.23917  0.86310  1.0000
  S   S371      1.0  0.12846  0.39314  0.79792  1.0000
  H   H1042     1.0  0.35137  0.28231  0.85076  1.0000
  Fe  Fe190     1.0  0.11845  0.38378  0.79314  1.0000
  C   C1027     1.0  0.19026  0.42205  0.81366  1.0000
  C   C1028     1.0  0.19632  0.42857  0.81580  1.0000
  H   H1043     1.0  0.17015  0.35807  0.80161  1.0000
  H   H1044     1.0  0.07592  0.39248  0.79816  1.0000
  C   C1029     1.0  0.07995  0.38666  0.79280  1.0000
  C   C1030     1.0  0.23696  0.48419  0.89795  1.0000
  H   H1045     1.0  0.23992  0.41018  0.97794  1.0000
  C   C1031     1.0  0.29232  0.47059  0.88026  1.0000
  N   N82       1.0  0.19225  0.43355  0.82468  1.0000
  H   H1046     1.0  0.25858  0.37123  0.95370  1.0000
  C   C1032     1.0  0.14747  0.34106  0.79349  1.0000
  C   C1033     1.0  0.49378  0.25820  0.88163  1.0000
  S   S372      1.0  0.09944  0.38717  0.79786  1.0000
  H   H1047     1.0  0.29008  0.37639  0.92155  1.0000
  H   H1048     1.0  0.08318  0.42235  0.79382  1.0000
  H   H1049     1.0  0.06452  0.38656  0.78881  1.0000
  H   H1050     1.0  0.26133  0.48084  0.88141  1.0000
  C   C1034     1.0  0.24165  0.48694  0.90520  1.0000
  C   C1035     1.0  0.18004  0.42057  0.82075  1.0000
  N   N83       1.0  0.22347  0.41743  0.89634  1.0000
  C   C1036     1.0  0.21861  0.42221  0.88741  1.0000
  C   C1037     1.0  0.22831  0.40633  0.89831  1.0000
  C   C1038     1.0  0.21866  0.41586  0.88009  1.0000
  C   C1039     1.0  0.22861  0.39976  0.89109  1.0000
  C   C1040     1.0  0.22372  0.40458  0.88193  1.0000
  C   C1041     1.0  0.22286  0.42407  0.90423  1.0000
  H   H1051     1.0  0.21451  0.43094  0.88599  1.0000
  H   H1052     1.0  0.23176  0.40248  0.90562  1.0000
  H   H1053     1.0  0.21458  0.41960  0.87317  1.0000
  C   C1042     1.0  0.34673  0.31494  0.89382  1.0000
  C   C1043     1.0  0.37503  0.25292  0.85703  1.0000
  H   H1054     1.0  0.42701  0.24574  0.83595  1.0000
  C   C1044     1.0  0.25574  0.40464  0.86192  1.0000
  H   H1055     1.0  0.24936  0.39988  0.86632  1.0000
  H   H1056     1.0  0.36214  0.24437  0.88600  1.0000
  H   H1057     1.0  0.20256  0.44549  0.81915  1.0000
  C   C1045     1.0  0.33348  0.28660  0.85620  1.0000
  N   N84       1.0  0.27419  0.40539  0.85073  1.0000
  H   H1058     1.0  0.33413  0.29390  0.90956  1.0000
  H   H1059     1.0  0.31732  0.30918  0.90785  1.0000
  C   C1046     1.0  0.33500  0.30220  0.90491  1.0000
  C   C1047     1.0  0.38050  0.24907  0.92628  1.0000
  C   C1048     1.0  0.31671  0.33026  0.89734  1.0000
  N   N85       1.0  0.32672  0.32128  0.89798  1.0000
  N   N86       1.0  0.16024  0.34859  0.79856  1.0000
  H   H1060     1.0  0.44390  0.25214  0.91139  1.0000
  C   C1049     1.0  0.33714  0.32341  0.89304  1.0000
  H   H1061     1.0  0.33810  0.33162  0.88823  1.0000
  Fe  Fe191     1.0  0.47542  0.24080  0.87714  1.0000
  H   H1062     1.0  0.31350  0.33312  0.90528  1.0000
  C   C1050     1.0  0.14553  0.34141  0.81260  1.0000
  H   H1063     1.0  0.27141  0.47464  0.85793  1.0000
  H   H1064     1.0  0.19391  0.44542  0.83278  1.0000
  C   C1051     1.0  0.15490  0.34619  0.80946  1.0000
  H   H1065     1.0  0.14109  0.33991  0.82119  1.0000
  C   C1052     1.0  0.28057  0.47123  0.85631  1.0000
  S   S373      1.0  0.20892  0.39555  0.97557  1.0000
  H   H1066     1.0  0.31848  0.33751  0.89056  1.0000
  H   H1067     1.0  0.15770  0.34822  0.81578  1.0000
  H   H1068     1.0  0.15285  0.39405  0.85900  1.0000
  C   C1053     1.0  0.23089  0.36386  0.90844  1.0000
  C   C1054     1.0  0.18229  0.43201  0.83177  1.0000
  H   H1069     1.0  0.16829  0.42406  0.83565  1.0000
  H   H1070     1.0  0.36123  0.25238  0.90190  1.0000
  N   N87       1.0  0.28553  0.47458  0.86358  1.0000
  H   H1071     1.0  0.10563  0.37173  0.78301  1.0000
  H   H1072     1.0  0.33274  0.27802  0.85967  1.0000
  H   H1073     1.0  0.06341  0.42614  0.79198  1.0000
  H   H1074     1.0  0.49428  0.27188  0.88813  1.0000
  C   C1055     1.0  0.38376  0.24523  0.85205  1.0000
  H   H1075     1.0  0.41364  0.25652  0.92417  1.0000
  H   H1076     1.0  0.20588  0.43430  0.83069  1.0000
  C   C1056     1.0  0.40040  0.24596  0.87691  1.0000
  C   C1057     1.0  0.37081  0.25671  0.92374  1.0000
  H   H1077     1.0  0.48513  0.26131  0.88095  1.0000
  H   H1078     1.0  0.29378  0.36376  0.93913  1.0000
  H   H1079     1.0  0.26294  0.33655  0.91037  1.0000
  C   C1058     1.0  0.28712  0.48520  0.86112  1.0000
  C   C1059     1.0  0.28794  0.46732  0.87307  1.0000
  C   C1060     1.0  0.36232  0.24081  0.86017  1.0000
  C   C1061     1.0  0.37137  0.26427  0.91353  1.0000
  C   C1062     1.0  0.17008  0.35357  0.79535  1.0000
  C   C1063     1.0  0.41203  0.24383  0.87362  1.0000
  H   H1080     1.0  0.25586  0.32873  0.93029  1.0000
  C   C1064     1.0  0.25460  0.34004  0.91459  1.0000
  C   C1065     1.0  0.09669  0.37498  0.78429  1.0000
  C   C1066     1.0  0.17120  0.37240  0.87073  1.0000
  H   H1081     1.0  0.39930  0.25710  0.90280  1.0000
  H   H1082     1.0  0.22196  0.36553  0.91282  1.0000
  H   H1083     1.0  0.17697  0.36473  0.86915  1.0000
  H   H1084     1.0  0.39200  0.24707  0.84875  1.0000
  H   H1085     1.0  0.28422  0.47439  0.84746  1.0000
  C   C1067     1.0  0.16309  0.38999  0.89187  1.0000
  C   C1068     1.0  0.28318  0.37543  0.92866  1.0000
  C   C1069     1.0  0.25062  0.33562  0.92575  1.0000
  C   C1070     1.0  0.26559  0.37243  0.94675  1.0000
  S   S374      1.0  0.46052  0.24903  0.86922  1.0000
  H   H1086     1.0  0.25108  0.35267  0.90035  1.0000
  H   H1087     1.0  0.29412  0.46485  0.88782  1.0000
  S   S375      1.0  0.49393  0.24124  0.87201  1.0000
  C   C1071     1.0  0.09158  0.38252  0.79122  1.0000
  C   C1072     1.0  0.36426  0.25080  0.86093  1.0000
  H   H1088     1.0  0.38219  0.27036  0.89820  1.0000
  N   N88       1.0  0.23748  0.35388  0.91436  1.0000
  C   C1073     1.0  0.24787  0.34921  0.90898  1.0000
  H   H1089     1.0  0.36088  0.24019  0.92062  1.0000
  C   C1074     1.0  0.27645  0.36677  0.94768  1.0000
  H   H1090     1.0  0.19355  0.41798  0.80670  1.0000
  C   C1075     1.0  0.38166  0.26441  0.90602  1.0000
  H   H1091     1.0  0.35318  0.30194  0.84342  1.0000
  C   C1076     1.0  0.27043  0.38837  0.91733  1.0000
  H   H1092     1.0  0.16542  0.37625  0.85555  1.0000
  C   C1077     1.0  0.15763  0.38886  0.86508  1.0000
  C   C1078     1.0  0.33675  0.32006  0.84278  1.0000
  Fe  Fe192     1.0  0.45083  0.25018  0.88648  1.0000
  H   H1093     1.0  0.31577  0.29345  0.86049  1.0000
  N   N89       1.0  0.27248  0.38081  0.92777  1.0000
  C   C1079     1.0  0.23998  0.34037  0.93113  1.0000
  C   C1080     1.0  0.32521  0.30622  0.85216  1.0000
  C   C1081     1.0  0.39136  0.25693  0.90865  1.0000
  H   H1094     1.0  0.23697  0.33731  0.93992  1.0000
  H   H1095     1.0  0.23113  0.36288  0.90004  1.0000
  C   C1082     1.0  0.23355  0.34965  0.92532  1.0000
  C   C1083     1.0  0.34494  0.30011  0.84705  1.0000
  H   H1096     1.0  0.23442  0.37117  0.90754  1.0000
  C   C1084     1.0  0.39076  0.24913  0.91870  1.0000
  C   C1085     1.0  0.17044  0.37608  0.88027  1.0000
  H   H1097     1.0  0.16654  0.38320  0.89835  1.0000
  H   H1098     1.0  0.16830  0.39634  0.88938  1.0000
  H   H1099     1.0  0.42026  0.25318  0.91083  1.0000
  C   C1086     1.0  0.15708  0.39230  0.87469  1.0000
  C   C1087     1.0  0.36143  0.24360  0.90312  1.0000
  S   S376      1.0  0.40292  0.23941  0.92145  1.0000
  N   N90       1.0  0.16340  0.38590  0.88216  1.0000
  H   H1100     1.0  0.17568  0.37112  0.88603  1.0000
  C   C1088     1.0  0.26376  0.37947  0.93668  1.0000
  C   C1089     1.0  0.44125  0.24571  0.91837  1.0000
  H   H1101     1.0  0.49082  0.23958  0.90094  1.0000
  C   C1090     1.0  0.19897  0.44002  0.82690  1.0000
  H   H1102     1.0  0.38003  0.24330  0.93419  1.0000
  H   H1103     1.0  0.26181  0.38909  0.91639  1.0000
  H   H1104     1.0  0.27635  0.38532  0.91011  1.0000
  C   C1091     1.0  0.22683  0.40307  0.97685  1.0000
  H   H1105     1.0  0.28640  0.45897  0.87517  1.0000
  S   S377      1.0  0.15062  0.37953  0.78262  1.0000
  H   H1106     1.0  0.28207  0.46203  0.85768  1.0000
  H   H1107     1.0  0.17536  0.41535  0.81932  1.0000
  H   H1108     1.0  0.17924  0.43564  0.83904  1.0000
  H   H1109     1.0  0.25530  0.38372  0.93598  1.0000
  H   H1110     1.0  0.13014  0.42970  0.78343  1.0000
  C   C1092     1.0  0.17604  0.42552  0.82990  1.0000
  H   H1111     1.0  0.27794  0.36114  0.95540  1.0000
  C   C1093     1.0  0.29414  0.48136  0.87771  1.0000
  H   H1112     1.0  0.41601  0.24729  0.86524  1.0000
  H   H1113     1.0  0.23620  0.47568  0.89902  1.0000
  N   N91       1.0  0.43011  0.24613  0.92292  1.0000
  C   C1094     1.0  0.07347  0.38335  0.78747  1.0000
  C   C1095     1.0  0.42176  0.25519  0.91812  1.0000
  C   C1096     1.0  0.36191  0.23903  0.89421  1.0000
  H   H1114     1.0  0.21341  0.44080  0.98136  1.0000
  C   C1097     1.0  0.39539  0.24172  0.88782  1.0000
  H   H1115     1.0  0.38637  0.24356  0.89057  1.0000
  C   C1098     1.0  0.06999  0.42102  0.78699  1.0000
  H   H1116     1.0  0.17000  0.35982  0.78742  1.0000
  C   C1099     1.0  0.08104  0.41888  0.78806  1.0000
  H   H1117     1.0  0.39533  0.25111  0.87106  1.0000
  S   S378      1.0  0.03830  0.38729  0.78382  1.0000
  H   H1118     1.0  0.17785  0.34703  0.79443  1.0000
  H   H1119     1.0  0.09794  0.41043  0.78267  1.0000
  Fe  Fe193     1.0  0.24429  0.55412  0.10320  1.0000
  S   S379      1.0  0.26053  0.55129  0.09098  1.0000
  S   S380      1.0  0.22926  0.55604  0.09646  1.0000
  Fe  Fe194     1.0  0.25559  0.55113  0.12182  1.0000
  S   S381      1.0  0.27289  0.54752  0.11122  1.0000
  S   S382      1.0  0.25395  0.55092  0.13973  1.0000
  Fe  Fe195     1.0  0.26599  0.56202  0.09882  1.0000
  S   S383      1.0  0.27502  0.57558  0.08822  1.0000
  Fe  Fe196     1.0  0.26586  0.53712  0.10436  1.0000
  S   S384      1.0  0.27479  0.52016  0.10086  1.0000
  S   S385      1.0  0.24909  0.56629  0.10972  1.0000
  S   S386      1.0  0.24925  0.53929  0.11624  1.0000
  Fe  Fe197     1.0  0.24625  0.59160  0.04212  1.0000
  S   S387      1.0  0.23180  0.60399  0.03610  1.0000
  S   S388      1.0  0.24633  0.57346  0.04538  1.0000
  Fe  Fe198     1.0  0.25879  0.60930  0.04098  1.0000
  S   S389      1.0  0.24559  0.62317  0.03423  1.0000
  S   S390      1.0  0.27388  0.60960  0.04695  1.0000
  Fe  Fe199     1.0  0.23347  0.61394  0.04731  1.0000
  S   S391      1.0  0.21953  0.62226  0.05956  1.0000
  Fe  Fe200     1.0  0.24516  0.61184  0.02358  1.0000
  S   S392      1.0  0.24625  0.61538  0.00497  1.0000
  S   S393      1.0  0.24671  0.60076  0.05441  1.0000
  S   S394      1.0  0.25958  0.59881  0.02917  1.0000
  H   H1120     1.0  0.19760  0.57740  0.11278  1.0000
  C   C1100     1.0  0.33801  0.73388  0.15471  1.0000
  Fe  Fe201     1.0  0.34392  0.71135  0.12742  1.0000
  S   S395      1.0  0.35119  0.69300  0.13209  1.0000
  S   S396      1.0  0.33776  0.72271  0.13973  1.0000
  Fe  Fe202     1.0  0.34599  0.71013  0.10364  1.0000
  S   S397      1.0  0.35429  0.69210  0.10625  1.0000
  S   S398      1.0  0.34285  0.71741  0.08655  1.0000
  Fe  Fe203     1.0  0.34070  0.69027  0.12162  1.0000
  S   S399      1.0  0.32894  0.67797  0.12584  1.0000
  Fe  Fe204     1.0  0.36392  0.69660  0.11618  1.0000
  S   S400      1.0  0.38281  0.69132  0.11397  1.0000
  S   S401      1.0  0.33217  0.70841  0.11866  1.0000
  S   S402      1.0  0.35686  0.71490  0.11191  1.0000
  Fe  Fe205     1.0  0.29013  0.62118  0.10584  1.0000
  S   S403      1.0  0.27289  0.62898  0.10313  1.0000
  S   S404      1.0  0.29311  0.60255  0.11195  1.0000
  Fe  Fe206     1.0  0.29693  0.64371  0.10145  1.0000
  S   S405      1.0  0.27991  0.65307  0.09820  1.0000
  S   S406      1.0  0.31152  0.65241  0.09907  1.0000
  Fe  Fe207     1.0  0.27305  0.64078  0.11295  1.0000
  S   S407      1.0  0.25819  0.64544  0.12632  1.0000
  Fe  Fe208     1.0  0.28114  0.64032  0.08856  1.0000
  S   S408      1.0  0.27313  0.64497  0.07375  1.0000
  S   S409      1.0  0.28982  0.63219  0.11695  1.0000
  S   S410      1.0  0.29870  0.63172  0.09049  1.0000
  Fe  Fe209     1.0  0.21124  0.60219  0.14587  1.0000
  S   S411      1.0  0.20011  0.59516  0.14019  1.0000
  S   S412      1.0  0.22144  0.59200  0.15822  1.0000
  Fe  Fe210     1.0  0.20575  0.62468  0.13116  1.0000
  S   S413      1.0  0.19381  0.61977  0.12423  1.0000
  S   S414      1.0  0.20984  0.64156  0.12568  1.0000
  Fe  Fe211     1.0  0.18775  0.61121  0.14193  1.0000
  S   S415      1.0  0.16994  0.60928  0.14995  1.0000
  Fe  Fe212     1.0  0.20717  0.60426  0.12322  1.0000
  S   S416      1.0  0.21406  0.59528  0.10923  1.0000
  S   S417      1.0  0.19850  0.61759  0.14894  1.0000
  S   S418      1.0  0.21950  0.60982  0.12881  1.0000
  S   S419      1.0  0.39147  0.71818  0.05780  1.0000
  S   S420      1.0  0.45555  0.72613  0.09980  1.0000
  Fe  Fe213     1.0  0.45306  0.71522  0.11683  1.0000
  S   S421      1.0  0.46794  0.70784  0.12501  1.0000
  Fe  Fe214     1.0  0.42749  0.71907  0.11913  1.0000
  N   N92       1.0  0.37569  0.72129  0.15858  1.0000
  S   S422      1.0  0.41007  0.71742  0.12920  1.0000
  Fe  Fe215     1.0  0.44329  0.71802  0.09701  1.0000
  S   S423      1.0  0.44349  0.71352  0.08132  1.0000
  H   H1121     1.0  0.23231  0.61419  0.15855  1.0000
  S   S424      1.0  0.44205  0.70586  0.11340  1.0000
  H   H1122     1.0  0.22078  0.50982  0.10074  1.0000
  H   H1123     1.0  0.13389  0.64086  0.18058  1.0000
  C   C1101     1.0  0.26730  0.49665  0.09005  1.0000
  H   H1124     1.0  0.25686  0.49373  0.12458  1.0000
  C   C1102     1.0  0.19528  0.60023  0.08467  1.0000
  C   C1103     1.0  0.48521  0.71285  0.13046  1.0000
  C   C1104     1.0  0.14867  0.61041  0.17977  1.0000
  H   H1125     1.0  0.19117  0.60887  0.08449  1.0000
  H   H1126     1.0  0.38147  0.71100  0.02157  1.0000
  C   C1105     1.0  0.43799  0.72588  0.07277  1.0000
  H   H1127     1.0  0.33048  0.73089  0.15920  1.0000
  H   H1128     1.0  0.45875  0.71177  0.14935  1.0000
  C   C1106     1.0  0.24710  0.48962  0.11553  1.0000
  H   H1129     1.0  0.20279  0.56593  0.10584  1.0000
  C   C1107     1.0  0.47432  0.71673  0.12849  1.0000
  H   H1130     1.0  0.37144  0.71317  0.14836  1.0000
  H   H1131     1.0  0.18545  0.59428  0.16406  1.0000
  C   C1108     1.0  0.34398  0.73062  0.14481  1.0000
  C   C1109     1.0  0.24498  0.64416  0.12564  1.0000
  C   C1110     1.0  0.23549  0.65152  0.13000  1.0000
  C   C1111     1.0  0.22478  0.65059  0.12999  1.0000
  C   C1112     1.0  0.22341  0.64201  0.12607  1.0000
  C   C1113     1.0  0.23288  0.63443  0.12191  1.0000
  C   C1114     1.0  0.24367  0.63563  0.12150  1.0000
  H   H1132     1.0  0.23643  0.65807  0.13328  1.0000
  H   H1133     1.0  0.21752  0.65651  0.13315  1.0000
  H   H1134     1.0  0.23189  0.62793  0.11862  1.0000
  H   H1135     1.0  0.25094  0.62983  0.11824  1.0000
  H   H1136     1.0  0.23399  0.58381  0.01425  1.0000
  C   C1115     1.0  0.16335  0.61255  0.16299  1.0000
  H   H1137     1.0  0.15115  0.60263  0.16611  1.0000
  C   C1116     1.0  0.31635  0.65917  0.10687  1.0000
  C   C1117     1.0  0.32615  0.66339  0.10201  1.0000
  C   C1118     1.0  0.33016  0.66909  0.10764  1.0000
  C   C1119     1.0  0.32449  0.67058  0.11833  1.0000
  C   C1120     1.0  0.31483  0.66614  0.12326  1.0000
  C   C1121     1.0  0.31075  0.66056  0.11759  1.0000
  H   H1138     1.0  0.33065  0.66235  0.09377  1.0000
  H   H1139     1.0  0.33766  0.67230  0.10373  1.0000
  H   H1140     1.0  0.31038  0.66714  0.13154  1.0000
  H   H1141     1.0  0.30324  0.65737  0.12152  1.0000
  C   C1122     1.0  0.35633  0.71737  0.07841  1.0000
  C   C1123     1.0  0.36331  0.72239  0.08122  1.0000
  C   C1124     1.0  0.37417  0.72234  0.07495  1.0000
  C   C1125     1.0  0.37826  0.71697  0.06609  1.0000
  C   C1126     1.0  0.37136  0.71175  0.06335  1.0000
  C   C1127     1.0  0.36030  0.71208  0.06945  1.0000
  H   H1142     1.0  0.24551  0.57517  0.02052  1.0000
  H   H1143     1.0  0.26142  0.59091  0.00805  1.0000
  Fe  Fe216     1.0  0.39160  0.73567  0.05752  1.0000
  H   H1144     1.0  0.44573  0.70101  0.13753  1.0000
  C   C1128     1.0  0.39021  0.69878  0.11818  1.0000
  C   C1129     1.0  0.38464  0.70749  0.12363  1.0000
  C   C1130     1.0  0.39079  0.71336  0.12669  1.0000
  C   C1131     1.0  0.40256  0.71054  0.12441  1.0000
  C   C1132     1.0  0.40812  0.70200  0.11873  1.0000
  C   C1133     1.0  0.40197  0.69613  0.11569  1.0000
  H   H1145     1.0  0.37559  0.70971  0.12546  1.0000
  H   H1146     1.0  0.38640  0.72021  0.13068  1.0000
  H   H1147     1.0  0.41717  0.69975  0.11690  1.0000
  H   H1148     1.0  0.40634  0.68945  0.11142  1.0000
  H   H1149     1.0  0.21221  0.57385  0.10650  1.0000
  H   H1150     1.0  0.38397  0.72417  0.00343  1.0000
  C   C1134     1.0  0.43118  0.71596  0.15074  1.0000
  C   C1135     1.0  0.27331  0.61936  0.05463  1.0000
  C   C1136     1.0  0.28097  0.61697  0.06147  1.0000
  C   C1137     1.0  0.28086  0.62462  0.06757  1.0000
  C   C1138     1.0  0.27334  0.63491  0.06655  1.0000
  C   C1139     1.0  0.26566  0.63729  0.05973  1.0000
  C   C1140     1.0  0.26551  0.62947  0.05395  1.0000
  H   H1151     1.0  0.28708  0.60918  0.06198  1.0000
  H   H1152     1.0  0.28683  0.62271  0.07277  1.0000
  H   H1153     1.0  0.25985  0.64527  0.05885  1.0000
  H   H1154     1.0  0.25964  0.63144  0.04863  1.0000
  C   C1141     1.0  0.21835  0.61486  0.07341  1.0000
  C   C1142     1.0  0.21253  0.62036  0.08205  1.0000
  C   C1143     1.0  0.21155  0.61455  0.09315  1.0000
  C   C1144     1.0  0.21619  0.60316  0.09561  1.0000
  C   C1145     1.0  0.22196  0.59767  0.08699  1.0000
  C   C1146     1.0  0.22302  0.60348  0.07594  1.0000
  H   H1155     1.0  0.20872  0.62912  0.08012  1.0000
  H   H1156     1.0  0.20692  0.61880  0.09978  1.0000
  H   H1157     1.0  0.22527  0.58879  0.08885  1.0000
  H   H1158     1.0  0.22693  0.59900  0.06940  1.0000
  C   C1147     1.0  0.23762  0.61062  0.99937  1.0000
  C   C1148     1.0  0.24161  0.60832  0.98872  1.0000
  H   H1159     1.0  0.37176  0.70540  0.16239  1.0000
  H   H1160     1.0  0.27441  0.59188  0.98971  1.0000
  C   C1149     1.0  0.21961  0.60724  0.99967  1.0000
  C   C1150     1.0  0.22666  0.60981  0.00495  1.0000
  H   H1161     1.0  0.24070  0.57652  0.99753  1.0000
  H   H1162     1.0  0.23190  0.62679  0.14776  1.0000
  H   H1163     1.0  0.21099  0.60711  0.00384  1.0000
  H   H1164     1.0  0.22345  0.61165  0.01311  1.0000
  C   C1151     1.0  0.24477  0.56234  0.14474  1.0000
  C   C1152     1.0  0.23720  0.56985  0.13867  1.0000
  C   C1153     1.0  0.22999  0.57895  0.14282  1.0000
  C   C1154     1.0  0.23023  0.58048  0.15312  1.0000
  C   C1155     1.0  0.23779  0.57298  0.15920  1.0000
  C   C1156     1.0  0.24503  0.56392  0.15502  1.0000
  H   H1165     1.0  0.23669  0.56853  0.13091  1.0000
  H   H1166     1.0  0.22417  0.58466  0.13806  1.0000
  H   H1167     1.0  0.23805  0.57414  0.16714  1.0000
  H   H1168     1.0  0.25084  0.55810  0.15976  1.0000
  C   C1157     1.0  0.27987  0.58303  0.09502  1.0000
  C   C1158     1.0  0.28458  0.59215  0.08880  1.0000
  C   C1159     1.0  0.28820  0.59846  0.09400  1.0000
  C   C1160     1.0  0.28765  0.59535  0.10542  1.0000
  C   C1161     1.0  0.28313  0.58611  0.11163  1.0000
  C   C1162     1.0  0.27904  0.58010  0.10649  1.0000
  H   H1169     1.0  0.28551  0.59433  0.07990  1.0000
  H   H1170     1.0  0.29182  0.60546  0.08910  1.0000
  H   H1171     1.0  0.28285  0.58350  0.12044  1.0000
  H   H1172     1.0  0.27552  0.57302  0.11137  1.0000
  C   C1163     1.0  0.19615  0.59274  0.09479  1.0000
  C   C1164     1.0  0.25670  0.51443  0.08212  1.0000
  C   C1165     1.0  0.26104  0.51982  0.08766  1.0000
  C   C1166     1.0  0.26880  0.51365  0.09415  1.0000
  H   H1173     1.0  0.38526  0.73005  0.10372  1.0000
  N   N93       1.0  0.23700  0.50510  0.10416  1.0000
  H   H1174     1.0  0.25086  0.51925  0.07695  1.0000
  H   H1175     1.0  0.25848  0.52873  0.08683  1.0000
  C   C1167     1.0  0.24774  0.50834  0.11525  1.0000
  C   C1168     1.0  0.23362  0.56106  0.08226  1.0000
  C   C1169     1.0  0.24038  0.56887  0.07861  1.0000
  C   C1170     1.0  0.24426  0.57268  0.06727  1.0000
  C   C1171     1.0  0.24140  0.56870  0.05955  1.0000
  C   C1172     1.0  0.23470  0.56082  0.06319  1.0000
  C   C1173     1.0  0.23071  0.55707  0.07457  1.0000
  H   H1176     1.0  0.24269  0.57191  0.08455  1.0000
  H   H1177     1.0  0.24976  0.57843  0.06454  1.0000
  H   H1178     1.0  0.23255  0.55768  0.05722  1.0000
  H   H1179     1.0  0.22557  0.55094  0.07740  1.0000
  C   C1174     1.0  0.20664  0.57834  0.08538  1.0000
  C   C1175     1.0  0.20604  0.58561  0.07512  1.0000
  C   C1176     1.0  0.20034  0.59664  0.07478  1.0000
  H   H1180     1.0  0.21114  0.56981  0.08562  1.0000
  H   H1181     1.0  0.21024  0.58276  0.06750  1.0000
  H   H1182     1.0  0.20015  0.60249  0.06688  1.0000
  N   N94       1.0  0.27247  0.54663  0.06496  1.0000
  C   C1177     1.0  0.27281  0.55765  0.06246  1.0000
  C   C1178     1.0  0.27919  0.53900  0.07149  1.0000
  C   C1179     1.0  0.27997  0.56129  0.06658  1.0000
  C   C1180     1.0  0.28642  0.54236  0.07577  1.0000
  C   C1181     1.0  0.28675  0.55359  0.07334  1.0000
  C   C1182     1.0  0.26414  0.54316  0.06148  1.0000
  H   H1183     1.0  0.26735  0.56373  0.05745  1.0000
  H   H1184     1.0  0.27873  0.53030  0.07376  1.0000
  C   C1183     1.0  0.46852  0.72741  0.12984  1.0000
  H   H1185     1.0  0.29138  0.53633  0.08131  1.0000
  C   C1184     1.0  0.43537  0.73180  0.15423  1.0000
  H   H1186     1.0  0.25619  0.54380  0.06786  1.0000
  H   H1187     1.0  0.26236  0.54853  0.05347  1.0000
  H   H1188     1.0  0.26707  0.53444  0.06038  1.0000
  N   N95       1.0  0.32408  0.69392  0.09022  1.0000
  C   C1185     1.0  0.32214  0.69796  0.09953  1.0000
  C   C1186     1.0  0.31653  0.68884  0.08885  1.0000
  C   C1187     1.0  0.31266  0.69661  0.10798  1.0000
  C   C1188     1.0  0.30695  0.68733  0.09714  1.0000
  C   C1189     1.0  0.30507  0.69118  0.10679  1.0000
  C   C1190     1.0  0.33419  0.69535  0.08160  1.0000
  H   H1189     1.0  0.32811  0.70202  0.10056  1.0000
  H   H1190     1.0  0.31803  0.68560  0.08148  1.0000
  H   H1191     1.0  0.31149  0.69932  0.11560  1.0000
  H   H1192     1.0  0.30125  0.68283  0.09626  1.0000
  H   H1193     1.0  0.29792  0.68968  0.11347  1.0000
  H   H1194     1.0  0.34149  0.69391  0.08540  1.0000
  H   H1195     1.0  0.33636  0.68938  0.07610  1.0000
  H   H1196     1.0  0.33296  0.70398  0.07656  1.0000
  N   N96       1.0  0.23579  0.63684  0.08493  1.0000
  C   C1191     1.0  0.24500  0.63968  0.08600  1.0000
  C   C1192     1.0  0.22536  0.64098  0.09062  1.0000
  C   C1193     1.0  0.24388  0.64716  0.09258  1.0000
  C   C1194     1.0  0.22393  0.64845  0.09732  1.0000
  C   C1195     1.0  0.23325  0.65162  0.09822  1.0000
  C   C1196     1.0  0.23705  0.62909  0.07789  1.0000
  H   H1197     1.0  0.25329  0.63622  0.08175  1.0000
  H   H1198     1.0  0.21808  0.63852  0.09002  1.0000
  H   H1199     1.0  0.25123  0.64946  0.09330  1.0000
  H   H1200     1.0  0.21567  0.65164  0.10195  1.0000
  H   H1201     1.0  0.23227  0.65729  0.10352  1.0000
  H   H1202     1.0  0.23536  0.62099  0.08310  1.0000
  H   H1203     1.0  0.23108  0.63252  0.07225  1.0000
  H   H1204     1.0  0.24557  0.62767  0.07250  1.0000
  N   N97       1.0  0.32735  0.62485  0.09930  1.0000
  C   C1197     1.0  0.32392  0.62644  0.10994  1.0000
  C   C1198     1.0  0.32500  0.61620  0.09667  1.0000
  C   C1199     1.0  0.31806  0.61920  0.11827  1.0000
  C   C1200     1.0  0.31918  0.60880  0.10480  1.0000
  C   C1201     1.0  0.31569  0.61033  0.11566  1.0000
  C   C1202     1.0  0.33323  0.63261  0.09052  1.0000
  H   H1205     1.0  0.32547  0.63348  0.11199  1.0000
  H   H1206     1.0  0.32747  0.61510  0.08819  1.0000
  H   H1207     1.0  0.31517  0.62062  0.12664  1.0000
  H   H1208     1.0  0.31714  0.60205  0.10266  1.0000
  H   H1209     1.0  0.31095  0.60477  0.12197  1.0000
  H   H1210     1.0  0.33550  0.63861  0.09390  1.0000
  H   H1211     1.0  0.34104  0.62803  0.08589  1.0000
  H   H1212     1.0  0.32769  0.63753  0.08472  1.0000
  H   H1213     1.0  0.23172  0.50383  0.09028  1.0000
  C   C1203     1.0  0.43938  0.73604  0.07366  1.0000
  H   H1214     1.0  0.27077  0.61845  0.13491  1.0000
  C   C1204     1.0  0.15408  0.60805  0.16930  1.0000
  H   H1215     1.0  0.24050  0.59822  0.14310  1.0000
  H   H1216     1.0  0.25968  0.58978  0.13430  1.0000
  C   C1205     1.0  0.20361  0.57442  0.10557  1.0000
  C   C1206     1.0  0.25330  0.61834  0.14194  1.0000
  H   H1217     1.0  0.25098  0.51407  0.11776  1.0000
  H   H1218     1.0  0.44032  0.69421  0.15160  1.0000
  C   C1207     1.0  0.16709  0.61955  0.16717  1.0000
  N   N98       1.0  0.40760  0.71002  0.08702  1.0000
  C   C1208     1.0  0.41080  0.71744  0.09078  1.0000
  C   C1209     1.0  0.39655  0.70972  0.08907  1.0000
  C   C1210     1.0  0.40283  0.72476  0.09683  1.0000
  C   C1211     1.0  0.38838  0.71688  0.09513  1.0000
  C   C1212     1.0  0.39154  0.72452  0.09894  1.0000
  C   C1213     1.0  0.41596  0.70251  0.08052  1.0000
  H   H1219     1.0  0.41956  0.71765  0.08924  1.0000
  H   H1220     1.0  0.39398  0.70383  0.08612  1.0000
  H   H1221     1.0  0.40544  0.73039  0.10003  1.0000
  H   H1222     1.0  0.41457  0.69390  0.08370  1.0000
  H   H1223     1.0  0.41531  0.70531  0.07169  1.0000
  H   H1224     1.0  0.42463  0.70228  0.08101  1.0000
  H   H1225     1.0  0.22714  0.61541  0.14648  1.0000
  C   C1214     1.0  0.24815  0.57979  0.99591  1.0000
  C   C1215     1.0  0.11433  0.62552  0.17523  1.0000
  H   H1226     1.0  0.29199  0.55641  0.07693  1.0000
  S   S425      1.0  0.25382  0.49637  0.07653  1.0000
  H   H1227     1.0  0.42515  0.71210  0.14948  1.0000
  H   H1228     1.0  0.36185  0.72924  0.16955  1.0000
  H   H1229     1.0  0.36024  0.72659  0.08806  1.0000
  H   H1230     1.0  0.23818  0.52124  0.10480  1.0000
  C   C1216     1.0  0.42759  0.72655  0.15315  1.0000
  C   C1217     1.0  0.25972  0.50282  0.08339  1.0000
  C   C1218     1.0  0.47346  0.73403  0.13339  1.0000
  C   C1219     1.0  0.24710  0.60270  0.14129  1.0000
  H   H1231     1.0  0.37968  0.71633  0.09702  1.0000
  H   H1232     1.0  0.35837  0.73229  0.13134  1.0000
  H   H1233     1.0  0.39092  0.71445  0.14834  1.0000
  H   H1234     1.0  0.27496  0.59996  0.13011  1.0000
  H   H1235     1.0  0.16435  0.62766  0.18066  1.0000
  C   C1220     1.0  0.26419  0.61390  0.13675  1.0000
  H   H1236     1.0  0.49724  0.72319  0.10780  1.0000
  C   C1221     1.0  0.25109  0.49691  0.11904  1.0000
  H   H1237     1.0  0.37446  0.70771  0.05639  1.0000
  H   H1238     1.0  0.45459  0.69581  0.14730  1.0000
  C   C1222     1.0  0.17090  0.58390  0.17918  1.0000
  C   C1223     1.0  0.23470  0.60538  0.98362  1.0000
  H   H1239     1.0  0.21382  0.63646  0.99417  1.0000
  H   H1240     1.0  0.25006  0.60897  0.98433  1.0000
  H   H1241     1.0  0.43034  0.71788  0.06499  1.0000
  S   S426      1.0  0.42813  0.73067  0.10256  1.0000
  N   N99       1.0  0.24488  0.61284  0.14394  1.0000
  N   N100      1.0  0.25584  0.60040  0.08665  1.0000
  C   C1224     1.0  0.24793  0.59470  0.09339  1.0000
  C   C1225     1.0  0.25962  0.60728  0.09057  1.0000
  C   C1226     1.0  0.24373  0.59567  0.10442  1.0000
  C   C1227     1.0  0.25570  0.60834  0.10161  1.0000
  C   C1228     1.0  0.24769  0.60250  0.10855  1.0000
  C   C1229     1.0  0.26002  0.59948  0.07505  1.0000
  H   H1242     1.0  0.24495  0.58921  0.09031  1.0000
  H   H1243     1.0  0.26596  0.61173  0.08523  1.0000
  H   H1244     1.0  0.23753  0.59104  0.10977  1.0000
  H   H1245     1.0  0.25899  0.61350  0.10479  1.0000
  H   H1246     1.0  0.24461  0.60316  0.11714  1.0000
  H   H1247     1.0  0.26924  0.59866  0.07261  1.0000
  H   H1248     1.0  0.25844  0.59193  0.07363  1.0000
  H   H1249     1.0  0.25609  0.60696  0.06955  1.0000
  H   H1250     1.0  0.28000  0.57008  0.06488  1.0000
  H   H1251     1.0  0.19273  0.59574  0.10241  1.0000
  C   C1230     1.0  0.38566  0.71771  0.02031  1.0000
  N   N101      1.0  0.20184  0.58196  0.09503  1.0000
  S   S427      1.0  0.43838  0.72712  0.12421  1.0000
  C   C1231     1.0  0.25537  0.58023  0.98545  1.0000
  C   C1232     1.0  0.43132  0.72571  0.06581  1.0000
  H   H1252     1.0  0.25160  0.62632  0.14416  1.0000
  H   H1253     1.0  0.37935  0.72668  0.07685  1.0000
  H   H1254     1.0  0.34208  0.73531  0.06395  1.0000
  N   N102      1.0  0.25032  0.58368  0.00385  1.0000
  C   C1233     1.0  0.44587  0.69989  0.14638  1.0000
  H   H1255     1.0  0.36029  0.71693  0.15949  1.0000
  C   C1234     1.0  0.25973  0.58778  0.00177  1.0000
  C   C1235     1.0  0.37638  0.73593  0.16659  1.0000
  H   H1256     1.0  0.38831  0.71347  0.03701  1.0000
  C   C1236     1.0  0.38671  0.72058  0.15336  1.0000
  C   C1237     1.0  0.26651  0.60359  0.13395  1.0000
  C   C1238     1.0  0.23352  0.61756  0.14947  1.0000
  H   H1257     1.0  0.17372  0.58066  0.17168  1.0000
  C   C1239     1.0  0.26710  0.58838  0.99139  1.0000
  H   H1258     1.0  0.35492  0.70812  0.06732  1.0000
  C   C1240     1.0  0.24056  0.51233  0.10785  1.0000
  N   N103      1.0  0.44224  0.71072  0.14950  1.0000
  C   C1241     1.0  0.25794  0.59790  0.13627  1.0000
  C   C1242     1.0  0.48444  0.73026  0.13513  1.0000
  C   C1243     1.0  0.12824  0.63675  0.17900  1.0000
  C   C1244     1.0  0.22964  0.50935  0.09625  1.0000
  C   C1245     1.0  0.23052  0.63617  0.98421  1.0000
  H   H1259     1.0  0.44461  0.73620  0.07894  1.0000
  C   C1246     1.0  0.22355  0.60516  0.98894  1.0000
  H   H1260     1.0  0.27800  0.49727  0.10021  1.0000
  N   N104      1.0  0.39199  0.73394  0.00854  1.0000
  C   C1247     1.0  0.36950  0.71381  0.15718  1.0000
  C   C1248     1.0  0.39272  0.72781  0.15430  1.0000
  H   H1261     1.0  0.12737  0.62203  0.16102  1.0000
  C   C1249     1.0  0.24273  0.58311  0.01480  1.0000
  H   H1262     1.0  0.46014  0.73052  0.12837  1.0000
  C   C1250     1.0  0.38943  0.71912  0.02896  1.0000
  C   C1251     1.0  0.37057  0.72869  0.16532  1.0000
  C   C1252     1.0  0.26486  0.58461  0.98318  1.0000
  H   H1263     1.0  0.48972  0.70455  0.12954  1.0000
  H   H1264     1.0  0.24258  0.59010  0.01845  1.0000
  C   C1253     1.0  0.27197  0.50208  0.09525  1.0000
  C   C1254     1.0  0.23999  0.49388  0.10806  1.0000
  C   C1255     1.0  0.49032  0.71964  0.13361  1.0000
  H   H1265     1.0  0.17415  0.62316  0.16233  1.0000
  C   C1256     1.0  0.44994  0.71581  0.15057  1.0000
  C   C1257     1.0  0.38750  0.73552  0.16099  1.0000
  H   H1266     1.0  0.23072  0.51770  0.09121  1.0000
  C   C1258     1.0  0.44663  0.72641  0.15296  1.0000
  H   H1267     1.0  0.45280  0.73048  0.15360  1.0000
  H   H1268     1.0  0.13979  0.63221  0.16431  1.0000
  C   C1259     1.0  0.35373  0.73465  0.13907  1.0000
  H   H1269     1.0  0.39755  0.72901  0.03395  1.0000
  H   H1270     1.0  0.10885  0.62103  0.17395  1.0000
  C   C1260     1.0  0.39460  0.72792  0.02725  1.0000
  H   H1271     1.0  0.42010  0.73556  0.05516  1.0000
  Fe  Fe217     1.0  0.44022  0.73757  0.10700  1.0000
  H   H1272     1.0  0.19387  0.58762  0.17431  1.0000
  H   H1273     1.0  0.48037  0.73138  0.10059  1.0000
  C   C1261     1.0  0.12468  0.62611  0.16797  1.0000
  C   C1262     1.0  0.38711  0.72519  0.01006  1.0000
  C   C1263     1.0  0.13164  0.63186  0.16979  1.0000
  H   H1274     1.0  0.41888  0.73082  0.15391  1.0000
  C   C1264     1.0  0.18622  0.59390  0.17258  1.0000
  S   S428      1.0  0.35980  0.73754  0.00537  1.0000
  C   C1265     1.0  0.42553  0.73571  0.06025  1.0000
  N   N105      1.0  0.17630  0.59103  0.18080  1.0000
  H   H1275     1.0  0.40132  0.72750  0.14976  1.0000
  C   C1266     1.0  0.16151  0.62211  0.17755  1.0000
  H   H1276     1.0  0.23354  0.63830  0.99033  1.0000
  H   H1277     1.0  0.36320  0.73356  0.02746  1.0000
  C   C1267     1.0  0.39581  0.73531  0.01694  1.0000
  H   H1278     1.0  0.18727  0.60223  0.17258  1.0000
  C   C1268     1.0  0.21947  0.63509  0.98639  1.0000
  Fe  Fe218     1.0  0.10758  0.54596  0.27147  1.0000
  S   S429      1.0  0.10355  0.53798  0.28952  1.0000
  S   S430      1.0  0.12538  0.54389  0.26210  1.0000
  Fe  Fe219     1.0  0.08350  0.55359  0.27013  1.0000
  S   S431      1.0  0.07739  0.54614  0.28798  1.0000
  S   S432      1.0  0.07217  0.56165  0.25838  1.0000
  Fe  Fe220     1.0  0.09023  0.55359  0.29076  1.0000
  S   S433      1.0  0.08557  0.56195  0.30527  1.0000
  Fe  Fe221     1.0  0.09118  0.53143  0.28480  1.0000
  S   S434      1.0  0.08897  0.51365  0.29119  1.0000
  S   S435      1.0  0.09532  0.56212  0.27304  1.0000
  S   S436      1.0  0.09627  0.53835  0.26669  1.0000
  Fe  Fe222     1.0  0.02431  0.60028  0.26672  1.0000
  S   S437      1.0  0.02010  0.60089  0.25077  1.0000
  S   S438      1.0  0.02423  0.58507  0.28021  1.0000
  Fe  Fe223     1.0  0.03171  0.62224  0.25869  1.0000
  S   S439      1.0  0.02739  0.62512  0.24210  1.0000
  S   S440      1.0  0.04248  0.63279  0.26054  1.0000
  Fe  Fe224     1.0  0.01192  0.61855  0.25160  1.0000
  Fe  Fe225     1.0  0.03582  0.60723  0.24275  1.0000
  S   S441      1.0  0.04870  0.60048  0.22894  1.0000
  S   S442      1.0  0.01529  0.61762  0.26825  1.0000
  S   S443      1.0  0.04090  0.60470  0.25867  1.0000
  H   H1279     1.0  0.00189  0.60454  0.24038  1.0000
  Fe  Fe226     1.0  0.08725  0.70375  0.36583  1.0000
  H   H1280     1.0  0.02983  0.61733  0.22203  1.0000
  S   S444      1.0  0.07006  0.71082  0.36262  1.0000
  Fe  Fe227     1.0  0.11030  0.70819  0.36209  1.0000
  S   S445      1.0  0.11722  0.69030  0.36955  1.0000
  S   S446      1.0  0.12010  0.72200  0.35505  1.0000
  Fe  Fe228     1.0  0.10695  0.68548  0.36024  1.0000
  S   S447      1.0  0.11134  0.67045  0.35194  1.0000
  C   C1269     1.0  0.08068  0.49004  0.28119  1.0000
  S   S448      1.0  0.10179  0.70320  0.35142  1.0000
  H   H1281     1.0  0.15717  0.57535  0.18570  1.0000
  Fe  Fe229     1.0  0.08694  0.64279  0.31328  1.0000
  S   S449      1.0  0.07751  0.64913  0.29935  1.0000
  S   S450      1.0  0.08627  0.65660  0.32214  1.0000
  Fe  Fe230     1.0  0.09363  0.61918  0.30844  1.0000
  S   S451      1.0  0.08496  0.62401  0.29444  1.0000
  S   S452      1.0  0.10267  0.60122  0.31231  1.0000
  Fe  Fe231     1.0  0.09228  0.63905  0.28964  1.0000
  S   S453      1.0  0.09976  0.64481  0.27165  1.0000
  Fe  Fe232     1.0  0.07102  0.63341  0.30537  1.0000
  S   S454      1.0  0.05395  0.63058  0.30635  1.0000
  S   S455      1.0  0.10220  0.63368  0.30287  1.0000
  S   S456      1.0  0.07915  0.62764  0.32008  1.0000
  Fe  Fe233     1.0  0.12398  0.59075  0.21536  1.0000
  S   S457      1.0  0.12102  0.60546  0.20139  1.0000
  S   S458      1.0  0.13019  0.57315  0.21344  1.0000
  Fe  Fe234     1.0  0.12031  0.60466  0.23216  1.0000
  S   S459      1.0  0.11753  0.62058  0.21961  1.0000
  S   S460      1.0  0.11878  0.60236  0.25050  1.0000
  Fe  Fe235     1.0  0.10696  0.61248  0.21427  1.0000
  S   S461      1.0  0.09036  0.62342  0.21168  1.0000
  Fe  Fe236     1.0  0.13185  0.61224  0.20785  1.0000
  S   S462      1.0  0.14536  0.62111  0.19675  1.0000
  S   S463      1.0  0.10881  0.59705  0.22758  1.0000
  S   S464      1.0  0.13574  0.59705  0.22102  1.0000
  H   H1282     1.0  0.12089  0.57591  0.25625  1.0000
  H   H1283     1.0  0.11765  0.57501  0.30232  1.0000
  H   H1284     1.0  0.06017  0.54549  0.25711  1.0000
  H   H1285     1.0  0.08418  0.49199  0.29599  1.0000
  C   C1270     1.0  0.12439  0.65232  0.29939  1.0000
  C   C1271     1.0  0.16338  0.59234  0.19825  1.0000
  H   H1286     1.0  0.11405  0.73011  0.37623  1.0000
  H   H1287     1.0  0.10615  0.49062  0.26684  1.0000
  H   H1288     1.0  0.12502  0.59043  0.28832  1.0000
  H   H1289     1.0  0.05728  0.53053  0.24993  1.0000
  C   C1272     1.0  0.10538  0.63316  0.26560  1.0000
  C   C1273     1.0  0.10713  0.63436  0.25412  1.0000
  C   C1274     1.0  0.11126  0.62496  0.24937  1.0000
  C   C1275     1.0  0.11368  0.61436  0.25609  1.0000
  C   C1276     1.0  0.11196  0.61321  0.26755  1.0000
  C   C1277     1.0  0.10795  0.62257  0.27227  1.0000
  H   H1290     1.0  0.10519  0.64254  0.24892  1.0000
  H   H1291     1.0  0.11258  0.62596  0.24054  1.0000
  H   H1292     1.0  0.11369  0.60508  0.27284  1.0000
  H   H1293     1.0  0.10695  0.62158  0.28108  1.0000
  H   H1294     1.0  0.09001  0.64465  0.35602  1.0000
  H   H1295     1.0  0.13394  0.57978  0.25439  1.0000
  C   C1278     1.0  0.10487  0.66708  0.34286  1.0000
  C   C1279     1.0  0.09611  0.67454  0.33834  1.0000
  C   C1280     1.0  0.09080  0.67125  0.33179  1.0000
  C   C1281     1.0  0.09405  0.66045  0.32969  1.0000
  C   C1282     1.0  0.10303  0.65309  0.33392  1.0000
  C   C1283     1.0  0.10842  0.65642  0.34039  1.0000
  H   H1296     1.0  0.09332  0.68281  0.34001  1.0000
  H   H1297     1.0  0.08395  0.67709  0.32850  1.0000
  H   H1298     1.0  0.10571  0.64477  0.33239  1.0000
  H   H1299     1.0  0.11524  0.65057  0.34374  1.0000
  C   C1284     1.0  0.12391  0.73221  0.35950  1.0000
  C   C1285     1.0  0.05918  0.53753  0.26260  1.0000
  H   H1300     1.0  0.07435  0.60552  0.30932  1.0000
  C   C1286     1.0  0.11374  0.65638  0.28532  1.0000
  C   C1287     1.0  0.15230  0.61754  0.18388  1.0000
  H   H1301     1.0  0.05519  0.51230  0.26268  1.0000
  N   N106      1.0  0.12582  0.57409  0.27124  1.0000
  H   H1302     1.0  0.10759  0.63843  0.20184  1.0000
  H   H1303     1.0  0.12201  0.52210  0.27618  1.0000
  N   N107      1.0  0.10531  0.66321  0.29109  1.0000
  H   H1304     1.0  0.05084  0.52677  0.29722  1.0000
  C   C1288     1.0  0.11475  0.64141  0.19560  1.0000
  C   C1289     1.0  0.08028  0.66907  0.36361  1.0000
  C   C1290     1.0  0.04552  0.63195  0.27339  1.0000
  C   C1291     1.0  0.03936  0.62694  0.28344  1.0000
  C   C1292     1.0  0.04182  0.62680  0.29353  1.0000
  C   C1293     1.0  0.05060  0.63143  0.29362  1.0000
  C   C1294     1.0  0.05694  0.63616  0.28356  1.0000
  C   C1295     1.0  0.05433  0.63652  0.27350  1.0000
  H   H1305     1.0  0.03254  0.62341  0.28345  1.0000
  H   H1306     1.0  0.03693  0.62304  0.30128  1.0000
  H   H1307     1.0  0.06376  0.63971  0.28352  1.0000
  H   H1308     1.0  0.05912  0.64043  0.26578  1.0000
  C   C1296     1.0  0.06030  0.60681  0.22438  1.0000
  C   C1297     1.0  0.07110  0.60042  0.22150  1.0000
  C   C1298     1.0  0.08042  0.60539  0.21790  1.0000
  C   C1299     1.0  0.07892  0.61685  0.21680  1.0000
  C   C1300     1.0  0.06812  0.62324  0.21962  1.0000
  C   C1301     1.0  0.05884  0.61822  0.22355  1.0000
  H   H1309     1.0  0.07227  0.59159  0.22216  1.0000
  H   H1310     1.0  0.08873  0.60040  0.21570  1.0000
  H   H1311     1.0  0.06691  0.63211  0.21878  1.0000
  H   H1312     1.0  0.05055  0.62322  0.22573  1.0000
  H   H1313     1.0  0.07321  0.68641  0.36401  1.0000
  H   H1314     1.0  0.12795  0.50767  0.28105  1.0000
  C   C1302     1.0  0.12639  0.55156  0.24839  1.0000
  C   C1303     1.0  0.13652  0.54982  0.24067  1.0000
  C   C1304     1.0  0.13755  0.55620  0.22981  1.0000
  C   C1305     1.0  0.12855  0.56454  0.22674  1.0000
  C   C1306     1.0  0.11840  0.56626  0.23446  1.0000
  C   C1307     1.0  0.11727  0.55966  0.24524  1.0000
  H   H1315     1.0  0.14360  0.54357  0.24308  1.0000
  H   H1316     1.0  0.14541  0.55488  0.22386  1.0000
  H   H1317     1.0  0.11136  0.57255  0.23206  1.0000
  H   H1318     1.0  0.10938  0.56097  0.25109  1.0000
  C   C1308     1.0  0.09080  0.57298  0.30634  1.0000
  C   C1309     1.0  0.09221  0.58231  0.29769  1.0000
  C   C1310     1.0  0.09541  0.59132  0.29949  1.0000
  C   C1311     1.0  0.09744  0.59087  0.30984  1.0000
  C   C1312     1.0  0.09617  0.58148  0.31831  1.0000
  C   C1313     1.0  0.09266  0.57273  0.31665  1.0000
  H   H1319     1.0  0.09064  0.58267  0.28973  1.0000
  H   H1320     1.0  0.09656  0.59848  0.29281  1.0000
  H   H1321     1.0  0.09781  0.58100  0.32628  1.0000
  H   H1322     1.0  0.09145  0.56565  0.32341  1.0000
  C   C1314     1.0  0.08538  0.50666  0.28297  1.0000
  C   C1315     1.0  0.09524  0.66900  0.28674  1.0000
  C   C1316     1.0  0.06165  0.58426  0.29506  1.0000
  C   C1317     1.0  0.05918  0.52356  0.29229  1.0000
  C   C1318     1.0  0.08185  0.50568  0.26564  1.0000
  C   C1319     1.0  0.08453  0.51156  0.27200  1.0000
  H   H1323     1.0  0.13339  0.56536  0.25820  1.0000
  H   H1324     1.0  0.08123  0.50952  0.25715  1.0000
  H   H1325     1.0  0.08597  0.51985  0.26837  1.0000
  C   C1320     1.0  0.05863  0.56727  0.26494  1.0000
  C   C1321     1.0  0.05613  0.56788  0.27610  1.0000
  C   C1322     1.0  0.04523  0.57253  0.28117  1.0000
  C   C1323     1.0  0.03693  0.57679  0.27498  1.0000
  C   C1324     1.0  0.03944  0.57608  0.26387  1.0000
  C   C1325     1.0  0.05027  0.57129  0.25886  1.0000
  H   H1326     1.0  0.06264  0.56518  0.28071  1.0000
  H   H1327     1.0  0.04335  0.57338  0.28968  1.0000
  H   H1328     1.0  0.03310  0.57945  0.25902  1.0000
  H   H1329     1.0  0.05220  0.57097  0.25019  1.0000
  C   C1326     1.0  0.12148  0.56571  0.27889  1.0000
  H   H1330     1.0  0.01181  0.63117  0.22291  1.0000
  H   H1331     1.0  0.12212  0.52402  0.25747  1.0000
  H   H1332     1.0  0.08384  0.64471  0.37051  1.0000
  H   H1333     1.0  0.17692  0.60089  0.19151  1.0000
  N   N108      1.0  0.11710  0.51048  0.27020  1.0000
  H   H1334     1.0  0.99831  0.61097  0.21081  1.0000
  C   C1327     1.0  0.08784  0.64955  0.36253  1.0000
  H   H1335     1.0  0.09589  0.65078  0.36337  1.0000
  C   C1328     1.0  0.02407  0.60609  0.21628  1.0000
  C   C1329     1.0  0.01274  0.62370  0.22000  1.0000
  C   C1330     1.0  0.05677  0.51729  0.27684  1.0000
  C   C1331     1.0  0.08350  0.49586  0.28751  1.0000
  C   C1332     1.0  0.07308  0.67937  0.36092  1.0000
  H   H1336     1.0  0.07320  0.65440  0.34952  1.0000
  C   C1333     1.0  0.11973  0.73477  0.37007  1.0000
  C   C1334     1.0  0.11116  0.50422  0.25388  1.0000
  H   H1337     1.0  0.05851  0.59035  0.27855  1.0000
  C   C1335     1.0  0.12421  0.58335  0.28573  1.0000
  H   H1338     1.0  0.11221  0.65055  0.19274  1.0000
  C   C1336     1.0  0.06075  0.59226  0.28528  1.0000
  C   C1337     1.0  0.11851  0.56588  0.29018  1.0000
  H   H1339     1.0  0.06540  0.52773  0.29313  1.0000
  N   N109      1.0  0.07733  0.61283  0.24835  1.0000
  C   C1338     1.0  0.06934  0.60795  0.24760  1.0000
  C   C1339     1.0  0.08733  0.60647  0.25062  1.0000
  C   C1340     1.0  0.07121  0.59638  0.24921  1.0000
  C   C1341     1.0  0.08943  0.59487  0.25240  1.0000
  C   C1342     1.0  0.08133  0.58982  0.25162  1.0000
  C   C1343     1.0  0.07548  0.62498  0.24596  1.0000
  H   H1340     1.0  0.06151  0.61303  0.24557  1.0000
  H   H1341     1.0  0.09381  0.61034  0.25091  1.0000
  H   H1342     1.0  0.06495  0.59254  0.24833  1.0000
  H   H1343     1.0  0.09744  0.58989  0.25406  1.0000
  H   H1344     1.0  0.08293  0.58085  0.25268  1.0000
  H   H1345     1.0  0.06643  0.62883  0.24839  1.0000
  H   H1346     1.0  0.08000  0.62775  0.25065  1.0000
  H   H1347     1.0  0.07845  0.62813  0.23694  1.0000
  H   H1348     1.0  0.13023  0.58971  0.26842  1.0000
  H   H1349     1.0  0.11665  0.66097  0.31275  1.0000
  H   H1350     1.0  0.16035  0.59594  0.20554  1.0000
  C   C1344     1.0  0.06585  0.68059  0.35404  1.0000
  C   C1345     1.0  0.12708  0.58290  0.27451  1.0000
  C   C1346     1.0  0.06417  0.58698  0.30380  1.0000
  H   H1351     1.0  0.06035  0.57602  0.29593  1.0000
  C   C1347     1.0  0.15778  0.58515  0.19663  1.0000
  C   C1348     1.0  0.11282  0.50115  0.27279  1.0000
  N   N110      1.0  0.08031  0.66028  0.35950  1.0000
  C   C1349     1.0  0.05098  0.72011  0.37578  1.0000
  N   N111      1.0  0.00405  0.62189  0.21686  1.0000
  C   C1350     1.0  0.02289  0.61588  0.21966  1.0000
  C   C1351     1.0  0.06581  0.67151  0.35002  1.0000
  C   C1352     1.0  0.05751  0.52915  0.25859  1.0000
  H   H1352     1.0  0.13466  0.73639  0.34353  1.0000
  C   C1353     1.0  0.07309  0.66133  0.35291  1.0000
  H   H1353     1.0  0.06036  0.67239  0.34452  1.0000
  N   N112      1.0  0.05866  0.52546  0.28064  1.0000
  H   H1354     1.0  0.10861  0.50189  0.24759  1.0000
  H   H1355     1.0  0.06199  0.51457  0.29583  1.0000
  S   S465      1.0  0.09203  0.68606  0.37447  1.0000
  C   C1354     1.0  0.07978  0.49495  0.27024  1.0000
  S   S466      1.0  0.09505  0.71040  0.37561  1.0000
  N   N113      1.0  0.08429  0.73557  0.36160  1.0000
  C   C1355     1.0  0.10642  0.66507  0.30069  1.0000
  C   C1356     1.0  0.11593  0.65962  0.30501  1.0000
  H   H1356     1.0  0.04806  0.72427  0.36823  1.0000
  H   H1357     1.0  0.08605  0.66822  0.36878  1.0000
  H   H1358     1.0  0.11341  0.51350  0.28640  1.0000
  H   H1359     1.0  0.05604  0.50926  0.28227  1.0000
  H   H1360     1.0  0.06479  0.58072  0.31138  1.0000
  H   H1361     1.0  0.11139  0.49638  0.28126  1.0000
  H   H1362     1.0  0.06038  0.68859  0.35177  1.0000
  C   C1357     1.0  0.05967  0.53555  0.27373  1.0000
  H   H1363     1.0  0.12985  0.64508  0.28496  1.0000
  C   C1358     1.0  0.12334  0.65073  0.28943  1.0000
  H   H1364     1.0  0.12026  0.55884  0.27628  1.0000
  C   C1359     1.0  0.12001  0.57471  0.29360  1.0000
  H   H1365     1.0  0.03187  0.59991  0.21620  1.0000
  C   C1360     1.0  0.05624  0.51898  0.26575  1.0000
  H   H1366     1.0  0.11490  0.55931  0.29622  1.0000
  C   C1361     1.0  0.12866  0.57376  0.25946  1.0000
  N   N114      1.0  0.06602  0.59730  0.30273  1.0000
  C   C1362     1.0  0.06541  0.60509  0.29309  1.0000
  C   C1363     1.0  0.06266  0.60275  0.28427  1.0000
  C   C1364     1.0  0.06800  0.60031  0.31214  1.0000
  H   H1367     1.0  0.06694  0.61322  0.29226  1.0000
  H   H1368     1.0  0.06182  0.60912  0.27680  1.0000
  H   H1369     1.0  0.06010  0.60516  0.31639  1.0000
  H   H1370     1.0  0.07121  0.59285  0.31818  1.0000
  H   H1371     1.0  0.08774  0.66996  0.29363  1.0000
  C   C1365     1.0  0.07366  0.73493  0.36744  1.0000
  C   C1366     1.0  0.11866  0.51665  0.25957  1.0000
  C   C1367     1.0  0.10984  0.49785  0.26467  1.0000
  H   H1372     1.0  0.13173  0.64791  0.30275  1.0000
  H   H1373     1.0  0.09981  0.67063  0.30518  1.0000
  H   H1374     1.0  0.06096  0.54213  0.27675  1.0000
  H   H1375     1.0  0.06772  0.73354  0.36359  1.0000
  H   H1376     1.0  0.09355  0.66421  0.28157  1.0000
  H   H1377     1.0  0.09627  0.67731  0.28162  1.0000
  H   H1378     1.0  0.11302  0.65514  0.27754  1.0000
  H   H1379     1.0  0.14297  0.72738  0.37828  1.0000
  H   H1380     1.0  0.01599  0.59672  0.21044  1.0000
  H   H1381     1.0  0.15045  0.58296  0.20272  1.0000
  H   H1382     1.0  0.14162  0.60681  0.18457  1.0000
  C   C1368     1.0  0.11563  0.51367  0.25128  1.0000
  H   H1383     1.0  0.12180  0.63951  0.19985  1.0000
  C   C1369     1.0  0.17272  0.59516  0.19024  1.0000
  C   C1370     1.0  0.01518  0.60433  0.21305  1.0000
  H   H1384     1.0  0.11666  0.51873  0.24292  1.0000
  C   C1371     1.0  0.09161  0.73782  0.36631  1.0000
  H   H1385     1.0  0.00214  0.59948  0.27752  1.0000
  C   C1372     1.0  0.06130  0.71257  0.37538  1.0000
  N   N115      1.0  0.11814  0.63603  0.18613  1.0000
  C   C1373     1.0  0.12030  0.51359  0.27887  1.0000
  C   C1374     1.0  0.16155  0.58088  0.18704  1.0000
  H   H1386     1.0  0.00403  0.58138  0.27300  1.0000
  H   H1387     1.0  0.10307  0.63015  0.18987  1.0000
  H   H1388     1.0  0.08370  0.72791  0.34904  1.0000
  C   C1375     1.0  0.00522  0.61243  0.21326  1.0000
  C   C1376     1.0  0.07037  0.73576  0.37855  1.0000
  C   C1377     1.0  0.11113  0.63066  0.18426  1.0000
  H   H1389     1.0  0.09696  0.73083  0.34786  1.0000
  C   C1378     1.0  0.08776  0.73410  0.35013  1.0000
  S   S467      1.0  0.07576  0.48820  0.26212  1.0000
  H   H1390     1.0  0.13114  0.71334  0.38188  1.0000
  S   S468      1.0  0.10074  0.68759  0.40140  1.0000
  Fe  Fe237     1.0  0.11937  0.72241  0.54947  1.0000
  S   S469      1.0  0.11470  0.70848  0.56362  1.0000
  H   H1391     1.0  0.04538  0.72396  0.42837  1.0000
  S   S470      1.0  0.04197  0.72208  0.40785  1.0000
  H   H1392     1.0  0.07309  0.70145  0.38487  1.0000
  S   S471      1.0  0.09182  0.70949  0.46009  1.0000
  C   C1379     1.0  0.12715  0.68904  0.50265  1.0000
  C   C1380     1.0  0.12478  0.72165  0.50167  1.0000
  S   S472      1.0  0.11041  0.72438  0.45611  1.0000
  Fe  Fe238     1.0  0.10100  0.72051  0.44555  1.0000
  S   S473      1.0  0.10855  0.71951  0.42749  1.0000
  Fe  Fe239     1.0  0.09991  0.71506  0.47076  1.0000
  S   S474      1.0  0.10587  0.70590  0.48658  1.0000
  H   H1393     1.0  0.14165  0.71711  0.57887  1.0000
  H   H1394     1.0  0.11371  0.69049  0.52911  1.0000
  H   H1395     1.0  0.13891  0.69748  0.53114  1.0000
  H   H1396     1.0  0.12520  0.71580  0.47712  1.0000
  C   C1381     1.0  0.07294  0.70872  0.43782  1.0000
  C   C1382     1.0  0.05875  0.70965  0.39527  1.0000
  C   C1383     1.0  0.11470  0.71868  0.50781  1.0000
  C   C1384     1.0  0.10857  0.71439  0.50296  1.0000
  C   C1385     1.0  0.11234  0.71329  0.49188  1.0000
  H   H1397     1.0  0.11182  0.71929  0.51639  1.0000
  H   H1398     1.0  0.10105  0.71163  0.50788  1.0000
  S   S475      1.0  0.06039  0.72627  0.46514  1.0000
  C   C1386     1.0  0.12213  0.71677  0.48561  1.0000
  Fe  Fe240     1.0  0.12817  0.72997  0.52469  1.0000
  N   N116      1.0  0.05315  0.71635  0.44213  1.0000
  C   C1387     1.0  0.10223  0.69686  0.40865  1.0000
  C   C1388     1.0  0.10134  0.69357  0.42017  1.0000
  C   C1389     1.0  0.10282  0.70061  0.42615  1.0000
  C   C1390     1.0  0.10525  0.71099  0.42061  1.0000
  C   C1391     1.0  0.10598  0.71435  0.40911  1.0000
  C   C1392     1.0  0.10443  0.70735  0.40316  1.0000
  H   H1399     1.0  0.09970  0.68545  0.42447  1.0000
  H   H1400     1.0  0.10248  0.69783  0.43496  1.0000
  H   H1401     1.0  0.10789  0.72235  0.40476  1.0000
  H   H1402     1.0  0.10517  0.70996  0.39430  1.0000
  C   C1393     1.0  0.09969  0.73049  0.57854  1.0000
  C   C1394     1.0  0.13730  0.69632  0.51138  1.0000
  H   H1403     1.0  0.13620  0.72301  0.48573  1.0000
  C   C1395     1.0  0.12839  0.72080  0.49053  1.0000
  H   H1404     1.0  0.12672  0.70827  0.52902  1.0000
  C   C1396     1.0  0.13285  0.71786  0.40532  1.0000
  C   C1397     1.0  0.12213  0.70668  0.57392  1.0000
  Fe  Fe241     1.0  0.10153  0.69257  0.38287  1.0000
  C   C1398     1.0  0.04474  0.72274  0.38591  1.0000
  C   C1399     1.0  0.05377  0.73688  0.45564  1.0000
  H   H1405     1.0  0.06286  0.72013  0.41437  1.0000
  C   C1400     1.0  0.05311  0.71967  0.43108  1.0000
  H   H1406     1.0  0.16264  0.72594  0.56463  1.0000
  C   C1401     1.0  0.14199  0.73536  0.39130  1.0000
  H   H1407     1.0  0.14418  0.70012  0.51071  1.0000
  C   C1402     1.0  0.12993  0.71316  0.57216  1.0000
  H   H1408     1.0  0.03729  0.71277  0.45058  1.0000
  H   H1409     1.0  0.08065  0.70450  0.44057  1.0000
  C   C1403     1.0  0.06299  0.71758  0.42312  1.0000
  S   S476      1.0  0.13672  0.72149  0.53896  1.0000
  N   N117      1.0  0.13581  0.71845  0.39413  1.0000
  C   C1404     1.0  0.04261  0.71848  0.45025  1.0000
  C   C1405     1.0  0.06512  0.70726  0.38513  1.0000
  C   C1406     1.0  0.00525  0.73306  0.39630  1.0000
  H   H1410     1.0  0.08066  0.71039  0.42042  1.0000
  C   C1407     1.0  0.06288  0.71084  0.44556  1.0000
  C   C1408     1.0  0.04871  0.71758  0.39561  1.0000
  C   C1409     1.0  0.13424  0.72611  0.40975  1.0000
  H   H1411     1.0  0.12927  0.71106  0.41093  1.0000
  C   C1410     1.0  0.13636  0.69324  0.50209  1.0000
  C   C1411     1.0  0.11904  0.68791  0.51247  1.0000
  C   C1412     1.0  0.00273  0.72770  0.38943  1.0000
  C   C1413     1.0  0.07296  0.71208  0.42653  1.0000
  H   H1412     1.0  0.13163  0.71904  0.56442  1.0000
  C   C1414     1.0  0.13008  0.69916  0.53036  1.0000
  H   H1413     1.0  0.06185  0.70570  0.40276  1.0000
  C   C1415     1.0  0.12024  0.69106  0.52162  1.0000
  H   H1414     1.0  0.06296  0.70824  0.45432  1.0000
  H   H1415     1.0  0.06202  0.73498  0.38323  1.0000
  H   H1416     1.0  0.12528  0.69512  0.53837  1.0000
  H   H1417     1.0  0.08586  0.71777  0.57941  1.0000
  H   H1418     1.0  0.11165  0.68503  0.51281  1.0000
  Fe  Fe242     1.0  0.07885  0.72521  0.46167  1.0000
  S   S477      1.0  0.11096  0.72935  0.53504  1.0000
  H   H1419     1.0  0.14248  0.69456  0.49436  1.0000
  H   H1420     1.0  0.03804  0.72723  0.44796  1.0000
  C   C1416     1.0  0.07793  0.73759  0.38357  1.0000
  H   H1421     1.0  0.14262  0.70391  0.38760  1.0000
  H   H1422     1.0  0.13168  0.72569  0.41863  1.0000
  S   S478      1.0  0.13355  0.72573  0.50770  1.0000
  N   N118      1.0  0.12933  0.69513  0.52101  1.0000
  H   H1423     1.0  0.12603  0.68711  0.49535  1.0000
  H   H1424     1.0  0.04406  0.71733  0.45869  1.0000
  H   H1425     1.0  0.07581  0.73131  0.56081  1.0000
  S   S479      1.0  0.08739  0.73588  0.44667  1.0000
  H   H1426     1.0  0.10856  0.73095  0.57727  1.0000
  C   C1417     1.0  0.13573  0.71198  0.58037  1.0000
  C   C1418     1.0  0.13886  0.73490  0.40268  1.0000
  C   C1419     1.0  0.16243  0.72858  0.57204  1.0000
  H   H1427     1.0  0.03696  0.72887  0.38619  1.0000
  C   C1420     1.0  0.13444  0.70970  0.38957  1.0000
  S   S480      1.0  0.08604  0.72981  0.47343  1.0000
  H   H1428     1.0  0.12841  0.70482  0.39549  1.0000
  C   C1421     1.0  0.14050  0.72696  0.38715  1.0000
  H   H1429     1.0  0.06668  0.73364  0.44131  1.0000
  H   H1430     1.0  0.01342  0.73504  0.39450  1.0000
  H   H1431     1.0  0.09853  0.72986  0.57048  1.0000
  S   S481      1.0  0.06766  0.73738  0.58200  1.0000
  H   H1432     1.0  0.00904  0.72562  0.38225  1.0000
  Fe  Fe243     1.0  0.11814  0.61403  0.73277  1.0000
  S   S482      1.0  0.11153  0.61861  0.71728  1.0000
  S   S483      1.0  0.10876  0.61113  0.75043  1.0000
  Fe  Fe244     1.0  0.14196  0.61216  0.72053  1.0000
  S   S484      1.0  0.13784  0.61673  0.70372  1.0000
  S   S485      1.0  0.15939  0.60727  0.72328  1.0000
  Fe  Fe245     1.0  0.12388  0.62977  0.71050  1.0000
  S   S486      1.0  0.11744  0.64714  0.70121  1.0000
  Fe  Fe246     1.0  0.12590  0.60532  0.71165  1.0000
  S   S487      1.0  0.12403  0.59469  0.70133  1.0000
  S   S488      1.0  0.12920  0.62631  0.72666  1.0000
  S   S489      1.0  0.13132  0.59958  0.72778  1.0000
  H   H1433     1.0  0.17776  0.60453  0.73304  1.0000
  Fe  Fe247     1.0  0.13298  0.69752  0.61817  1.0000
  S   S490      1.0  0.11796  0.71009  0.62390  1.0000
  S   S491      1.0  0.14162  0.70277  0.60037  1.0000
  Fe  Fe248     1.0  0.13160  0.68249  0.64146  1.0000
  S   S492      1.0  0.11653  0.69419  0.64891  1.0000
  S   S493      1.0  0.13997  0.66632  0.65143  1.0000
  Fe  Fe249     1.0  0.11064  0.69542  0.63362  1.0000
  S   S494      1.0  0.09318  0.69552  0.63316  1.0000
  Fe  Fe250     1.0  0.12546  0.70768  0.63839  1.0000
  H   H1434     1.0  0.06006  0.59044  0.73843  1.0000
  S   S495      1.0  0.12506  0.68286  0.62671  1.0000
  S   S496      1.0  0.14112  0.69594  0.63216  1.0000
  C   C1422     1.0  0.12011  0.69902  0.58400  1.0000
  Fe  Fe251     1.0  0.05297  0.60589  0.76549  1.0000
  S   S497      1.0  0.05723  0.62150  0.75394  1.0000
  Fe  Fe252     1.0  0.05486  0.58176  0.76549  1.0000
  S   S498      1.0  0.06066  0.56969  0.75430  1.0000
  S   S499      1.0  0.04139  0.59698  0.76282  1.0000
  S   S500      1.0  0.06710  0.59101  0.76608  1.0000
  Fe  Fe253     1.0  0.12098  0.53545  0.73761  1.0000
  S   S501      1.0  0.12017  0.54302  0.75157  1.0000
  S   S502      1.0  0.11640  0.54573  0.72166  1.0000
  Fe  Fe254     1.0  0.12733  0.51160  0.75042  1.0000
  Fe  Fe255     1.0  0.11179  0.52936  0.76224  1.0000
  H   H1435     1.0  0.12166  0.65332  0.65304  1.0000
  Fe  Fe256     1.0  0.13608  0.53055  0.75358  1.0000
  S   S503      1.0  0.11093  0.52288  0.74808  1.0000
  S   S504      1.0  0.13757  0.52370  0.73867  1.0000
  C   C1423     1.0  0.07308  0.73082  0.63353  1.0000
  C   C1424     1.0  0.08146  0.58066  0.73513  1.0000
  H   H1436     1.0  0.12690  0.58067  0.76817  1.0000
  C   C1425     1.0  0.12123  0.70756  0.67103  1.0000
  C   C1426     1.0  0.06548  0.59658  0.73599  1.0000
  H   H1437     1.0  0.13511  0.64427  0.65124  1.0000
  C   C1427     1.0  0.11073  0.63487  0.68258  1.0000
  H   H1438     1.0  0.06020  0.55763  0.77692  1.0000
  C   C1428     1.0  0.01606  0.58395  0.77267  1.0000
  C   C1429     1.0  0.06977  0.55808  0.76022  1.0000
  C   C1430     1.0  0.07953  0.55328  0.75349  1.0000
  C   C1431     1.0  0.08779  0.54527  0.75830  1.0000
  C   C1432     1.0  0.01030  0.73704  0.61323  1.0000
  H   H1439     1.0  0.08092  0.55605  0.74458  1.0000
  H   H1440     1.0  0.09557  0.54214  0.75305  1.0000
  C   C1433     1.0  0.08519  0.70895  0.63365  1.0000
  C   C1434     1.0  0.07626  0.71324  0.62825  1.0000
  C   C1435     1.0  0.07036  0.72426  0.62798  1.0000
  H   H1441     1.0  0.13469  0.53175  0.77707  1.0000
  H   H1442     1.0  0.06358  0.72762  0.62365  1.0000
  C   C1436     1.0  0.08806  0.71559  0.63900  1.0000
  H   H1443     1.0  0.07401  0.70813  0.62412  1.0000
  C   C1437     1.0  0.14695  0.68741  0.66072  1.0000
  H   H1444     1.0  0.09495  0.71230  0.64319  1.0000
  C   C1438     1.0  0.13380  0.70431  0.59045  1.0000
  H   H1445     1.0  0.08398  0.73152  0.64341  1.0000
  H   H1446     1.0  0.12377  0.64140  0.64722  1.0000
  C   C1439     1.0  0.09894  0.58102  0.73883  1.0000
  C   C1440     1.0  0.09534  0.63334  0.76737  1.0000
  H   H1447     1.0  0.14648  0.71690  0.62951  1.0000
  C   C1441     1.0  0.09250  0.57544  0.73597  1.0000
  S   S505      1.0  0.16397  0.59736  0.77305  1.0000
  H   H1448     1.0  0.01025  0.72525  0.60400  1.0000
  S   S506      1.0  0.14915  0.53823  0.75581  1.0000
  H   H1449     1.0  0.10041  0.50427  0.76273  1.0000
  C   C1442     1.0  0.12385  0.65227  0.68739  1.0000
  C   C1443     1.0  0.13429  0.64678  0.68227  1.0000
  C   C1444     1.0  0.13914  0.65117  0.67124  1.0000
  C   C1445     1.0  0.13354  0.66100  0.66521  1.0000
  C   C1446     1.0  0.12302  0.66639  0.67028  1.0000
  C   C1447     1.0  0.11825  0.66210  0.68137  1.0000
  H   H1450     1.0  0.13869  0.63921  0.68685  1.0000
  H   H1451     1.0  0.14729  0.64695  0.66737  1.0000
  H   H1452     1.0  0.11857  0.67390  0.66573  1.0000
  H   H1453     1.0  0.11014  0.66636  0.68526  1.0000
  C   C1448     1.0  0.09429  0.61595  0.75197  1.0000
  C   C1449     1.0  0.08969  0.62295  0.74313  1.0000
  C   C1450     1.0  0.07807  0.62559  0.74409  1.0000
  C   C1451     1.0  0.07112  0.62101  0.75380  1.0000
  C   C1452     1.0  0.07569  0.61468  0.76289  1.0000
  C   C1453     1.0  0.08726  0.61224  0.76201  1.0000
  H   H1454     1.0  0.09507  0.62615  0.73549  1.0000
  H   H1455     1.0  0.07452  0.63056  0.73708  1.0000
  H   H1456     1.0  0.07030  0.61141  0.77053  1.0000
  H   H1457     1.0  0.09073  0.60719  0.76902  1.0000
  C   C1454     1.0  0.12168  0.58125  0.70762  1.0000
  C   C1455     1.0  0.12288  0.57607  0.71849  1.0000
  C   C1456     1.0  0.12142  0.56506  0.72295  1.0000
  C   C1457     1.0  0.11853  0.55938  0.71660  1.0000
  C   C1458     1.0  0.11716  0.56468  0.70585  1.0000
  C   C1459     1.0  0.11883  0.57551  0.70136  1.0000
  H   H1458     1.0  0.12513  0.58045  0.72336  1.0000
  H   H1459     1.0  0.12256  0.56098  0.73123  1.0000
  H   H1460     1.0  0.11492  0.56035  0.70092  1.0000
  H   H1461     1.0  0.11790  0.57944  0.69296  1.0000
  C   C1460     1.0  0.16012  0.60479  0.73724  1.0000
  C   C1461     1.0  0.15072  0.60355  0.74591  1.0000
  C   C1462     1.0  0.15179  0.60103  0.75701  1.0000
  C   C1463     1.0  0.16218  0.60004  0.75940  1.0000
  C   C1464     1.0  0.17147  0.60137  0.75071  1.0000
  C   C1465     1.0  0.17048  0.60361  0.73969  1.0000
  H   H1462     1.0  0.14269  0.60441  0.74407  1.0000
  H   H1463     1.0  0.14460  0.59995  0.76370  1.0000
  H   H1464     1.0  0.17951  0.60062  0.75249  1.0000
  C   C1466     1.0  0.11697  0.62410  0.68529  1.0000
  H   H1465     1.0  0.13112  0.61173  0.67967  1.0000
  N   N119      1.0  0.07698  0.59111  0.73712  1.0000
  C   C1467     1.0  0.09440  0.59178  0.74057  1.0000
  C   C1468     1.0  0.12912  0.62699  0.66715  1.0000
  C   C1469     1.0  0.09405  0.50354  0.74907  1.0000
  C   C1470     1.0  0.14585  0.54278  0.76833  1.0000
  H   H1466     1.0  0.11115  0.55417  0.77068  1.0000
  C   C1471     1.0  0.16034  0.72155  0.58246  1.0000
  C   C1472     1.0  0.07599  0.54596  0.77653  1.0000
  H   H1467     1.0  0.09492  0.51185  0.74449  1.0000
  C   C1473     1.0  0.08609  0.54172  0.76983  1.0000
  H   H1468     1.0  0.12436  0.69192  0.60005  1.0000
  H   H1469     1.0  0.12490  0.71508  0.66788  1.0000
  N   N120      1.0  0.13004  0.69744  0.67062  1.0000
  C   C1474     1.0  0.12022  0.56661  0.76910  1.0000
  N   N121      1.0  0.11489  0.62536  0.76667  1.0000
  S   S507      1.0  0.12906  0.49301  0.75209  1.0000
  H   H1470     1.0  0.12610  0.63006  0.75133  1.0000
  Fe  Fe257     1.0  0.03617  0.59312  0.78137  1.0000
  C   C1475     1.0  0.11603  0.48854  0.72833  1.0000
  H   H1471     1.0  0.10773  0.72226  0.59687  1.0000
  C   C1476     1.0  0.01031  0.58981  0.78101  1.0000
  H   H1472     1.0  0.09060  0.55800  0.77757  1.0000
  H   H1473     1.0  0.15357  0.68703  0.65333  1.0000
  H   H1474     1.0  0.10892  0.64989  0.67008  1.0000
  H   H1475     1.0  0.01469  0.57542  0.76094  1.0000
  C   C1477     1.0  0.10905  0.63821  0.75073  1.0000
  H   H1476     1.0  0.08998  0.56520  0.76342  1.0000
  H   H1477     1.0  0.15657  0.58079  0.74318  1.0000
  H   H1478     1.0  0.09604  0.56714  0.73436  1.0000
  H   H1479     1.0  0.12302  0.60893  0.77284  1.0000
  H   H1480     1.0  0.10316  0.70636  0.61190  1.0000
  H   H1481     1.0  0.13636  0.62384  0.66118  1.0000
  H   H1482     1.0  0.11112  0.64255  0.74215  1.0000
  C   C1478     1.0  0.16346  0.57651  0.73734  1.0000
  H   H1483     1.0  0.16854  0.58260  0.73197  1.0000
  H   H1484     1.0  0.15653  0.55463  0.76207  1.0000
  C   C1479     1.0  0.15059  0.55120  0.76907  1.0000
  C   C1480     1.0  0.09709  0.49931  0.75931  1.0000
  C   C1481     1.0  0.12588  0.69789  0.59231  1.0000
  C   C1482     1.0  0.14753  0.55531  0.77884  1.0000
  C   C1483     1.0  0.11053  0.56292  0.77015  1.0000
  H   H1485     1.0  0.10372  0.63816  0.68869  1.0000
  H   H1486     1.0  0.02511  0.58207  0.77061  1.0000
  H   H1487     1.0  0.12236  0.68836  0.68615  1.0000
  H   H1488     1.0  0.09125  0.64444  0.75240  1.0000
  H   H1489     1.0  0.15940  0.55614  0.74186  1.0000
  H   H1490     1.0  0.13222  0.61859  0.76719  1.0000
  H   H1491     1.0  0.12278  0.61899  0.78040  1.0000
  C   C1484     1.0  0.13486  0.73076  0.63557  1.0000
  C   C1485     1.0  0.10911  0.58514  0.76912  1.0000
  C   C1486     1.0  0.13764  0.67850  0.67865  1.0000
  H   H1492     1.0  0.13699  0.67115  0.68526  1.0000
  H   H1493     1.0  0.10747  0.57707  0.73957  1.0000
  H   H1494     1.0  0.07988  0.60510  0.74089  1.0000
  H   H1495     1.0  0.01933  0.73604  0.61086  1.0000
  C   C1487     1.0  0.99840  0.58208  0.77008  1.0000
  H   H1496     1.0  0.10841  0.59376  0.76913  1.0000
  C   C1488     1.0  0.08689  0.70630  0.59499  1.0000
  H   H1497     1.0  0.15112  0.56187  0.77931  1.0000
  C   C1489     1.0  0.12598  0.64444  0.65347  1.0000
  C   C1490     1.0  0.09042  0.56612  0.77162  1.0000
  C   C1491     1.0  0.12937  0.68825  0.67907  1.0000
  C   C1492     1.0  0.15708  0.56137  0.73428  1.0000
  C   C1493     1.0  0.15561  0.57864  0.72127  1.0000
  C   C1494     1.0  0.15231  0.55706  0.72822  1.0000
  C   C1495     1.0  0.15082  0.57459  0.71500  1.0000
  C   C1496     1.0  0.14925  0.56369  0.71848  1.0000
  H   H1498     1.0  0.11468  0.61885  0.69337  1.0000
  H   H1499     1.0  0.15673  0.58716  0.71857  1.0000
  C   C1497     1.0  0.09177  0.70306  0.60417  1.0000
  H   H1500     1.0  0.14816  0.57992  0.70759  1.0000
  H   H1501     1.0  0.14548  0.56046  0.71373  1.0000
  H   H1502     1.0  0.06544  0.60108  0.72729  1.0000
  C   C1498     1.0  0.08337  0.59674  0.73959  1.0000
  S   S508      1.0  0.12496  0.72300  0.64404  1.0000
  H   H1503     1.0  0.16046  0.72789  0.61801  1.0000
  C   C1499     1.0  0.11750  0.63114  0.75598  1.0000
  H   H1504     1.0  0.10193  0.62162  0.78075  1.0000
  N   N122      1.0  0.15880  0.57199  0.73070  1.0000
  H   H1505     1.0  0.06164  0.60262  0.74150  1.0000
  C   C1500     1.0  0.09961  0.58125  0.76986  1.0000
  H   H1506     1.0  0.07644  0.57624  0.73301  1.0000
  C   C1501     1.0  0.14477  0.72569  0.62921  1.0000
  C   C1502     1.0  0.11378  0.64149  0.67207  1.0000
  C   C1503     1.0  0.11947  0.57777  0.76871  1.0000
  H   H1507     1.0  0.12205  0.50169  0.73092  1.0000
  C   C1504     1.0  0.09927  0.70887  0.60484  1.0000
  C   C1505     1.0  0.08185  0.72645  0.63913  1.0000
  C   C1506     1.0  0.10399  0.62636  0.77235  1.0000
  H   H1508     1.0  0.09940  0.59629  0.74257  1.0000
  C   C1507     1.0  0.13865  0.69709  0.66150  1.0000
  H   H1509     1.0  0.11631  0.70781  0.67959  1.0000
  H   H1510     1.0  0.13906  0.70428  0.65469  1.0000
  H   H1511     1.0  0.15093  0.54863  0.73115  1.0000
  C   C1508     1.0  0.10180  0.71787  0.59632  1.0000
  C   C1509     1.0  0.01013  0.58013  0.76723  1.0000
  C   C1510     1.0  0.14645  0.67809  0.66939  1.0000
  N   N123      1.0  0.12293  0.63754  0.66454  1.0000
  S   S509      1.0  0.09703  0.53304  0.77591  1.0000
  S   S510      1.0  0.12755  0.51736  0.76549  1.0000
  C   C1511     1.0  0.12623  0.62011  0.67755  1.0000
  H   H1512     1.0  0.16904  0.56986  0.74217  1.0000
  H   H1513     1.0  0.08972  0.69611  0.61083  1.0000
  N   N124      1.0  0.10039  0.57021  0.77062  1.0000
  H   H1514     1.0  0.15264  0.67042  0.66872  1.0000
  H   H1515     1.0  0.11407  0.69398  0.58542  1.0000
  H   H1516     1.0  0.09155  0.58702  0.77028  1.0000
  H   H1517     1.0  0.08263  0.57177  0.77489  1.0000
  H   H1518     1.0  0.11544  0.70808  0.66571  1.0000
  H   H1519     1.0  0.08669  0.63386  0.77181  1.0000
  C   C1512     1.0  0.15951  0.72529  0.59193  1.0000
  C   C1513     1.0  0.12027  0.49349  0.73439  1.0000
  H   H1520     1.0  0.12822  0.56084  0.76869  1.0000
  C   C1514     1.0  0.12370  0.61760  0.77199  1.0000
  C   C1515     1.0  0.09791  0.63928  0.75647  1.0000
  C   C1516     1.0  0.13827  0.53833  0.77750  1.0000
  C   C1517     1.0  0.16114  0.73595  0.59081  1.0000
  C   C1518     1.0  0.00524  0.73084  0.60939  1.0000
  C   C1519     1.0  0.06790  0.55424  0.77172  1.0000
  C   C1520     1.0  0.15268  0.73194  0.62267  1.0000
  C   C1521     1.0  0.09021  0.49691  0.74458  1.0000
  C   C1522     1.0  0.09616  0.48848  0.76495  1.0000
  C   C1523     1.0  0.08969  0.71528  0.58654  1.0000
  H   H1521     1.0  0.15752  0.71997  0.60007  1.0000
  H   H1522     1.0  0.11456  0.49299  0.72021  1.0000
  N   N125      1.0  0.09712  0.72088  0.58725  1.0000
  H   H1523     1.0  0.08818  0.49997  0.73646  1.0000
  H   H1524     1.0  0.08095  0.70192  0.59441  1.0000
  H   H1525     1.0  0.10814  0.73507  0.61662  1.0000
  H   H1526     1.0  0.15916  0.71326  0.58324  1.0000
  H   H1527     1.0  0.00758  0.55497  0.78212  1.0000
  Fe  Fe258     1.0  0.22180  0.59636  0.96653  1.0000
  S   S511      1.0  0.23449  0.58039  0.96882  1.0000
  Fe  Fe259     1.0  0.22615  0.59851  0.94115  1.0000
  S   S512      1.0  0.23968  0.58304  0.94173  1.0000
  S   S513      1.0  0.22432  0.60769  0.92365  1.0000
  Fe  Fe260     1.0  0.22763  0.57605  0.95662  1.0000
  S   S514      1.0  0.22429  0.55959  0.95738  1.0000
  Fe  Fe261     1.0  0.24503  0.58907  0.95381  1.0000
  S   S515      1.0  0.26220  0.59017  0.95402  1.0000
  S   S516      1.0  0.21371  0.59124  0.95558  1.0000
  S   S517      1.0  0.23267  0.60532  0.95198  1.0000
  Fe  Fe262     1.0  0.24499  0.53708  0.89998  1.0000
  S   S518      1.0  0.25677  0.54075  0.88363  1.0000
  S   S519      1.0  0.22743  0.53718  0.89971  1.0000
  Fe  Fe263     1.0  0.26274  0.53408  0.91280  1.0000
  S   S520      1.0  0.27605  0.53690  0.89736  1.0000
  S   S521      1.0  0.26662  0.53309  0.92905  1.0000
  Fe  Fe264     1.0  0.26271  0.55122  0.89143  1.0000
  S   S522      1.0  0.26256  0.56956  0.88417  1.0000
  Fe  Fe265     1.0  0.26853  0.52607  0.89138  1.0000
  S   S523      1.0  0.27676  0.51104  0.88369  1.0000
  S   S524      1.0  0.24977  0.54873  0.90714  1.0000
  S   S525      1.0  0.25642  0.52206  0.90750  1.0000
  Fe  Fe266     1.0  0.27173  0.63452  0.88277  1.0000
  S   S526      1.0  0.29019  0.62701  0.87867  1.0000
  S   S527      1.0  0.26055  0.64077  0.87026  1.0000
  Fe  Fe267     1.0  0.27230  0.63319  0.90653  1.0000
  S   S528      1.0  0.29035  0.62469  0.90460  1.0000
  S   S529      1.0  0.26418  0.63727  0.92311  1.0000
  Fe  Fe268     1.0  0.29273  0.63776  0.88894  1.0000
  S   S530      1.0  0.30500  0.64955  0.88478  1.0000
  Fe  Fe269     1.0  0.28602  0.61483  0.89481  1.0000
  S   S531      1.0  0.29082  0.59599  0.89768  1.0000
  S   S532      1.0  0.27455  0.64648  0.89126  1.0000
  S   S533      1.0  0.26762  0.62213  0.89851  1.0000
  Fe  Fe270     1.0  0.21516  0.61196  0.85873  1.0000
  S   S534      1.0  0.19666  0.61532  0.86617  1.0000
  S   S535      1.0  0.22506  0.62551  0.85401  1.0000
  Fe  Fe271     1.0  0.21549  0.58811  0.85928  1.0000
  S   S536      1.0  0.19731  0.58939  0.86738  1.0000
  S   S537      1.0  0.22643  0.57229  0.85505  1.0000
  Fe  Fe272     1.0  0.19479  0.60539  0.85480  1.0000
  S   S538      1.0  0.18122  0.61059  0.84440  1.0000
  Fe  Fe273     1.0  0.20103  0.59896  0.87786  1.0000
  S   S539      1.0  0.19526  0.59629  0.89656  1.0000
  S   S540      1.0  0.21301  0.60368  0.84624  1.0000
  S   S541      1.0  0.21947  0.59606  0.87081  1.0000
  Fe  Fe274     1.0  0.14650  0.58642  0.81238  1.0000
  H   H1528     1.0  0.29691  0.66125  0.92842  1.0000
  S   S542      1.0  0.15564  0.58426  0.82643  1.0000
  Fe  Fe275     1.0  0.12672  0.59528  0.80020  1.0000
  Fe  Fe276     1.0  0.38611  0.73734  0.96983  1.0000
  S   S543      1.0  0.10932  0.60554  0.79881  1.0000
  H   H1529     1.0  0.19636  0.59984  0.81895  1.0000
  H   H1530     1.0  0.10408  0.55776  0.82678  1.0000
  H   H1531     1.0  0.42046  0.71287  0.96337  1.0000
  S   S544      1.0  0.13058  0.58068  0.81403  1.0000
  S   S545      1.0  0.14163  0.60195  0.79974  1.0000
  Fe  Fe277     1.0  0.34161  0.70069  0.91839  1.0000
  S   S546      1.0  0.34983  0.68253  0.91977  1.0000
  S   S547      1.0  0.33598  0.71138  0.93121  1.0000
  Fe  Fe278     1.0  0.34356  0.70449  0.89367  1.0000
  S   S548      1.0  0.35222  0.68683  0.89295  1.0000
  S   S549      1.0  0.33995  0.71667  0.87814  1.0000
  Fe  Fe279     1.0  0.33915  0.68223  0.90822  1.0000
  S   S550      1.0  0.33024  0.66770  0.91132  1.0000
  Fe  Fe280     1.0  0.36195  0.68872  0.90433  1.0000
  S   S551      1.0  0.38089  0.68415  0.90074  1.0000
  S   S552      1.0  0.32992  0.69999  0.90827  1.0000
  S   S553      1.0  0.35430  0.70672  0.90364  1.0000
  C   C1524     1.0  0.00678  0.56359  0.79466  1.0000
  H   H1532     1.0  0.19974  0.57966  0.82753  1.0000
  S   S554      1.0  0.44262  0.73340  0.89829  1.0000
  Fe  Fe281     1.0  0.36787  0.72716  0.96765  1.0000
  S   S555      1.0  0.36825  0.71233  0.96092  1.0000
  C   C1525     1.0  0.25694  0.49563  0.86921  1.0000
  C   C1526     1.0  0.39026  0.73181  0.87150  1.0000
  N   N126      1.0  0.22752  0.63870  0.89279  1.0000
  H   H1533     1.0  0.22323  0.64154  0.87706  1.0000
  Fe  Fe282     1.0  0.42084  0.71450  0.91328  1.0000
  C   C1527     1.0  0.22344  0.62930  0.96910  1.0000
  S   S556      1.0  0.40537  0.70747  0.92214  1.0000
  Fe  Fe283     1.0  0.44541  0.71616  0.90888  1.0000
  S   S557      1.0  0.13546  0.58630  0.78647  1.0000
  S   S558      1.0  0.46307  0.70796  0.91129  1.0000
  H   H1534     1.0  0.34915  0.64974  0.91348  1.0000
  H   H1535     1.0  0.17396  0.59046  0.79327  1.0000
  C   C1528     1.0  0.49572  0.72712  0.89019  1.0000
  S   S559      1.0  0.01764  0.59372  0.78870  1.0000
  S   S560      1.0  0.43046  0.71973  0.92264  1.0000
  S   S561      1.0  0.43608  0.70929  0.90045  1.0000
  Fe  Fe284     1.0  0.06054  0.58784  0.78441  1.0000
  H   H1536     1.0  0.10994  0.53586  0.79796  1.0000
  H   H1537     1.0  0.23525  0.51830  0.87577  1.0000
  C   C1529     1.0  0.09280  0.54482  0.80113  1.0000
  H   H1538     1.0  0.28061  0.65150  0.90895  1.0000
  C   C1530     1.0  0.17180  0.60300  0.88406  1.0000
  H   H1539     1.0  0.28859  0.63811  0.92408  1.0000
  C   C1531     1.0  0.32344  0.73163  0.89768  1.0000
  H   H1540     1.0  0.17530  0.60414  0.79258  1.0000
  H   H1541     1.0  0.49707  0.71307  0.91873  1.0000
  H   H1542     1.0  0.17001  0.62250  0.86181  1.0000
  H   H1543     1.0  0.27848  0.64650  0.93304  1.0000
  H   H1544     1.0  0.37827  0.66110  0.91236  1.0000
  H   H1545     1.0  0.00322  0.57314  0.80711  1.0000
  C   C1532     1.0  0.24253  0.49790  0.90375  1.0000
  C   C1533     1.0  0.23331  0.49247  0.88925  1.0000
  H   H1546     1.0  0.36601  0.73320  0.92181  1.0000
  H   H1547     1.0  0.40750  0.72622  0.88372  1.0000
  C   C1534     1.0  0.23786  0.63379  0.97441  1.0000
  C   C1535     1.0  0.41526  0.70918  0.96061  1.0000
  H   H1548     1.0  0.34528  0.64820  0.89712  1.0000
  S   S562      1.0  0.49011  0.73314  0.92788  1.0000
  C   C1536     1.0  0.48277  0.72565  0.92365  1.0000
  C   C1537     1.0  0.48817  0.71620  0.91929  1.0000
  C   C1538     1.0  0.48200  0.71071  0.91576  1.0000
  C   C1539     1.0  0.47044  0.71473  0.91636  1.0000
  C   C1540     1.0  0.46507  0.72423  0.92063  1.0000
  H   H1549     1.0  0.32664  0.73614  0.92628  1.0000
  H   H1550     1.0  0.21159  0.64250  0.88879  1.0000
  H   H1551     1.0  0.48621  0.70334  0.91249  1.0000
  H   H1552     1.0  0.45618  0.72740  0.92117  1.0000
  C   C1541     1.0  0.36798  0.65927  0.89131  1.0000
  C   C1542     1.0  0.35655  0.65285  0.90868  1.0000
  H   H1553     1.0  0.22655  0.54341  0.94475  1.0000
  C   C1543     1.0  0.41937  0.70486  0.95108  1.0000
  H   H1554     1.0  0.34971  0.72862  0.88822  1.0000
  C   C1544     1.0  0.34544  0.71200  0.93880  1.0000
  C   C1545     1.0  0.34304  0.72081  0.94423  1.0000
  C   C1546     1.0  0.35012  0.72122  0.95077  1.0000
  C   C1547     1.0  0.35950  0.71265  0.95217  1.0000
  C   C1548     1.0  0.36201  0.70396  0.94657  1.0000
  C   C1549     1.0  0.35509  0.70369  0.93982  1.0000
  H   H1555     1.0  0.38234  0.66490  0.89185  1.0000
  C   C1550     1.0  0.18949  0.57612  0.81859  1.0000
  H   H1556     1.0  0.36925  0.69729  0.94759  1.0000
  H   H1557     1.0  0.35699  0.69684  0.93575  1.0000
  C   C1551     1.0  0.38763  0.69081  0.90656  1.0000
  C   C1552     1.0  0.39902  0.69098  0.90229  1.0000
  C   C1553     1.0  0.40449  0.69641  0.90671  1.0000
  C   C1554     1.0  0.39867  0.70143  0.91565  1.0000
  C   C1555     1.0  0.38728  0.70125  0.91990  1.0000
  C   C1556     1.0  0.38175  0.69611  0.91529  1.0000
  H   H1558     1.0  0.40364  0.68693  0.89552  1.0000
  H   H1559     1.0  0.41329  0.69642  0.90341  1.0000
  H   H1560     1.0  0.38269  0.70507  0.92683  1.0000
  H   H1561     1.0  0.37298  0.69604  0.91865  1.0000
  C   C1557     1.0  0.34770  0.72714  0.87260  1.0000
  C   C1558     1.0  0.28717  0.64528  0.92799  1.0000
  C   C1559     1.0  0.22027  0.63798  0.88600  1.0000
  H   H1562     1.0  0.23633  0.64973  0.87988  1.0000
  N   N127      1.0  0.48441  0.73123  0.89252  1.0000
  C   C1560     1.0  0.37290  0.65919  0.90817  1.0000
  H   H1563     1.0  0.26361  0.59728  0.91517  1.0000
  H   H1564     1.0  0.36152  0.65348  0.92324  1.0000
  C   C1561     1.0  0.47119  0.72958  0.92437  1.0000
  H   H1565     1.0  0.28342  0.66810  0.89408  1.0000
  H   H1566     1.0  0.29975  0.67802  0.91385  1.0000
  H   H1567     1.0  0.29320  0.64302  0.93347  1.0000
  H   H1568     1.0  0.22025  0.62914  0.88665  1.0000
  C   C1562     1.0  0.23530  0.64518  0.88843  1.0000
  C   C1563     1.0  0.16974  0.58549  0.88210  1.0000
  H   H1569     1.0  0.40104  0.71239  0.97387  1.0000
  H   H1570     1.0  0.29301  0.68151  0.89651  1.0000
  C   C1564     1.0  0.40432  0.70893  0.96651  1.0000
  C   C1565     1.0  0.37959  0.72871  0.93024  1.0000
  C   C1566     1.0  0.09982  0.59882  0.79675  1.0000
  C   C1567     1.0  0.10289  0.58756  0.79639  1.0000
  C   C1568     1.0  0.09513  0.58225  0.79517  1.0000
  C   C1569     1.0  0.08422  0.58809  0.79424  1.0000
  C   C1570     1.0  0.08127  0.59946  0.79415  1.0000
  C   C1571     1.0  0.08902  0.60479  0.79547  1.0000
  C   C1572     1.0  0.18590  0.59858  0.80882  1.0000
  H   H1571     1.0  0.11243  0.56384  0.81386  1.0000
  Fe  Fe285     1.0  0.43214  0.72694  0.89106  1.0000
  H   H1572     1.0  0.42785  0.70510  0.94637  1.0000
  C   C1573     1.0  0.17431  0.60304  0.83942  1.0000
  C   C1574     1.0  0.16770  0.60884  0.83158  1.0000
  C   C1575     1.0  0.16197  0.60331  0.82748  1.0000
  C   C1576     1.0  0.16260  0.59185  0.83131  1.0000
  C   C1577     1.0  0.16909  0.58608  0.83928  1.0000
  C   C1578     1.0  0.17499  0.59158  0.84322  1.0000
  H   H1573     1.0  0.16700  0.61772  0.82862  1.0000
  H   H1574     1.0  0.15695  0.60794  0.82147  1.0000
  H   H1575     1.0  0.16966  0.57724  0.84234  1.0000
  H   H1576     1.0  0.18002  0.58694  0.84922  1.0000
  C   C1579     1.0  0.31218  0.65428  0.89229  1.0000
  C   C1580     1.0  0.31374  0.64875  0.90297  1.0000
  C   C1581     1.0  0.31935  0.65292  0.90855  1.0000
  C   C1582     1.0  0.32337  0.66278  0.90368  1.0000
  C   C1583     1.0  0.32186  0.66828  0.89298  1.0000
  C   C1584     1.0  0.31641  0.66401  0.88733  1.0000
  H   H1577     1.0  0.31071  0.64119  0.90688  1.0000
  H   H1578     1.0  0.32052  0.64849  0.91677  1.0000
  H   H1579     1.0  0.32489  0.67584  0.88903  1.0000
  H   H1580     1.0  0.31535  0.66836  0.87906  1.0000
  C   C1585     1.0  0.25119  0.63525  0.86629  1.0000
  C   C1586     1.0  0.24775  0.62521  0.87186  1.0000
  C   C1587     1.0  0.23967  0.62191  0.86837  1.0000
  C   C1588     1.0  0.23509  0.62866  0.85931  1.0000
  C   C1589     1.0  0.23865  0.63855  0.85388  1.0000
  C   C1590     1.0  0.24654  0.64181  0.85733  1.0000
  H   H1581     1.0  0.25123  0.62007  0.87884  1.0000
  H   H1582     1.0  0.23703  0.61421  0.87263  1.0000
  H   H1583     1.0  0.23525  0.64381  0.84687  1.0000
  H   H1584     1.0  0.24906  0.64956  0.85298  1.0000
  C   C1591     1.0  0.22545  0.54581  0.88695  1.0000
  C   C1592     1.0  0.23280  0.54345  0.87716  1.0000
  C   C1593     1.0  0.23280  0.55143  0.86721  1.0000
  C   C1594     1.0  0.22554  0.56183  0.86711  1.0000
  C   C1595     1.0  0.21795  0.56404  0.87684  1.0000
  C   C1596     1.0  0.21771  0.55595  0.88669  1.0000
  H   H1585     1.0  0.23880  0.53561  0.87732  1.0000
  H   H1586     1.0  0.23869  0.54969  0.85971  1.0000
  H   H1587     1.0  0.21243  0.57206  0.87690  1.0000
  H   H1588     1.0  0.21189  0.55779  0.89417  1.0000
  C   C1597     1.0  0.27064  0.57674  0.88785  1.0000
  C   C1598     1.0  0.26828  0.58842  0.88514  1.0000
  C   C1599     1.0  0.27447  0.59441  0.88798  1.0000
  C   C1600     1.0  0.28316  0.58876  0.89351  1.0000
  C   C1601     1.0  0.28557  0.57708  0.89613  1.0000
  C   C1602     1.0  0.27932  0.57109  0.89336  1.0000
  H   H1589     1.0  0.26156  0.59289  0.88092  1.0000
  H   H1590     1.0  0.27255  0.60340  0.88587  1.0000
  H   H1591     1.0  0.29228  0.57264  0.90038  1.0000
  H   H1592     1.0  0.28126  0.56210  0.89545  1.0000
  C   C1603     1.0  0.26792  0.50561  0.87903  1.0000
  C   C1604     1.0  0.26284  0.51188  0.87026  1.0000
  C   C1605     1.0  0.25743  0.50688  0.86534  1.0000
  H   H1593     1.0  0.19054  0.56738  0.82260  1.0000
  H   H1594     1.0  0.26348  0.52047  0.86694  1.0000
  H   H1595     1.0  0.25377  0.51175  0.85838  1.0000
  C   C1606     1.0  0.26361  0.60294  0.94512  1.0000
  C   C1607     1.0  0.26921  0.60983  0.94731  1.0000
  C   C1608     1.0  0.26918  0.62057  0.94071  1.0000
  C   C1609     1.0  0.26377  0.62422  0.93182  1.0000
  C   C1610     1.0  0.25846  0.61720  0.92949  1.0000
  C   C1611     1.0  0.25826  0.60663  0.93622  1.0000
  H   H1596     1.0  0.27331  0.60698  0.95423  1.0000
  H   H1597     1.0  0.27347  0.62594  0.94240  1.0000
  H   H1598     1.0  0.25434  0.61996  0.92259  1.0000
  H   H1599     1.0  0.25389  0.60132  0.93455  1.0000
  C   C1612     1.0  0.21628  0.60416  0.91636  1.0000
  C   C1613     1.0  0.21907  0.60654  0.90472  1.0000
  C   C1614     1.0  0.21271  0.60416  0.89860  1.0000
  C   C1615     1.0  0.20350  0.59930  0.90405  1.0000
  C   C1616     1.0  0.20076  0.59683  0.91570  1.0000
  C   C1617     1.0  0.20710  0.59927  0.92184  1.0000
  H   H1600     1.0  0.22623  0.61018  0.90038  1.0000
  H   H1601     1.0  0.21488  0.60621  0.88966  1.0000
  H   H1602     1.0  0.19365  0.59310  0.92001  1.0000
  H   H1603     1.0  0.20480  0.59746  0.93080  1.0000
  C   C1618     1.0  0.23611  0.55169  0.95009  1.0000
  C   C1619     1.0  0.24684  0.55285  0.94971  1.0000
  C   C1620     1.0  0.25625  0.54673  0.94361  1.0000
  C   C1621     1.0  0.25490  0.53988  0.93747  1.0000
  C   C1622     1.0  0.24417  0.53882  0.93774  1.0000
  C   C1623     1.0  0.23480  0.54449  0.94430  1.0000
  H   H1604     1.0  0.24790  0.55831  0.95428  1.0000
  H   H1605     1.0  0.26455  0.54750  0.94347  1.0000
  H   H1606     1.0  0.24312  0.53345  0.93307  1.0000
  S   S563      1.0  0.42916  0.73294  0.87383  1.0000
  H   H1607     1.0  0.37644  0.72192  0.93633  1.0000
  C   C1624     1.0  0.10387  0.56250  0.81817  1.0000
  H   H1608     1.0  0.39426  0.72610  0.93669  1.0000
  H   H1609     1.0  0.36964  0.66127  0.88232  1.0000
  C   C1625     1.0  0.25437  0.60650  0.84948  1.0000
  N   N128      1.0  0.23432  0.50317  0.88781  1.0000
  H   H1610     1.0  0.25010  0.59086  0.90911  1.0000
  H   H1611     1.0  0.17076  0.57654  0.88484  1.0000
  N   N129      1.0  0.39145  0.72618  0.88196  1.0000
  C   C1626     1.0  0.38652  0.71732  0.88716  1.0000
  H   H1612     1.0  0.17825  0.57536  0.80916  1.0000
  C   C1627     1.0  0.38022  0.71386  0.88188  1.0000
  H   H1613     1.0  0.24875  0.63235  0.95400  1.0000
  C   C1628     1.0  0.37896  0.71955  0.87122  1.0000
  N   N130      1.0  0.35884  0.65502  0.89734  1.0000
  H   H1614     1.0  0.38745  0.71287  0.89544  1.0000
  S   S564      1.0  0.41639  0.73159  0.90328  1.0000
  H   H1615     1.0  0.37638  0.70678  0.88603  1.0000
  H   H1616     1.0  0.23938  0.51451  0.89396  1.0000
  C   C1629     1.0  0.35136  0.73173  0.87935  1.0000
  H   H1617     1.0  0.34810  0.72796  0.95503  1.0000
  C   C1630     1.0  0.37519  0.66133  0.89663  1.0000
  H   H1618     1.0  0.35587  0.64922  0.88458  1.0000
  N   N131      1.0  0.40167  0.70020  0.95338  1.0000
  C   C1631     1.0  0.39757  0.70448  0.96271  1.0000
  C   C1632     1.0  0.41242  0.70036  0.94756  1.0000
  C   C1633     1.0  0.39425  0.69607  0.94929  1.0000
  H   H1619     1.0  0.38900  0.70454  0.96724  1.0000
  H   H1620     1.0  0.41568  0.69708  0.94009  1.0000
  H   H1621     1.0  0.38906  0.70317  0.94449  1.0000
  H   H1622     1.0  0.39904  0.69023  0.94377  1.0000
  H   H1623     1.0  0.38854  0.69167  0.95626  1.0000
  C   C1634     1.0  0.22626  0.63303  0.90359  1.0000
  C   C1635     1.0  0.24233  0.64578  0.89483  1.0000
  C   C1636     1.0  0.23316  0.63342  0.91023  1.0000
  C   C1637     1.0  0.24126  0.63984  0.90579  1.0000
  H   H1624     1.0  0.21993  0.62808  0.90714  1.0000
  H   H1625     1.0  0.24873  0.65064  0.89117  1.0000
  H   H1626     1.0  0.23228  0.62867  0.91871  1.0000
  H   H1627     1.0  0.24676  0.64013  0.91079  1.0000
  N   N132      1.0  0.22542  0.56974  0.90975  1.0000
  C   C1638     1.0  0.22598  0.57612  0.91647  1.0000
  C   C1639     1.0  0.22033  0.56089  0.91410  1.0000
  C   C1640     1.0  0.22135  0.57369  0.92784  1.0000
  C   C1641     1.0  0.21559  0.55826  0.92541  1.0000
  C   C1642     1.0  0.21600  0.56480  0.93228  1.0000
  C   C1643     1.0  0.22969  0.57279  0.89774  1.0000
  H   H1628     1.0  0.22988  0.58321  0.91304  1.0000
  H   H1629     1.0  0.21994  0.55577  0.90886  1.0000
  H   H1630     1.0  0.22176  0.57875  0.93320  1.0000
  H   H1631     1.0  0.21168  0.55116  0.92882  1.0000
  H   H1632     1.0  0.21227  0.56291  0.94107  1.0000
  H   H1633     1.0  0.22305  0.57891  0.89383  1.0000
  H   H1634     1.0  0.23718  0.57644  0.89580  1.0000
  H   H1635     1.0  0.23232  0.56540  0.89394  1.0000
  N   N133      1.0  0.28864  0.65538  0.91948  1.0000
  C   C1644     1.0  0.29370  0.66283  0.92102  1.0000
  C   C1645     1.0  0.28465  0.65740  0.91011  1.0000
  C   C1646     1.0  0.29525  0.67240  0.91284  1.0000
  C   C1647     1.0  0.28607  0.66687  0.90175  1.0000
  C   C1648     1.0  0.29147  0.67437  0.90312  1.0000
  C   C1649     1.0  0.21587  0.63167  0.97879  1.0000
  S   S565      1.0  0.40451  0.73489  0.96835  1.0000
  H   H1636     1.0  0.37394  0.71707  0.86709  1.0000
  N   N134      1.0  0.23425  0.63048  0.96697  1.0000
  C   C1650     1.0  0.38402  0.72858  0.86597  1.0000
  H   H1637     1.0  0.29250  0.49725  0.86630  1.0000
  C   C1651     1.0  0.08520  0.55309  0.80617  1.0000
  C   C1652     1.0  0.25626  0.58486  0.91333  1.0000
  Fe  Fe286     1.0  0.42712  0.73648  0.91139  1.0000
  H   H1638     1.0  0.23093  0.50824  0.87158  1.0000
  C   C1653     1.0  0.23020  0.51179  0.87881  1.0000
  N   N135      1.0  0.18103  0.59173  0.80603  1.0000
  H   H1639     1.0  0.26576  0.55702  0.92130  1.0000
  H   H1640     1.0  0.15740  0.62456  0.87244  1.0000
  Fe  Fe287     1.0  0.15061  0.59146  0.78721  1.0000
  C   C1654     1.0  0.36352  0.65493  0.91426  1.0000
  H   H1641     1.0  0.11123  0.58291  0.79719  1.0000
  H   H1642     1.0  0.26115  0.56692  0.86191  1.0000
  H   H1643     1.0  0.22134  0.51575  0.88178  1.0000
  C   C1655     1.0  0.26716  0.49444  0.88312  1.0000
  C   C1656     1.0  0.08893  0.55873  0.81190  1.0000
  H   H1644     1.0  0.17646  0.58727  0.89508  1.0000
  Fe  Fe288     1.0  0.13995  0.57193  0.80012  1.0000
  H   H1645     1.0  0.25136  0.57052  0.91196  1.0000
  H   H1646     1.0  0.18423  0.60744  0.80534  1.0000
  H   H1647     1.0  0.08299  0.56533  0.81556  1.0000
  H   H1648     1.0  0.27895  0.59388  0.92304  1.0000
  H   H1649     1.0  0.11615  0.54616  0.80820  1.0000
  H   H1650     1.0  0.08654  0.61350  0.79578  1.0000
  S   S566      1.0  0.07443  0.58061  0.79409  1.0000
  H   H1651     1.0  0.24619  0.50015  0.90931  1.0000
  C   C1657     1.0  0.32584  0.73175  0.90763  1.0000
  S   S567      1.0  0.15611  0.57617  0.79965  1.0000
  C   C1658     1.0  0.18262  0.58066  0.81092  1.0000
  C   C1659     1.0  0.26504  0.56588  0.92021  1.0000
  C   C1660     1.0  0.19278  0.59433  0.81650  1.0000
  C   C1661     1.0  0.25310  0.57232  0.86012  1.0000
  H   H1652     1.0  0.24655  0.57133  0.86788  1.0000
  H   H1653     1.0  0.25089  0.56927  0.85386  1.0000
  H   H1654     1.0  0.13004  0.53831  0.79451  1.0000
  H   H1655     1.0  0.07289  0.60407  0.79347  1.0000
  H   H1656     1.0  0.33556  0.72725  0.94356  1.0000
  C   C1662     1.0  0.17336  0.59639  0.79843  1.0000
  H   H1657     1.0  0.22071  0.62606  0.96355  1.0000
  H   H1658     1.0  0.23952  0.58840  0.84898  1.0000
  H   H1659     1.0  0.26805  0.58206  0.86281  1.0000
  N   N136      1.0  0.25381  0.58404  0.85615  1.0000
  C   C1663     1.0  0.26187  0.58778  0.85842  1.0000
  C   C1664     1.0  0.24600  0.59131  0.85066  1.0000
  H   H1660     1.0  0.24655  0.63421  0.97302  1.0000
  C   C1665     1.0  0.24620  0.60262  0.84719  1.0000
  H   H1661     1.0  0.23994  0.60838  0.84290  1.0000
  C   C1666     1.0  0.26225  0.59906  0.85516  1.0000
  C   C1667     1.0  0.38953  0.73113  0.93051  1.0000
  H   H1662     1.0  0.17086  0.62387  0.87502  1.0000
  H   H1663     1.0  0.09002  0.54037  0.79666  1.0000
  H   H1664     1.0  0.26855  0.60201  0.85713  1.0000
  C   C1668     1.0  0.25691  0.57348  0.91498  1.0000
  H   H1665     1.0  0.25449  0.61529  0.84698  1.0000
  S   S568      1.0  0.04687  0.60339  0.78394  1.0000
  C   C1669     1.0  0.19462  0.58301  0.82137  1.0000
  C   C1670     1.0  0.27242  0.56976  0.92377  1.0000
  C   C1671     1.0  0.26389  0.58845  0.91685  1.0000
  H   H1666     1.0  0.27876  0.56378  0.92777  1.0000
  C   C1672     1.0  0.10399  0.54230  0.80186  1.0000
  C   C1673     1.0  0.24227  0.62726  0.95715  1.0000
  C   C1674     1.0  0.10744  0.54815  0.80761  1.0000
  H   H1667     1.0  0.17445  0.60754  0.88852  1.0000
  N   N137      1.0  0.27184  0.58092  0.92198  1.0000
  H   H1668     1.0  0.16301  0.58646  0.86807  1.0000
  H   H1669     1.0  0.34688  0.72787  0.85590  1.0000
  H   H1670     1.0  0.46694  0.73688  0.92775  1.0000
  H   H1671     1.0  0.16110  0.60680  0.86178  1.0000
  N   N138      1.0  0.09998  0.55638  0.81236  1.0000
  S   S569      1.0  0.13594  0.55564  0.80046  1.0000
  C   C1675     1.0  0.27996  0.58470  0.92547  1.0000
  H   H1672     1.0  0.27892  0.58217  0.93462  1.0000
  H   H1673     1.0  0.09769  0.57361  0.79471  1.0000
  H   H1674     1.0  0.28861  0.58110  0.92138  1.0000
  C   C1676     1.0  0.16542  0.59104  0.87270  1.0000
  H   H1675     1.0  0.09836  0.57088  0.81841  1.0000
  C   C1677     1.0  0.16436  0.60255  0.86917  1.0000
  C   C1678     1.0  0.17291  0.59150  0.88785  1.0000
  H   H1676     1.0  0.34610  0.66160  0.88820  1.0000
  H   H1677     1.0  0.07651  0.55531  0.80547  1.0000
  C   C1679     1.0  0.16640  0.62042  0.87086  1.0000
  N   N139      1.0  0.16766  0.60835  0.87476  1.0000
  C   C1680     1.0  0.35117  0.65340  0.89152  1.0000
  H   H1678     1.0  0.16464  0.59823  0.80328  1.0000
  H   H1679     1.0  0.46824  0.72833  0.89389  1.0000
  C   C1681     1.0  0.39853  0.72932  0.88735  1.0000
  C   C1682     1.0  0.99973  0.56921  0.80274  1.0000
  C   C1683     1.0  0.14002  0.55075  0.78805  1.0000
  H   H1680     1.0  0.47960  0.71713  0.89099  1.0000
  C   C1684     1.0  0.13555  0.54214  0.78737  1.0000
  C   C1685     1.0  0.47702  0.72636  0.88917  1.0000
  H   H1681     1.0  0.23786  0.60372  0.97538  1.0000
  H   H1682     1.0  0.23808  0.62844  0.95025  1.0000
  H   H1683     1.0  0.24647  0.61835  0.95926  1.0000
  C   C1686     1.0  0.37376  0.73504  0.92207  1.0000
  H   H1684     1.0  0.39703  0.72575  0.89642  1.0000
  H   H1685     1.0  0.47717  0.72950  0.88019  1.0000
  C   C1687     1.0  0.23872  0.50599  0.89501  1.0000
  H   H1686     1.0  0.32503  0.72468  0.91451  1.0000
  C   C1688     1.0  0.34973  0.73134  0.86115  1.0000
  H   H1687     1.0  0.32096  0.72450  0.89681  1.0000
  C   C1689     1.0  0.29156  0.48871  0.86808  1.0000
  H   H1688     1.0  0.42632  0.73104  0.95368  1.0000
  H   H1689     1.0  0.22985  0.49023  0.88353  1.0000
  H   H1690     1.0  0.38295  0.73317  0.85774  1.0000
  C   C1690     1.0  0.00221  0.55899  0.78871  1.0000
  S   S570      1.0  0.04914  0.57728  0.78391  1.0000
  H   H1691     1.0  0.01573  0.56317  0.79273  1.0000
  H   H1692     1.0  0.28467  0.49112  0.85390  1.0000
  C   C1691     1.0  0.42052  0.73715  0.94913  1.0000
  S   S571      1.0  0.25024  0.48968  0.86257  1.0000
  H   H1693     1.0  0.27106  0.48954  0.88992  1.0000
  H   H1694     1.0  0.20746  0.63024  0.98065  1.0000
  C   C1692     1.0  0.26170  0.48946  0.87824  1.0000
  H   H1695     1.0  0.34098  0.73563  0.91894  1.0000
  H   H1696     1.0  0.07458  0.54316  0.78544  1.0000
  C   C1693     1.0  0.99855  0.59201  0.78369  1.0000
  S   S572      1.0  0.37696  0.72461  0.98122  1.0000
  H   H1697     1.0  0.43230  0.73781  0.93338  1.0000
  H   H1698     1.0  0.25360  0.57731  0.97907  1.0000
  S   S573      1.0  0.21414  0.60356  0.98187  1.0000
  H   H1699     1.0  0.27040  0.58513  0.97503  1.0000
  Fe  Fe289     1.0  0.39189  0.76446  0.15134  1.0000
  S   S574      1.0  0.39066  0.78240  0.14287  1.0000
  S   S575      1.0  0.40857  0.75432  0.15414  1.0000
  Fe  Fe290     1.0  0.36754  0.76513  0.15347  1.0000
  S   S576      1.0  0.36415  0.78347  0.14596  1.0000
  S   S577      1.0  0.35385  0.75529  0.15876  1.0000
  Fe  Fe291     1.0  0.37992  0.77884  0.13343  1.0000
  S   S578      1.0  0.38148  0.78414  0.11478  1.0000
  Fe  Fe292     1.0  0.37523  0.78524  0.15637  1.0000
  S   S579      1.0  0.37073  0.79897  0.16651  1.0000
  S   S580      1.0  0.38282  0.76059  0.14066  1.0000
  S   S581      1.0  0.37694  0.76718  0.16511  1.0000
  Fe  Fe293     1.0  0.40252  0.75445  0.05522  1.0000
  H   H1700     1.0  0.40772  0.77369  0.11632  1.0000
  H   H1701     1.0  0.34611  0.74690  0.04483  1.0000
  C   C1694     1.0  0.36940  0.83060  0.16074  1.0000
  S   S582      1.0  0.38639  0.76725  0.05599  1.0000
  H   H1702     1.0  0.36980  0.74424  0.03696  1.0000
  Fe  Fe294     1.0  0.37978  0.75429  0.07014  1.0000
  S   S583      1.0  0.36915  0.75659  0.08707  1.0000
  Fe  Fe295     1.0  0.38278  0.75841  0.04473  1.0000
  S   S584      1.0  0.37490  0.76637  0.02983  1.0000
  C   C1695     1.0  0.48714  0.74912  0.11143  1.0000
  C   C1696     1.0  0.36675  0.75594  0.00641  1.0000
  S   S585      1.0  0.43892  0.75544  0.10645  1.0000
  C   C1697     1.0  0.37122  0.75803  0.02298  1.0000
  H   H1703     1.0  0.33447  0.74637  0.11865  1.0000
  H   H1704     1.0  0.39298  0.75015  0.99861  1.0000
  H   H1705     1.0  0.33652  0.74367  0.16639  1.0000
  H   H1706     1.0  0.43955  0.76503  0.12418  1.0000
  H   H1707     1.0  0.35882  0.77337  0.06366  1.0000
  C   C1698     1.0  0.40420  0.76267  0.10390  1.0000
  H   H1708     1.0  0.46881  0.74220  0.13462  1.0000
  C   C1699     1.0  0.41100  0.77730  0.10748  1.0000
  C   C1700     1.0  0.38985  0.80182  0.17150  1.0000
  C   C1701     1.0  0.37008  0.76218  0.01194  1.0000
  H   H1709     1.0  0.41979  0.77777  0.10666  1.0000
  H   H1710     1.0  0.40505  0.83931  0.15389  1.0000
  C   C1702     1.0  0.33478  0.76231  0.13576  1.0000
  H   H1711     1.0  0.43510  0.75385  0.06844  1.0000
  C   C1703     1.0  0.41688  0.75517  0.14079  1.0000
  C   C1704     1.0  0.42593  0.76042  0.13752  1.0000
  C   C1705     1.0  0.43242  0.76116  0.12668  1.0000
  C   C1706     1.0  0.42995  0.75642  0.11929  1.0000
  C   C1707     1.0  0.42086  0.75124  0.12260  1.0000
  C   C1708     1.0  0.41422  0.75076  0.13328  1.0000
  C   C1709     1.0  0.34602  0.76766  0.11795  1.0000
  C   C1710     1.0  0.37816  0.80341  0.17403  1.0000
  H   H1712     1.0  0.40424  0.80576  0.17422  1.0000
  C   C1711     1.0  0.41509  0.76693  0.08182  1.0000
  C   C1712     1.0  0.37859  0.77596  0.10720  1.0000
  C   C1713     1.0  0.38041  0.77927  0.09560  1.0000
  C   C1714     1.0  0.37809  0.77307  0.08931  1.0000
  C   C1715     1.0  0.37379  0.76354  0.09457  1.0000
  C   C1716     1.0  0.37230  0.76001  0.10614  1.0000
  C   C1717     1.0  0.37470  0.76618  0.11243  1.0000
  H   H1713     1.0  0.38353  0.78675  0.09146  1.0000
  H   H1714     1.0  0.37931  0.77587  0.08040  1.0000
  H   H1715     1.0  0.36908  0.75259  0.11028  1.0000
  H   H1716     1.0  0.37334  0.76344  0.12134  1.0000
  H   H1717     1.0  0.40649  0.82632  0.16413  1.0000
  C   C1718     1.0  0.46821  0.75578  0.10870  1.0000
  H   H1718     1.0  0.35141  0.77298  0.11227  1.0000
  H   H1719     1.0  0.47620  0.76416  0.11580  1.0000
  H   H1720     1.0  0.33943  0.78489  0.13131  1.0000
  H   H1721     1.0  0.36450  0.74546  0.13864  1.0000
  H   H1722     1.0  0.39970  0.76112  0.11248  1.0000
  N   N140      1.0  0.34206  0.76861  0.12875  1.0000
  S   S586      1.0  0.37458  0.74678  0.05895  1.0000
  C   C1719     1.0  0.34428  0.74328  0.06258  1.0000
  N   N141      1.0  0.39006  0.83345  0.16149  1.0000
  C   C1720     1.0  0.38949  0.82728  0.15457  1.0000
  C   C1721     1.0  0.36891  0.74758  0.02848  1.0000
  H   H1723     1.0  0.34906  0.75977  0.07665  1.0000
  H   H1724     1.0  0.38686  0.74226  0.99336  1.0000
  C   C1722     1.0  0.34967  0.75984  0.05031  1.0000
  H   H1725     1.0  0.42788  0.76394  0.14333  1.0000
  C   C1723     1.0  0.35085  0.74556  0.15301  1.0000
  C   C1724     1.0  0.34343  0.75962  0.11413  1.0000
  H   H1726     1.0  0.39967  0.74225  0.01576  1.0000
  C   C1725     1.0  0.39523  0.80688  0.17650  1.0000
  H   H1727     1.0  0.32626  0.74916  0.13780  1.0000
  C   C1726     1.0  0.40104  0.83466  0.16198  1.0000
  H   H1728     1.0  0.35164  0.76472  0.04194  1.0000
  N   N142      1.0  0.41052  0.77058  0.10010  1.0000
  H   H1729     1.0  0.40041  0.83907  0.16855  1.0000
  Fe  Fe296     1.0  0.36433  0.73931  0.98661  1.0000
  H   H1730     1.0  0.41928  0.76874  0.07315  1.0000
  H   H1731     1.0  0.39708  0.82315  0.14968  1.0000
  C   C1727     1.0  0.35428  0.77369  0.05726  1.0000
  H   H1732     1.0  0.36588  0.75927  0.99792  1.0000
  H   H1733     1.0  0.35396  0.77775  0.12838  1.0000
  H   H1734     1.0  0.37175  0.77029  0.00765  1.0000
  H   H1735     1.0  0.36143  0.82900  0.16082  1.0000
  H   H1736     1.0  0.39475  0.79697  0.16542  1.0000
  C   C1728     1.0  0.40320  0.75667  0.09674  1.0000
  N   N143      1.0  0.35066  0.76328  0.05912  1.0000
  C   C1729     1.0  0.33633  0.75288  0.12134  1.0000
  C   C1730     1.0  0.37004  0.83696  0.16771  1.0000
  H   H1737     1.0  0.41907  0.74736  0.11699  1.0000
  H   H1738     1.0  0.34693  0.78076  0.05744  1.0000
  C   C1731     1.0  0.35715  0.74217  0.14317  1.0000
  C   C1732     1.0  0.33174  0.75442  0.13213  1.0000
  C   C1733     1.0  0.41596  0.77273  0.08922  1.0000
  S   S587      1.0  0.41852  0.75834  0.05547  1.0000
  H   H1739     1.0  0.40581  0.78578  0.10542  1.0000
  H   H1740     1.0  0.33156  0.76311  0.14432  1.0000
  H   H1741     1.0  0.37216  0.74202  0.17167  1.0000
  C   C1734     1.0  0.34532  0.77672  0.13271  1.0000
  H   H1742     1.0  0.34337  0.74194  0.07987  1.0000
  H   H1743     1.0  0.39201  0.74123  0.16178  1.0000
  C   C1735     1.0  0.40869  0.75883  0.08563  1.0000
  C   C1736     1.0  0.47711  0.75712  0.11224  1.0000
  H   H1744     1.0  0.34708  0.75851  0.10570  1.0000
  H   H1745     1.0  0.42097  0.77900  0.08620  1.0000
  S   S588      1.0  0.39966  0.74691  0.04266  1.0000
  H   H1746     1.0  0.34534  0.77391  0.14171  1.0000
  H   H1747     1.0  0.36021  0.77523  0.04910  1.0000
  H   H1748     1.0  0.46030  0.76180  0.10938  1.0000
  C   C1737     1.0  0.38051  0.83828  0.16801  1.0000
  C   C1738     1.0  0.42678  0.74588  0.06129  1.0000
  C   C1739     1.0  0.43397  0.74603  0.06774  1.0000
  C   C1740     1.0  0.39352  0.74162  0.99770  1.0000
  C   C1741     1.0  0.36420  0.74561  0.01196  1.0000
  H   H1749     1.0  0.40794  0.75434  0.07992  1.0000
  C   C1742     1.0  0.34817  0.75711  0.06967  1.0000
  H   H1750     1.0  0.37878  0.82034  0.14908  1.0000
  C   C1743     1.0  0.34655  0.74975  0.05189  1.0000
  C   C1744     1.0  0.37204  0.80977  0.18202  1.0000
  C   C1745     1.0  0.36518  0.74153  0.02307  1.0000
  C   C1746     1.0  0.34142  0.74119  0.15877  1.0000
  C   C1747     1.0  0.37917  0.82574  0.15410  1.0000
  S   S589      1.0  0.39608  0.74197  0.06998  1.0000
  C   C1748     1.0  0.34500  0.74700  0.07155  1.0000
  H   H1751     1.0  0.39796  0.75061  0.09974  1.0000
  H   H1752     1.0  0.49394  0.75010  0.11441  1.0000
  C   C1749     1.0  0.46948  0.74657  0.10433  1.0000
  H   H1753     1.0  0.46260  0.74550  0.10156  1.0000
  N   N144      1.0  0.48819  0.73994  0.10742  1.0000
  H   H1754     1.0  0.38098  0.84281  0.17382  1.0000
  H   H1755     1.0  0.40724  0.74667  0.13580  1.0000
  C   C1750     1.0  0.47957  0.73866  0.10376  1.0000
  S   S590      1.0  0.49035  0.73922  0.13909  1.0000
  H   H1756     1.0  0.43267  0.74011  0.15592  1.0000
  H   H1757     1.0  0.36254  0.84045  0.17318  1.0000
  H   H1758     1.0  0.40176  0.73867  0.99242  1.0000
  H   H1759     1.0  0.40882  0.83205  0.27033  1.0000
  Fe  Fe297     1.0  0.40196  0.92053  0.24782  1.0000
  S   S591      1.0  0.40715  0.92904  0.23009  1.0000
  S   S592      1.0  0.41400  0.91496  0.25910  1.0000
  Fe  Fe298     1.0  0.37861  0.92158  0.24558  1.0000
  S   S593      1.0  0.38184  0.93030  0.22773  1.0000
  S   S594      1.0  0.36267  0.91562  0.25318  1.0000
  Fe  Fe299     1.0  0.39819  0.91778  0.22658  1.0000
  S   S595      1.0  0.40575  0.90651  0.21434  1.0000
  Fe  Fe300     1.0  0.39037  0.94055  0.23328  1.0000
  S   S596      1.0  0.38705  0.95941  0.22948  1.0000
  S   S597      1.0  0.39438  0.90850  0.24414  1.0000
  S   S598      1.0  0.38570  0.93265  0.25134  1.0000
  Fe  Fe301     1.0  0.47464  0.85480  0.26191  1.0000
  S   S599      1.0  0.47194  0.85579  0.24502  1.0000
  Fe  Fe302     1.0  0.44971  0.86227  0.27120  1.0000
  S   S600      1.0  0.44508  0.86435  0.25508  1.0000
  S   S601      1.0  0.43595  0.86653  0.28562  1.0000
  Fe  Fe303     1.0  0.45708  0.84812  0.25405  1.0000
  S   S602      1.0  0.45149  0.83469  0.24995  1.0000
  Fe  Fe304     1.0  0.46014  0.87180  0.24771  1.0000
  S   S603      1.0  0.45875  0.88757  0.23500  1.0000
  S   S604      1.0  0.46094  0.84543  0.27082  1.0000
  S   S605      1.0  0.46370  0.87137  0.26392  1.0000
  S   S606      1.0  0.13582  0.75988  0.36695  1.0000
  H   H1760     1.0  0.09995  0.73859  0.36158  1.0000
  H   H1761     1.0  0.43036  0.89473  0.21457  1.0000
  C   C1751     1.0  0.27155  0.90613  0.37319  1.0000
  H   H1762     1.0  0.48504  0.89986  0.25536  1.0000
  H   H1763     1.0  0.40040  0.87462  0.27160  1.0000
  C   C1752     1.0  0.39145  0.97616  0.26423  1.0000
  H   H1764     1.0  0.40411  0.89966  0.29295  1.0000
  C   C1753     1.0  0.31230  0.83275  0.33250  1.0000
  C   C1754     1.0  0.23665  0.91281  0.35885  1.0000
  H   H1765     1.0  0.49546  0.83421  0.28921  1.0000
  H   H1766     1.0  0.41562  0.87595  0.19748  1.0000
  H   H1767     1.0  0.45928  0.86374  0.28928  1.0000
  H   H1768     1.0  0.43877  0.81285  0.23363  1.0000
  H   H1769     1.0  0.22016  0.91764  0.37519  1.0000
  Fe  Fe305     1.0  0.28863  0.85993  0.36633  1.0000
  S   S607      1.0  0.29703  0.85683  0.34911  1.0000
  C   C1755     1.0  0.24668  0.89044  0.36122  1.0000
  S   S608      1.0  0.27475  0.87515  0.36589  1.0000
  C   C1756     1.0  0.42998  0.81852  0.25277  1.0000
  Fe  Fe306     1.0  0.36466  0.87025  0.30101  1.0000
  S   S609      1.0  0.37286  0.85619  0.31286  1.0000
  S   S610      1.0  0.36421  0.88765  0.30156  1.0000
  Fe  Fe307     1.0  0.35903  0.85510  0.28989  1.0000
  S   S611      1.0  0.36655  0.83973  0.30104  1.0000
  S   S612      1.0  0.35171  0.85510  0.27584  1.0000
  Fe  Fe308     1.0  0.35797  0.84907  0.31466  1.0000
  S   S613      1.0  0.34920  0.84137  0.33177  1.0000
  Fe  Fe309     1.0  0.38055  0.84846  0.29805  1.0000
  S   S614      1.0  0.39841  0.84013  0.29202  1.0000
  S   S615      1.0  0.34927  0.86379  0.30371  1.0000
  S   S616      1.0  0.37354  0.86320  0.28601  1.0000
  Fe  Fe310     1.0  0.39020  0.85335  0.20956  1.0000
  S   S617      1.0  0.39879  0.84604  0.22373  1.0000
  S   S618      1.0  0.38293  0.87192  0.20623  1.0000
  Fe  Fe311     1.0  0.39518  0.83093  0.20216  1.0000
  S   S619      1.0  0.40453  0.82228  0.21590  1.0000
  C   C1757     1.0  0.33200  0.82913  0.32282  1.0000
  Fe  Fe312     1.0  0.39036  0.83197  0.22667  1.0000
  S   S620      1.0  0.38466  0.82388  0.24452  1.0000
  Fe  Fe313     1.0  0.41208  0.83722  0.21180  1.0000
  S   S621      1.0  0.43042  0.83651  0.21016  1.0000
  S   S622      1.0  0.38045  0.83987  0.21338  1.0000
  S   S623      1.0  0.40404  0.84530  0.19720  1.0000
  C   C1758     1.0  0.47871  0.84413  0.29264  1.0000
  H   H1770     1.0  0.42123  0.88999  0.20239  1.0000
  H   H1771     1.0  0.14067  0.75094  0.34809  1.0000
  C   C1759     1.0  0.49431  0.84631  0.29852  1.0000
  H   H1772     1.0  0.27879  0.92007  0.36352  1.0000
  H   H1773     1.0  0.31546  0.83113  0.34018  1.0000
  C   C1760     1.0  0.36069  0.84635  0.26712  1.0000
  C   C1761     1.0  0.36018  0.84862  0.25592  1.0000
  C   C1762     1.0  0.36767  0.84191  0.24882  1.0000
  C   C1763     1.0  0.37531  0.83262  0.25304  1.0000
  C   C1764     1.0  0.37554  0.83017  0.26430  1.0000
  C   C1765     1.0  0.36844  0.83715  0.27125  1.0000
  H   H1774     1.0  0.35413  0.85568  0.25270  1.0000
  H   H1775     1.0  0.36734  0.84374  0.24017  1.0000
  H   H1776     1.0  0.38130  0.82289  0.26765  1.0000
  H   H1777     1.0  0.36883  0.83523  0.27986  1.0000
  C   C1766     1.0  0.31171  0.85372  0.34483  1.0000
  C   C1767     1.0  0.31660  0.85730  0.33364  1.0000
  C   C1768     1.0  0.32814  0.85383  0.32962  1.0000
  C   C1769     1.0  0.33484  0.84655  0.33671  1.0000
  C   C1770     1.0  0.32997  0.84304  0.34793  1.0000
  C   C1771     1.0  0.31846  0.84674  0.35203  1.0000
  H   H1778     1.0  0.31139  0.86259  0.32802  1.0000
  H   H1779     1.0  0.33174  0.85647  0.32096  1.0000
  H   H1780     1.0  0.33510  0.83738  0.35346  1.0000
  H   H1781     1.0  0.31472  0.84381  0.36064  1.0000
  H   H1782     1.0  0.42172  0.86161  0.20195  1.0000
  H   H1783     1.0  0.43895  0.81522  0.25149  1.0000
  S   S624      1.0  0.49244  0.84992  0.26447  1.0000
  C   C1772     1.0  0.37743  0.81471  0.18713  1.0000
  H   H1784     1.0  0.36301  0.81110  0.18411  1.0000
  H   H1785     1.0  0.44893  0.86088  0.22074  1.0000
  C   C1773     1.0  0.40720  0.82753  0.25595  1.0000
  N   N145      1.0  0.40194  0.95556  0.25897  1.0000
  C   C1774     1.0  0.42372  0.86997  0.19820  1.0000
  H   H1786     1.0  0.45700  0.84981  0.29476  1.0000
  C   C1775     1.0  0.40123  0.88016  0.27623  1.0000
  S   S625      1.0  0.29688  0.86496  0.37697  1.0000
  C   C1776     1.0  0.39072  0.95946  0.25941  1.0000
  C   C1777     1.0  0.41313  0.82812  0.26336  1.0000
  C   C1778     1.0  0.00930  0.75673  0.37586  1.0000
  C   C1779     1.0  0.48941  0.89250  0.25209  1.0000
  H   H1787     1.0  0.47557  0.84003  0.28815  1.0000
  Fe  Fe314     1.0  0.28234  0.87949  0.37739  1.0000
  H   H1788     1.0  0.38594  0.95469  0.25743  1.0000
  C   C1780     1.0  0.42976  0.81253  0.23624  1.0000
  C   C1781     1.0  0.48387  0.88759  0.24737  1.0000
  C   C1782     1.0  0.41448  0.96756  0.23302  1.0000
  H   H1789     1.0  0.32490  0.84868  0.29576  1.0000
  H   H1790     1.0  0.25109  0.91564  0.34579  1.0000
  H   H1791     1.0  0.44435  0.88010  0.22393  1.0000
  C   C1783     1.0  0.26075  0.92466  0.36734  1.0000
  H   H1792     1.0  0.11972  0.74543  0.38072  1.0000
  C   C1784     1.0  0.25084  0.92108  0.37295  1.0000
  H   H1793     1.0  0.26043  0.93323  0.36301  1.0000
  C   C1785     1.0  0.44587  0.83753  0.23811  1.0000
  C   C1786     1.0  0.45232  0.83294  0.22908  1.0000
  C   C1787     1.0  0.44746  0.83295  0.22052  1.0000
  C   C1788     1.0  0.43600  0.83718  0.22106  1.0000
  C   C1789     1.0  0.42950  0.84205  0.22995  1.0000
  C   C1790     1.0  0.43447  0.84231  0.23843  1.0000
  H   H1794     1.0  0.46105  0.82902  0.22886  1.0000
  H   H1795     1.0  0.45256  0.82927  0.21363  1.0000
  H   H1796     1.0  0.42067  0.84549  0.23037  1.0000
  H   H1797     1.0  0.42936  0.84566  0.24550  1.0000
  C   C1791     1.0  0.42545  0.85923  0.28759  1.0000
  C   C1792     1.0  0.42741  0.85077  0.28191  1.0000
  C   C1793     1.0  0.41908  0.84493  0.28343  1.0000
  C   C1794     1.0  0.40862  0.84768  0.29040  1.0000
  C   C1795     1.0  0.40655  0.85625  0.29598  1.0000
  C   C1796     1.0  0.41503  0.86193  0.29468  1.0000
  H   H1798     1.0  0.43543  0.84856  0.27646  1.0000
  H   H1799     1.0  0.42077  0.83825  0.27919  1.0000
  H   H1800     1.0  0.39852  0.85835  0.30146  1.0000
  H   H1801     1.0  0.41348  0.86845  0.29913  1.0000
  C   C1797     1.0  0.36321  0.89584  0.28838  1.0000
  C   C1798     1.0  0.36801  0.90518  0.28431  1.0000
  C   C1799     1.0  0.36795  0.91124  0.27343  1.0000
  C   C1800     1.0  0.36267  0.90823  0.26681  1.0000
  C   C1801     1.0  0.35763  0.89906  0.27099  1.0000
  C   C1802     1.0  0.35809  0.89273  0.28170  1.0000
  H   H1802     1.0  0.37196  0.90761  0.28946  1.0000
  H   H1803     1.0  0.37181  0.91835  0.27022  1.0000
  H   H1804     1.0  0.35355  0.89671  0.26588  1.0000
  H   H1805     1.0  0.35438  0.88552  0.28481  1.0000
  C   C1803     1.0  0.39807  0.89713  0.21376  1.0000
  C   C1804     1.0  0.40090  0.88580  0.21870  1.0000
  C   C1805     1.0  0.39644  0.87794  0.21640  1.0000
  C   C1806     1.0  0.38899  0.88138  0.20925  1.0000
  C   C1807     1.0  0.38589  0.89274  0.20464  1.0000
  C   C1808     1.0  0.39050  0.90055  0.20677  1.0000
  H   H1806     1.0  0.40682  0.88304  0.22405  1.0000
  H   H1807     1.0  0.39878  0.86925  0.22016  1.0000
  H   H1808     1.0  0.42908  0.86987  0.18979  1.0000
  H   H1809     1.0  0.38846  0.90921  0.20270  1.0000
  C   C1809     1.0  0.42672  0.90799  0.25211  1.0000
  C   C1810     1.0  0.43586  0.90379  0.25720  1.0000
  C   C1811     1.0  0.44586  0.89776  0.25180  1.0000
  C   C1812     1.0  0.44683  0.89623  0.24117  1.0000
  C   C1813     1.0  0.43777  0.90062  0.23600  1.0000
  C   C1814     1.0  0.42766  0.90628  0.24156  1.0000
  H   H1810     1.0  0.43518  0.90505  0.26537  1.0000
  H   H1811     1.0  0.45283  0.89437  0.25584  1.0000
  H   H1812     1.0  0.43843  0.89937  0.22785  1.0000
  H   H1813     1.0  0.42055  0.90909  0.23773  1.0000
  C   C1815     1.0  0.41013  0.97811  0.23555  1.0000
  C   C1816     1.0  0.27112  0.91723  0.36763  1.0000
  C   C1817     1.0  0.40750  0.96172  0.23116  1.0000
  C   C1818     1.0  0.39614  0.96648  0.23165  1.0000
  C   C1819     1.0  0.39185  0.97715  0.23390  1.0000
  C   C1820     1.0  0.39877  0.98289  0.23600  1.0000
  H   H1814     1.0  0.41094  0.95359  0.22922  1.0000
  C   C1821     1.0  0.48731  0.85513  0.30314  1.0000
  N   N146      1.0  0.23177  0.90518  0.36712  1.0000
  H   H1815     1.0  0.08120  0.80541  0.36427  1.0000
  H   H1816     1.0  0.45459  0.85882  0.30398  1.0000
  H   H1817     1.0  0.48267  0.86940  0.27447  1.0000
  H   H1818     1.0  0.48527  0.87417  0.23966  1.0000
  S   S626      1.0  0.23793  0.93048  0.37294  1.0000
  N   N147      1.0  0.37143  0.89003  0.23688  1.0000
  C   C1822     1.0  0.37043  0.88181  0.23252  1.0000
  C   C1823     1.0  0.37441  0.88749  0.24688  1.0000
  C   C1824     1.0  0.37289  0.87066  0.23799  1.0000
  C   C1825     1.0  0.37667  0.87645  0.25270  1.0000
  C   C1826     1.0  0.37601  0.86799  0.24815  1.0000
  C   C1827     1.0  0.36892  0.90170  0.23109  1.0000
  H   H1819     1.0  0.36792  0.88379  0.22467  1.0000
  H   H1820     1.0  0.37500  0.89402  0.25041  1.0000
  H   H1821     1.0  0.37235  0.86416  0.23434  1.0000
  H   H1822     1.0  0.37883  0.87449  0.26071  1.0000
  H   H1823     1.0  0.37781  0.85939  0.25255  1.0000
  H   H1824     1.0  0.36079  0.90606  0.23548  1.0000
  H   H1825     1.0  0.37556  0.90593  0.23087  1.0000
  H   H1826     1.0  0.36848  0.90254  0.22238  1.0000
  C   C1828     1.0  0.42726  0.88355  0.20644  1.0000
  N   N148      1.0  0.42951  0.87287  0.20509  1.0000
  C   C1829     1.0  0.49144  0.86677  0.27472  1.0000
  H   H1827     1.0  0.37647  0.97297  0.26209  1.0000
  H   H1828     1.0  0.38742  0.98430  0.26607  1.0000
  Fe  Fe315     1.0  0.26529  0.86552  0.38116  1.0000
  H   H1829     1.0  0.40426  0.94337  0.24965  1.0000
  H   H1830     1.0  0.08545  0.74214  0.34438  1.0000
  H   H1831     1.0  0.09463  0.76788  0.35349  1.0000
  H   H1832     1.0  0.34913  0.82631  0.31367  1.0000
  H   H1833     1.0  0.23279  0.92160  0.35782  1.0000
  H   H1834     1.0  0.16734  0.86714  0.37576  1.0000
  H   H1835     1.0  0.37252  0.81973  0.19305  1.0000
  C   C1830     1.0  0.34054  0.83054  0.31334  1.0000
  S   S627      1.0  0.41917  0.98508  0.23797  1.0000
  N   N149      1.0  0.09131  0.78911  0.36583  1.0000
  C   C1831     1.0  0.08856  0.78193  0.36136  1.0000
  C   C1832     1.0  0.10227  0.78863  0.36549  1.0000
  C   C1833     1.0  0.09688  0.77374  0.35675  1.0000
  C   C1834     1.0  0.11080  0.78059  0.36088  1.0000
  C   C1835     1.0  0.10806  0.77306  0.35656  1.0000
  C   C1836     1.0  0.08251  0.79763  0.37066  1.0000
  H   H1836     1.0  0.07985  0.78224  0.36171  1.0000
  H   H1837     1.0  0.10445  0.79436  0.36899  1.0000
  H   H1838     1.0  0.26015  0.89549  0.34804  1.0000
  H   H1839     1.0  0.43963  0.85659  0.20829  1.0000
  H   H1840     1.0  0.08480  0.79943  0.37767  1.0000
  C   C1837     1.0  0.12298  0.74342  0.37263  1.0000
  H   H1841     1.0  0.07449  0.79479  0.37414  1.0000
  N   N150      1.0  0.32119  0.83464  0.32258  1.0000
  C   C1838     1.0  0.31856  0.84152  0.31300  1.0000
  H   H1842     1.0  0.38307  0.98091  0.23424  1.0000
  H   H1843     1.0  0.33415  0.82382  0.33044  1.0000
  H   H1844     1.0  0.30999  0.84586  0.31279  1.0000
  C   C1839     1.0  0.40287  0.97208  0.26384  1.0000
  H   H1845     1.0  0.23246  0.88799  0.37453  1.0000
  H   H1846     1.0  0.30897  0.82555  0.33263  1.0000
  H   H1847     1.0  0.21407  0.90787  0.37213  1.0000
  C   C1840     1.0  0.46015  0.85643  0.29628  1.0000
  C   C1841     1.0  0.13476  0.74656  0.35429  1.0000
  H   H1848     1.0  0.42328  0.96383  0.23256  1.0000
  C   C1842     1.0  0.44026  0.87810  0.21855  1.0000
  C   C1843     1.0  0.25205  0.89822  0.35321  1.0000
  H   H1849     1.0  0.38703  0.89177  0.29829  1.0000
  C   C1844     1.0  0.23649  0.89409  0.36817  1.0000
  H   H1850     1.0  0.11464  0.76669  0.35312  1.0000
  H   H1851     1.0  0.41912  0.89478  0.27706  1.0000
  S   S628      1.0  0.39630  0.82107  0.18895  1.0000
  C   C1845     1.0  0.39264  0.88273  0.28520  1.0000
  H   H1852     1.0  0.38524  0.87930  0.28746  1.0000
  C   C1846     1.0  0.42462  0.82362  0.26175  1.0000
  C   C1847     1.0  0.48955  0.87807  0.24328  1.0000
  C   C1848     1.0  0.47605  0.85826  0.30242  1.0000
  H   H1853     1.0  0.41658  0.94364  0.25350  1.0000
  N   N151      1.0  0.41067  0.88435  0.27349  1.0000
  C   C1849     1.0  0.40325  0.89411  0.28835  1.0000
  H   H1854     1.0  0.42940  0.82419  0.26731  1.0000
  C   C1850     1.0  0.33796  0.83757  0.30355  1.0000
  H   H1855     1.0  0.42767  0.88256  0.26465  1.0000
  H   H1856     1.0  0.38011  0.89550  0.19914  1.0000
  H   H1857     1.0  0.42606  0.81673  0.22885  1.0000
  C   C1851     1.0  0.41944  0.88178  0.26388  1.0000
  C   C1852     1.0  0.41283  0.82239  0.24706  1.0000
  H   H1858     1.0  0.40559  0.93794  0.26385  1.0000
  N   N152      1.0  0.47186  0.85269  0.29732  1.0000
  H   H1859     1.0  0.42894  0.80373  0.23867  1.0000
  H   H1860     1.0  0.34450  0.83875  0.29611  1.0000
  N   N153      1.0  0.42410  0.81808  0.24550  1.0000
  C   C1853     1.0  0.40800  0.96168  0.26124  1.0000
  C   C1854     1.0  0.32692  0.84314  0.30336  1.0000
  C   C1855     1.0  0.26161  0.90248  0.37849  1.0000
  C   C1856     1.0  0.39368  0.88973  0.29131  1.0000
  S   S629      1.0  0.28451  0.89697  0.37383  1.0000
  H   H1861     1.0  0.30530  0.84020  0.33281  1.0000
  C   C1857     1.0  0.43247  0.88630  0.21330  1.0000
  S   S630      1.0  0.06697  0.76437  0.38130  1.0000
  Fe  Fe316     1.0  0.13283  0.76882  0.38091  1.0000
  C   C1858     1.0  0.41171  0.89132  0.27936  1.0000
  C   C1859     1.0  0.38531  0.96980  0.26202  1.0000
  H   H1862     1.0  0.41734  0.88762  0.25621  1.0000
  C   C1860     1.0  0.40736  0.94461  0.25641  1.0000
  H   H1863     1.0  0.42041  0.87308  0.26322  1.0000
  H   H1864     1.0  0.25047  0.88164  0.36219  1.0000
  H   H1865     1.0  0.11949  0.78011  0.36073  1.0000
  H   H1866     1.0  0.39828  0.83099  0.25708  1.0000
  C   C1861     1.0  0.24698  0.90948  0.35193  1.0000
  N   N154      1.0  0.33534  0.88298  0.32645  1.0000
  C   C1862     1.0  0.32541  0.88294  0.33408  1.0000
  C   C1863     1.0  0.34487  0.87552  0.32866  1.0000
  C   C1864     1.0  0.32489  0.87534  0.34428  1.0000
  C   C1865     1.0  0.34464  0.86778  0.33875  1.0000
  C   C1866     1.0  0.33459  0.86776  0.34662  1.0000
  C   C1867     1.0  0.33592  0.89107  0.31583  1.0000
  H   H1867     1.0  0.31780  0.88874  0.33232  1.0000
  H   H1868     1.0  0.35272  0.87549  0.32258  1.0000
  H   H1869     1.0  0.31697  0.87517  0.35024  1.0000
  H   H1870     1.0  0.35214  0.86163  0.34034  1.0000
  H   H1871     1.0  0.33426  0.86166  0.35440  1.0000
  H   H1872     1.0  0.34170  0.89649  0.31512  1.0000
  H   H1873     1.0  0.33922  0.88671  0.30884  1.0000
  H   H1874     1.0  0.32762  0.89645  0.31486  1.0000
  H   H1875     1.0  0.40812  0.82188  0.24140  1.0000
  C   C1868     1.0  0.48999  0.84075  0.29326  1.0000
  C   C1869     1.0  0.44284  0.86733  0.21676  1.0000
  C   C1870     1.0  0.43746  0.86490  0.20984  1.0000
  C   C1871     1.0  0.38909  0.81353  0.18423  1.0000
  C   C1872     1.0  0.22130  0.90882  0.37478  1.0000
  C   C1873     1.0  0.00444  0.75259  0.36964  1.0000
  C   C1874     1.0  0.25128  0.90999  0.37855  1.0000
  C   C1875     1.0  0.13068  0.74924  0.36471  1.0000
  S   S631      1.0  0.27837  0.84971  0.38068  1.0000
  H   H1876     1.0  0.41693  0.95870  0.26076  1.0000
  H   H1877     1.0  0.40780  0.97706  0.26527  1.0000
  H   H1878     1.0  0.09445  0.74031  0.38121  1.0000
  H   H1879     1.0  0.47072  0.86529  0.30580  1.0000
  H   H1880     1.0  0.49084  0.87884  0.28391  1.0000
  H   H1881     1.0  0.01808  0.75702  0.37329  1.0000
  C   C1876     1.0  0.49609  0.87212  0.28004  1.0000
  H   H1882     1.0  0.00956  0.74962  0.36235  1.0000
  C   C1877     1.0  0.08858  0.73876  0.37740  1.0000
  H   H1883     1.0  0.16530  0.81432  0.37762  1.0000
  H   H1884     1.0  0.17515  0.85338  0.38070  1.0000
  H   H1885     1.0  0.09062  0.76038  0.38007  1.0000
  S   S632      1.0  0.12478  0.78706  0.37913  1.0000
  H   H1886     1.0  0.47517  0.89111  0.24687  1.0000
  H   H1887     1.0  0.49072  0.85975  0.30687  1.0000
  H   H1888     1.0  0.17893  0.86526  0.38215  1.0000
  C   C1878     1.0  0.13136  0.73823  0.35170  1.0000
  Fe  Fe317     1.0  0.23953  0.88736  0.55484  1.0000
  S   S633      1.0  0.24936  0.86989  0.55792  1.0000
  S   S634      1.0  0.22225  0.88901  0.55287  1.0000
  Fe  Fe318     1.0  0.25911  0.89687  0.55330  1.0000
  S   S635      1.0  0.27099  0.88023  0.55535  1.0000
  S   S636      1.0  0.26386  0.91301  0.55132  1.0000
  Fe  Fe319     1.0  0.26241  0.87646  0.54394  1.0000
  S   S637      1.0  0.27052  0.86803  0.52942  1.0000
  Fe  Fe320     1.0  0.25686  0.87518  0.56912  1.0000
  C   C1879     1.0  0.21895  0.87459  0.57256  1.0000
  S   S638      1.0  0.25219  0.89377  0.54042  1.0000
  S   S639      1.0  0.24535  0.89201  0.56756  1.0000
  H   H1889     1.0  0.26087  0.97910  0.40240  1.0000
  Fe  Fe321     1.0  0.23176  0.92431  0.41376  1.0000
  S   S640      1.0  0.21342  0.92912  0.42078  1.0000
  S   S641      1.0  0.24469  0.91752  0.42408  1.0000
  Fe  Fe322     1.0  0.22840  0.92969  0.39046  1.0000
  S   S642      1.0  0.20971  0.93496  0.39550  1.0000
  C   C1880     1.0  0.26731  0.90732  0.40266  1.0000
  Fe  Fe323     1.0  0.21374  0.94380  0.40647  1.0000
  S   S643      1.0  0.20582  0.96162  0.40809  1.0000
  Fe  Fe324     1.0  0.21137  0.91967  0.40928  1.0000
  S   S644      1.0  0.20130  0.90627  0.41737  1.0000
  S   S645      1.0  0.23229  0.93957  0.40028  1.0000
  S   S646      1.0  0.22981  0.91386  0.40333  1.0000
  Fe  Fe325     1.0  0.23694  0.84819  0.46840  1.0000
  S   S647      1.0  0.25270  0.84405  0.47490  1.0000
  S   S648      1.0  0.23333  0.83557  0.46123  1.0000
  Fe  Fe326     1.0  0.23230  0.87227  0.46975  1.0000
  S   S649      1.0  0.24778  0.87035  0.47574  1.0000
  S   S650      1.0  0.22067  0.88889  0.46747  1.0000
  Fe  Fe327     1.0  0.25600  0.85989  0.46302  1.0000
  S   S651      1.0  0.27299  0.86124  0.45212  1.0000
  Fe  Fe328     1.0  0.24298  0.85491  0.48711  1.0000
  S   S652      1.0  0.24123  0.85247  0.50574  1.0000
  S   S653      1.0  0.24092  0.86339  0.45590  1.0000
  S   S654      1.0  0.22683  0.85744  0.48170  1.0000
  Fe  Fe329     1.0  0.13472  0.76698  0.40422  1.0000
  S   S655      1.0  0.12576  0.78453  0.40485  1.0000
  S   S656      1.0  0.14203  0.75665  0.41855  1.0000
  S   S657      1.0  0.29118  0.84548  0.40665  1.0000
  Fe  Fe330     1.0  0.18850  0.85621  0.40502  1.0000
  S   S658      1.0  0.20224  0.84881  0.41416  1.0000
  S   S659      1.0  0.18775  0.87410  0.39560  1.0000
  Fe  Fe331     1.0  0.18019  0.83415  0.41106  1.0000
  S   S660      1.0  0.19370  0.82529  0.42080  1.0000
  S   S661      1.0  0.16632  0.82525  0.41160  1.0000
  Fe  Fe332     1.0  0.18981  0.84075  0.42750  1.0000
  S   S662      1.0  0.18861  0.84313  0.44462  1.0000
  Fe  Fe333     1.0  0.20503  0.83430  0.40653  1.0000
  C   C1881     1.0  0.09662  0.74540  0.50743  1.0000
  S   S663      1.0  0.17552  0.84914  0.41892  1.0000
  S   S664      1.0  0.19200  0.84213  0.39631  1.0000
  S   S665      1.0  0.15044  0.78245  0.56595  1.0000
  C   C1882     1.0  0.23155  0.98617  0.38944  1.0000
  C   C1883     1.0  0.10119  0.74352  0.48842  1.0000
  H   H1890     1.0  0.12230  0.75045  0.49415  1.0000
  S   S666      1.0  0.12809  0.74711  0.52626  1.0000
  C   C1884     1.0  0.28579  0.87990  0.41193  1.0000
  H   H1891     1.0  0.16875  0.75774  0.57105  1.0000
  S   S667      1.0  0.14835  0.74217  0.54766  1.0000
  H   H1892     1.0  0.99887  0.74048  0.41055  1.0000
  S   S668      1.0  0.09627  0.75956  0.53741  1.0000
  H   H1893     1.0  0.27475  0.92866  0.55747  1.0000
  Fe  Fe334     1.0  0.05034  0.76044  0.39167  1.0000
  C   C1885     1.0  0.17290  0.79360  0.41852  1.0000
  C   C1886     1.0  0.27224  0.89786  0.42061  1.0000
  C   C1887     1.0  0.19220  0.97937  0.43667  1.0000
  H   H1894     1.0  0.09093  0.74508  0.51549  1.0000
  Fe  Fe335     1.0  0.03644  0.75940  0.41493  1.0000
  C   C1888     1.0  0.09371  0.74305  0.49873  1.0000
  C   C1889     1.0  0.28466  0.87981  0.42306  1.0000
  S   S669      1.0  0.03540  0.77230  0.39916  1.0000
  S   S670      1.0  0.09990  0.75492  0.45784  1.0000
  Fe  Fe336     1.0  0.28538  0.85622  0.39135  1.0000
  H   H1895     1.0  0.09418  0.78081  0.56257  1.0000
  C   C1890     1.0  0.28007  0.88908  0.40533  1.0000
  H   H1896     1.0  0.02100  0.78042  0.56905  1.0000
  C   C1891     1.0  0.16506  0.78758  0.41894  1.0000
  H   H1897     1.0  0.16033  0.77038  0.40766  1.0000
  C   C1892     1.0  0.27775  0.88876  0.42749  1.0000
  N   N155      1.0  0.16474  0.78445  0.40968  1.0000
  C   C1893     1.0  0.07501  0.74390  0.56936  1.0000
  S   S671      1.0  0.11789  0.73898  0.55297  1.0000
  C   C1894     1.0  0.06941  0.77728  0.39419  1.0000
  C   C1895     1.0  0.12143  0.78184  0.55499  1.0000
  H   H1898     1.0  0.11793  0.74091  0.47146  1.0000
  N   N156      1.0  0.21398  0.91698  0.57281  1.0000
  C   C1896     1.0  0.15142  0.85248  0.40846  1.0000
  H   H1899     1.0  0.21478  0.85112  0.39207  1.0000
  S   S672      1.0  0.09535  0.78628  0.39966  1.0000
  C   C1897     1.0  0.08383  0.75916  0.55838  1.0000
  H   H1900     1.0  0.05330  0.75856  0.56872  1.0000
  H   H1901     1.0  0.12082  0.76421  0.54907  1.0000
  H   H1902     1.0  0.27240  0.90913  0.39409  1.0000
  H   H1903     1.0  0.06941  0.77002  0.44947  1.0000
  H   H1904     1.0  0.08622  0.76680  0.55779  1.0000
  C   C1898     1.0  0.15893  0.85273  0.39819  1.0000
  H   H1905     1.0  0.15074  0.77683  0.41836  1.0000
  C   C1899     1.0  0.14842  0.77168  0.56104  1.0000
  C   C1900     1.0  0.14217  0.76382  0.56768  1.0000
  C   C1901     1.0  0.14121  0.75520  0.56332  1.0000
  C   C1902     1.0  0.14653  0.75441  0.55233  1.0000
  C   C1903     1.0  0.15250  0.76245  0.54571  1.0000
  C   C1904     1.0  0.15332  0.77108  0.54998  1.0000
  Fe  Fe337     1.0  0.11138  0.74586  0.53744  1.0000
  H   H1906     1.0  0.13685  0.74883  0.56861  1.0000
  H   H1907     1.0  0.15689  0.76176  0.53733  1.0000
  C   C1905     1.0  0.15627  0.77851  0.41001  1.0000
  N   N157      1.0  0.02360  0.76581  0.56292  1.0000
  H   H1908     1.0  0.27655  0.88856  0.43624  1.0000
  H   H1909     1.0  0.24961  0.97365  0.41267  1.0000
  C   C1906     1.0  0.14799  0.80851  0.40275  1.0000
  C   C1907     1.0  0.15211  0.81386  0.40861  1.0000
  C   C1908     1.0  0.16111  0.81923  0.40346  1.0000
  H   H1910     1.0  0.24322  0.85189  0.58158  1.0000
  H   H1911     1.0  0.14112  0.80438  0.40692  1.0000
  H   H1912     1.0  0.14835  0.81370  0.41728  1.0000
  N   N158      1.0  0.27350  0.89796  0.40966  1.0000
  C   C1909     1.0  0.13057  0.75611  0.42968  1.0000
  C   C1910     1.0  0.24682  0.84600  0.38920  1.0000
  Fe  Fe338     1.0  0.09600  0.73881  0.45827  1.0000
  C   C1911     1.0  0.11149  0.75589  0.44682  1.0000
  C   C1912     1.0  0.11358  0.74955  0.43890  1.0000
  C   C1913     1.0  0.12302  0.74976  0.43026  1.0000
  C   C1914     1.0  0.14897  0.86139  0.41363  1.0000
  C   C1915     1.0  0.22892  0.85866  0.38830  1.0000
  H   H1913     1.0  0.17623  0.82193  0.57892  1.0000
  H   H1914     1.0  0.14341  0.86114  0.42174  1.0000
  S   S673      1.0  0.22912  0.98626  0.42910  1.0000
  C   C1916     1.0  0.07127  0.76831  0.44127  1.0000
  Fe  Fe339     1.0  0.13713  0.78862  0.38822  1.0000
  C   C1917     1.0  0.22205  0.92008  0.56252  1.0000
  H   H1915     1.0  0.06036  0.77979  0.39606  1.0000
  C   C1918     1.0  0.22103  0.83840  0.45616  1.0000
  C   C1919     1.0  0.21137  0.84587  0.46005  1.0000
  C   C1920     1.0  0.20146  0.84726  0.45647  1.0000
  C   C1921     1.0  0.20124  0.84148  0.44871  1.0000
  C   C1922     1.0  0.21104  0.83438  0.44446  1.0000
  C   C1923     1.0  0.22083  0.83272  0.44831  1.0000
  H   H1916     1.0  0.21140  0.85022  0.46617  1.0000
  H   H1917     1.0  0.19390  0.85276  0.45979  1.0000
  H   H1918     1.0  0.21094  0.82986  0.43851  1.0000
  H   H1919     1.0  0.22823  0.82684  0.44533  1.0000
  C   C1924     1.0  0.27710  0.85613  0.43990  1.0000
  C   C1925     1.0  0.27033  0.85924  0.43211  1.0000
  C   C1926     1.0  0.27457  0.85620  0.42175  1.0000
  C   C1927     1.0  0.28549  0.84985  0.41928  1.0000
  C   C1928     1.0  0.29203  0.84648  0.42724  1.0000
  C   C1929     1.0  0.28793  0.84975  0.43740  1.0000
  H   H1920     1.0  0.26200  0.86432  0.43393  1.0000
  H   H1921     1.0  0.26935  0.85862  0.41576  1.0000
  H   H1922     1.0  0.30043  0.84151  0.42544  1.0000
  H   H1923     1.0  0.29324  0.84742  0.44333  1.0000
  C   C1930     1.0  0.20681  0.97228  0.44701  1.0000
  C   C1931     1.0  0.19829  0.89720  0.41087  1.0000
  C   C1932     1.0  0.19882  0.89958  0.39946  1.0000
  C   C1933     1.0  0.19570  0.89240  0.39480  1.0000
  C   C1934     1.0  0.19228  0.88268  0.40147  1.0000
  C   C1935     1.0  0.19204  0.88019  0.41282  1.0000
  C   C1936     1.0  0.19486  0.88750  0.41750  1.0000
  H   H1924     1.0  0.20118  0.90716  0.39434  1.0000
  C   C1937     1.0  0.06262  0.76919  0.43614  1.0000
  H   H1925     1.0  0.18931  0.87282  0.41808  1.0000
  H   H1926     1.0  0.19425  0.88568  0.42635  1.0000
  C   C1938     1.0  0.23845  0.91021  0.43689  1.0000
  C   C1939     1.0  0.24416  0.89976  0.44158  1.0000
  C   C1940     1.0  0.23879  0.89339  0.45122  1.0000
  C   C1941     1.0  0.22768  0.89742  0.45616  1.0000
  C   C1942     1.0  0.22208  0.90804  0.45174  1.0000
  C   C1943     1.0  0.22751  0.91447  0.44213  1.0000
  H   H1927     1.0  0.25259  0.89638  0.43764  1.0000
  H   H1928     1.0  0.24325  0.88529  0.45470  1.0000
  H   H1929     1.0  0.21352  0.91122  0.45561  1.0000
  H   H1930     1.0  0.22326  0.92272  0.43882  1.0000
  C   C1944     1.0  0.22332  0.97980  0.42219  1.0000
  C   C1945     1.0  0.00265  0.76115  0.38494  1.0000
  C   C1946     1.0  0.20995  0.98017  0.41167  1.0000
  C   C1947     1.0  0.21324  0.96859  0.41279  1.0000
  C   C1948     1.0  0.22184  0.96268  0.41831  1.0000
  C   C1949     1.0  0.22676  0.96825  0.42310  1.0000
  H   H1931     1.0  0.24229  0.83865  0.56639  1.0000
  S   S674      1.0  0.00786  0.76858  0.39145  1.0000
  H   H1932     1.0  0.22444  0.95375  0.41923  1.0000
  H   H1933     1.0  0.23314  0.96355  0.42770  1.0000
  H   H1934     1.0  0.28899  0.87273  0.42832  1.0000
  S   S675      1.0  0.14821  0.80155  0.38371  1.0000
  C   C1950     1.0  0.26207  0.86421  0.52275  1.0000
  C   C1951     1.0  0.25157  0.86194  0.52838  1.0000
  C   C1952     1.0  0.24534  0.85829  0.52307  1.0000
  C   C1953     1.0  0.24936  0.85720  0.51199  1.0000
  C   C1954     1.0  0.25973  0.85974  0.50627  1.0000
  C   C1955     1.0  0.26612  0.86306  0.51169  1.0000
  H   H1935     1.0  0.24830  0.86283  0.53686  1.0000
  H   H1936     1.0  0.23731  0.85638  0.52755  1.0000
  H   H1937     1.0  0.26296  0.85886  0.49777  1.0000
  H   H1938     1.0  0.27426  0.86474  0.50729  1.0000
  H   H1939     1.0  0.26689  0.90481  0.42410  1.0000
  C   C1956     1.0  0.24147  0.94005  0.55982  1.0000
  C   C1957     1.0  0.24964  0.93283  0.55378  1.0000
  C   C1958     1.0  0.25325  0.92176  0.55890  1.0000
  H   H1940     1.0  0.22219  0.92906  0.56063  1.0000
  H   H1941     1.0  0.11704  0.75531  0.47088  1.0000
  H   H1942     1.0  0.23861  0.94858  0.55578  1.0000
  H   H1943     1.0  0.25310  0.93580  0.54511  1.0000
  H   H1944     1.0  0.15087  0.78353  0.40412  1.0000
  C   C1959     1.0  0.22134  0.85655  0.56317  1.0000
  H   H1945     1.0  0.07167  0.78859  0.40276  1.0000
  H   H1946     1.0  0.20327  0.98479  0.40743  1.0000
  C   C1960     1.0  0.11220  0.76933  0.55095  1.0000
  C   C1961     1.0  0.03757  0.75135  0.45186  1.0000
  N   N159      1.0  0.22784  0.88331  0.50538  1.0000
  C   C1962     1.0  0.23854  0.88450  0.50399  1.0000
  C   C1963     1.0  0.22051  0.88346  0.51541  1.0000
  C   C1964     1.0  0.24199  0.88636  0.51265  1.0000
  C   C1965     1.0  0.22369  0.88529  0.52425  1.0000
  C   C1966     1.0  0.23449  0.88677  0.52283  1.0000
  C   C1967     1.0  0.22439  0.88124  0.49627  1.0000
  H   H1947     1.0  0.24452  0.88378  0.49623  1.0000
  H   H1948     1.0  0.21217  0.88211  0.51662  1.0000
  H   H1949     1.0  0.25054  0.88710  0.51161  1.0000
  H   H1950     1.0  0.21790  0.88544  0.53221  1.0000
  H   H1951     1.0  0.23711  0.88795  0.52970  1.0000
  H   H1952     1.0  0.21530  0.88456  0.49662  1.0000
  H   H1953     1.0  0.22881  0.88538  0.48809  1.0000
  H   H1954     1.0  0.22629  0.87217  0.49668  1.0000
  C   C1968     1.0  0.22063  0.85489  0.57455  1.0000
  H   H1955     1.0  0.24271  0.84061  0.43844  1.0000
  H   H1956     1.0  0.24638  0.82854  0.39427  1.0000
  C   C1969     1.0  0.23884  0.98091  0.39663  1.0000
  C   C1970     1.0  0.25024  0.83782  0.43260  1.0000
  H   H1957     1.0  0.27908  0.84903  0.55192  1.0000
  H   H1958     1.0  0.25943  0.90535  0.40236  1.0000
  H   H1959     1.0  0.14000  0.74134  0.40603  1.0000
  C   C1971     1.0  0.21036  0.90735  0.57479  1.0000
  C   C1972     1.0  0.09647  0.75898  0.42008  1.0000
  H   H1960     1.0  0.22140  0.90382  0.38334  1.0000
  H   H1961     1.0  0.25580  0.84281  0.44897  1.0000
  H   H1962     1.0  0.10189  0.76892  0.38699  1.0000
  C   C1973     1.0  0.16156  0.81416  0.38629  1.0000
  N   N160      1.0  0.20082  0.95990  0.43987  1.0000
  N   N161      1.0  0.21838  0.87980  0.43099  1.0000
  C   C1974     1.0  0.22338  0.88270  0.42004  1.0000
  C   C1975     1.0  0.21418  0.87036  0.43488  1.0000
  C   C1976     1.0  0.22456  0.87591  0.41272  1.0000
  C   C1977     1.0  0.21511  0.86345  0.42776  1.0000
  C   C1978     1.0  0.22037  0.86624  0.41663  1.0000
  C   C1979     1.0  0.21687  0.88721  0.43844  1.0000
  H   H1963     1.0  0.22627  0.89042  0.41688  1.0000
  H   H1964     1.0  0.20992  0.86820  0.44348  1.0000
  H   H1965     1.0  0.22851  0.87821  0.40403  1.0000
  H   H1966     1.0  0.21156  0.85611  0.43081  1.0000
  H   H1967     1.0  0.22102  0.86102  0.41101  1.0000
  H   H1968     1.0  0.21709  0.88247  0.44707  1.0000
  H   H1969     1.0  0.22362  0.89197  0.43580  1.0000
  H   H1970     1.0  0.20871  0.89324  0.43843  1.0000
  N   N162      1.0  0.25547  0.84323  0.57021  1.0000
  C   C1980     1.0  0.26568  0.84611  0.56627  1.0000
  C   C1981     1.0  0.25051  0.84061  0.56335  1.0000
  C   C1982     1.0  0.27120  0.84634  0.55519  1.0000
  C   C1983     1.0  0.25582  0.84071  0.55224  1.0000
  C   C1984     1.0  0.26624  0.84358  0.54817  1.0000
  C   C1985     1.0  0.16136  0.87049  0.39812  1.0000
  H   H1971     1.0  0.26938  0.84870  0.57156  1.0000
  H   H1972     1.0  0.19581  0.89443  0.38604  1.0000
  C   C1986     1.0  0.18013  0.79305  0.39921  1.0000
  C   C1987     1.0  0.09285  0.77123  0.38910  1.0000
  C   C1988     1.0  0.08757  0.77939  0.39531  1.0000
  S   S676      1.0  0.22688  0.94560  0.57837  1.0000
  S   S677      1.0  0.03504  0.76338  0.43129  1.0000
  S   S678      1.0  0.12211  0.76318  0.39738  1.0000
  C   C1989     1.0  0.15274  0.80854  0.39152  1.0000
  H   H1973     1.0  0.21854  0.88140  0.57622  1.0000
  C   C1990     1.0  0.17213  0.78712  0.39990  1.0000
  C   C1991     1.0  0.10691  0.74818  0.50573  1.0000
  C   C1992     1.0  0.07802  0.73908  0.56014  1.0000
  S   S679      1.0  0.02458  0.75058  0.41259  1.0000
  H   H1974     1.0  0.17158  0.78499  0.39247  1.0000
  H   H1975     1.0  0.21247  0.97370  0.45119  1.0000
  H   H1976     1.0  0.09754  0.76074  0.41095  1.0000
  H   H1977     1.0  0.01017  0.76161  0.55896  1.0000
  H   H1978     1.0  0.20643  0.83285  0.57532  1.0000
  S   S680      1.0  0.24657  0.86844  0.38393  1.0000
  H   H1979     1.0  0.28008  0.90965  0.56829  1.0000
  H   H1980     1.0  0.05636  0.74750  0.42797  1.0000
  H   H1981     1.0  0.26348  0.94379  0.56721  1.0000
  H   H1982     1.0  0.25856  0.83353  0.40633  1.0000
  H   H1983     1.0  0.12450  0.74492  0.42410  1.0000
  H   H1984     1.0  0.17289  0.79646  0.42574  1.0000
  C   C1993     1.0  0.18047  0.79634  0.40858  1.0000
  H   H1985     1.0  0.10917  0.77280  0.54311  1.0000
  C   C1994     1.0  0.07583  0.78232  0.39792  1.0000
  S   S681      1.0  0.22303  0.82760  0.39922  1.0000
  H   H1986     1.0  0.21063  0.94405  0.43730  1.0000
  C   C1995     1.0  0.23713  0.93634  0.57109  1.0000
  H   H1987     1.0  0.25577  0.84459  0.38817  1.0000
  H   H1988     1.0  0.26508  0.91503  0.40590  1.0000
  H   H1989     1.0  0.18639  0.98629  0.43285  1.0000
  H   H1990     1.0  0.09885  0.74179  0.48165  1.0000
  H   H1991     1.0  0.10199  0.76349  0.42171  1.0000
  C   C1996     1.0  0.25906  0.83387  0.41451  1.0000
  H   H1992     1.0  0.10681  0.76365  0.55657  1.0000
  C   C1997     1.0  0.19315  0.96859  0.43548  1.0000
  H   H1993     1.0  0.03998  0.77602  0.57268  1.0000
  H   H1994     1.0  0.11715  0.76763  0.45206  1.0000
  H   H1995     1.0  0.01179  0.77578  0.55336  1.0000
  C   C1998     1.0  0.03756  0.77047  0.56915  1.0000
  H   H1996     1.0  0.03945  0.74186  0.46817  1.0000
  Fe  Fe340     1.0  0.02495  0.76220  0.39594  1.0000
  N   N163      1.0  0.16390  0.86161  0.39323  1.0000
  S   S682      1.0  0.05181  0.74815  0.40762  1.0000
  H   H1997     1.0  0.18631  0.80135  0.40807  1.0000
  H   H1998     1.0  0.04735  0.74572  0.56128  1.0000
  C   C1999     1.0  0.07635  0.76322  0.42059  1.0000
  H   H1999     1.0  0.13421  0.76772  0.43688  1.0000
  S   S683      1.0  0.00663  0.74505  0.57972  1.0000
  C   C2000     1.0  0.06517  0.76678  0.42567  1.0000
  S   S684      1.0  0.14636  0.77092  0.38793  1.0000
  C   C2001     1.0  0.22989  0.83877  0.39394  1.0000
  S   S685      1.0  0.27167  0.87130  0.39272  1.0000
  C   C2002     1.0  0.12848  0.76259  0.43751  1.0000
  H   H2000     1.0  0.05848  0.76745  0.42163  1.0000
  H   H2001     1.0  0.15813  0.77713  0.54477  1.0000
  C   C2003     1.0  0.20175  0.94866  0.43853  1.0000
  H   H2002     1.0  0.08574  0.74085  0.49993  1.0000
  C   C2004     1.0  0.11883  0.76257  0.44605  1.0000
  N   N164      1.0  0.24463  0.98688  0.39950  1.0000
  Fe  Fe341     1.0  0.13475  0.73863  0.54170  1.0000
  H   H2003     1.0  0.18574  0.79545  0.39136  1.0000
  C   C2005     1.0  0.10181  0.78353  0.56166  1.0000
  H   H2004     1.0  0.27031  0.84402  0.53948  1.0000
  H   H2005     1.0  0.26970  0.83457  0.44720  1.0000
  C   C2006     1.0  0.25216  0.98130  0.40713  1.0000
  N   N165      1.0  0.11184  0.77836  0.55609  1.0000
  H   H2006     1.0  0.25788  0.82790  0.45276  1.0000
  H   H2007     1.0  0.07542  0.73838  0.39214  1.0000
  H   H2008     1.0  0.02822  0.75041  0.55771  1.0000
  H   H2009     1.0  0.15907  0.78568  0.42664  1.0000
  H   H2010     1.0  0.25177  0.83888  0.54674  1.0000
  H   H2011     1.0  0.02951  0.75639  0.45485  1.0000
  C   C2007     1.0  0.26103  0.83497  0.44663  1.0000
  H   H2012     1.0  0.21359  0.95472  0.44916  1.0000
  H   H2013     1.0  0.22670  0.98144  0.38749  1.0000
  C   C2008     1.0  0.10126  0.79226  0.56652  1.0000
  H   H2014     1.0  0.27801  0.82869  0.43035  1.0000
  C   C2009     1.0  0.16577  0.81940  0.39220  1.0000
  C   C2010     1.0  0.24880  0.91796  0.57016  1.0000
  H   H2015     1.0  0.00598  0.77109  0.56796  1.0000
  C   C2011     1.0  0.24077  0.92526  0.57626  1.0000
  C   C2012     1.0  0.22367  0.84964  0.39152  1.0000
  N   N166      1.0  0.26042  0.83473  0.43547  1.0000
  C   C2013     1.0  0.26991  0.83108  0.42814  1.0000
  C   C2014     1.0  0.04167  0.75347  0.56275  1.0000
  H   H2016     1.0  0.22202  0.86851  0.54761  1.0000
  C   C2015     1.0  0.19915  0.98121  0.44241  1.0000
  C   C2016     1.0  0.16526  0.75376  0.57971  1.0000
  C   C2017     1.0  0.26624  0.93551  0.57192  1.0000
  H   H2017     1.0  0.14780  0.84524  0.41252  1.0000
  C   C2018     1.0  0.24938  0.84382  0.58159  1.0000
  C   C2019     1.0  0.08700  0.75426  0.54922  1.0000
  C   C2020     1.0  0.21973  0.87631  0.56121  1.0000
  H   H2018     1.0  0.05393  0.77159  0.44029  1.0000
  H   H2019     1.0  0.19879  0.94888  0.43107  1.0000
  H   H2020     1.0  0.08678  0.74028  0.54308  1.0000
  C   C2021     1.0  0.26939  0.83072  0.41751  1.0000
  H   H2021     1.0  0.25172  0.90946  0.57420  1.0000
  H   H2022     1.0  0.07824  0.76098  0.41263  1.0000
  Fe  Fe342     1.0  0.11432  0.78131  0.39592  1.0000
  H   H2023     1.0  0.12891  0.79287  0.55934  1.0000
  H   H2024     1.0  0.12934  0.77793  0.55037  1.0000
  H   H2025     1.0  0.27701  0.82818  0.41160  1.0000
  C   C2022     1.0  0.24939  0.83741  0.42209  1.0000
  H   H2026     1.0  0.10787  0.74450  0.43935  1.0000
  H   H2027     1.0  0.16526  0.87756  0.39417  1.0000
  H   H2028     1.0  0.22397  0.86703  0.38667  1.0000
  C   C2023     1.0  0.27561  0.91628  0.57265  1.0000
  H   H2029     1.0  0.07630  0.75735  0.57567  1.0000
  C   C2024     1.0  0.02682  0.77291  0.56708  1.0000
  H   H2030     1.0  0.18800  0.96728  0.43066  1.0000
  H   H2031     1.0  0.09929  0.74990  0.42312  1.0000
  S   S686      1.0  0.03985  0.75149  0.38695  1.0000
  C   C2025     1.0  0.07805  0.75386  0.56849  1.0000
  C   C2026     1.0  0.20747  0.96159  0.44574  1.0000
  C   C2027     1.0  0.05265  0.74634  0.43670  1.0000
  N   N167      1.0  0.08480  0.76271  0.42552  1.0000
  H   H2032     1.0  0.24130  0.83979  0.41984  1.0000
  H   H2033     1.0  0.19673  0.94402  0.44594  1.0000
  C   C2028     1.0  0.27261  0.92704  0.56647  1.0000
  H   H2034     1.0  0.23057  0.91519  0.56326  1.0000
  C   C2029     1.0  0.21929  0.86394  0.57921  1.0000
  C   C2030     1.0  0.11106  0.79556  0.56581  1.0000
  C   C2031     1.0  0.18052  0.82751  0.58031  1.0000
  C   C2032     1.0  0.24047  0.85687  0.38728  1.0000
  H   H2035     1.0  0.08907  0.76452  0.43975  1.0000
  C   C2033     1.0  0.24152  0.83694  0.39257  1.0000
  H   H2036     1.0  0.29093  0.87283  0.40849  1.0000
  C   C2034     1.0  0.08238  0.76512  0.43576  1.0000
  H   H2037     1.0  0.22248  0.84955  0.55950  1.0000
  C   C2035     1.0  0.22090  0.86730  0.55647  1.0000
  H   H2038     1.0  0.10926  0.75000  0.51245  1.0000
  C   C2036     1.0  0.12122  0.79037  0.55996  1.0000
  H   H2039     1.0  0.28090  0.88906  0.39672  1.0000
  C   C2037     1.0  0.11422  0.74849  0.49533  1.0000
  C   C2038     1.0  0.21505  0.98579  0.41626  1.0000
  H   H2040     1.0  0.23962  0.97207  0.40009  1.0000
  H   H2041     1.0  0.21334  0.90211  0.56879  1.0000
  H   H2042     1.0  0.25180  0.98675  0.41269  1.0000
  H   H2043     1.0  0.15229  0.87737  0.41244  1.0000
  C   C2039     1.0  0.04220  0.75287  0.44048  1.0000
  H   H2044     1.0  0.16093  0.84565  0.39436  1.0000
  H   H2045     1.0  0.14549  0.74223  0.38569  1.0000
  C   C2040     1.0  0.15395  0.87048  0.40843  1.0000
  H   H2046     1.0  0.21993  0.91840  0.55538  1.0000
  C   C2041     1.0  0.05857  0.73857  0.44428  1.0000
  H   H2047     1.0  0.17268  0.82347  0.38804  1.0000
  H   H2048     1.0  0.13821  0.76429  0.57619  1.0000
  C   C2042     1.0  0.01236  0.76874  0.56063  1.0000
  C   C2043     1.0  0.08416  0.74418  0.55011  1.0000
  C   C2044     1.0  0.07470  0.76945  0.38762  1.0000
  C   C2045     1.0  0.03086  0.75619  0.56073  1.0000
  N   N168      1.0  0.16358  0.74265  0.58056  1.0000
  H   H2049     1.0  0.16562  0.74460  0.56310  1.0000
  H   H2050     1.0  0.11080  0.80204  0.56989  1.0000
  H   H2051     1.0  0.21360  0.93086  0.57917  1.0000
  N   N169      1.0  0.11135  0.74606  0.48688  1.0000
  C   C2046     1.0  0.21052  0.92338  0.58059  1.0000
  C   C2047     1.0  0.19747  0.83354  0.57840  1.0000
  C   C2048     1.0  0.19203  0.82650  0.57625  1.0000
  C   C2049     1.0  0.11893  0.74677  0.47594  1.0000
  H   H2052     1.0  0.09332  0.79613  0.57118  1.0000
  H   H2053     1.0  0.12782  0.74457  0.47664  1.0000
  C   C2050     1.0  0.16407  0.73917  0.57123  1.0000
  C   C2051     1.0  0.04321  0.74319  0.45940  1.0000
  Fe  Fe343     1.0  0.03988  0.74050  0.40384  1.0000
  H   H2054     1.0  0.19674  0.82023  0.57152  1.0000
  C   C2052     1.0  0.08644  0.76634  0.38522  1.0000
  C   C2053     1.0  0.04502  0.76068  0.56696  1.0000
  H   H2055     1.0  0.27904  0.87407  0.57893  1.0000
  H   H2056     1.0  0.26187  0.89391  0.38275  1.0000
  H   H2057     1.0  0.24364  0.90715  0.38277  1.0000
  H   H2058     1.0  0.09408  0.73822  0.58083  1.0000
  C   C2054     1.0  0.17168  0.86186  0.38241  1.0000
  H   H2059     1.0  0.01841  0.74989  0.61991  1.0000
  Fe  Fe344     1.0  0.22319  0.93020  0.61935  1.0000
  S   S687      1.0  0.23764  0.92785  0.60501  1.0000
  S   S688      1.0  0.21659  0.91501  0.62999  1.0000
  Fe  Fe345     1.0  0.22219  0.95535  0.61517  1.0000
  S   S689      1.0  0.23617  0.95480  0.60013  1.0000
  S   S690      1.0  0.21545  0.97264  0.61887  1.0000
  Fe  Fe346     1.0  0.22807  0.94346  0.59597  1.0000
  H   H2060     1.0  0.36751  0.88657  0.67816  1.0000
  Fe  Fe347     1.0  0.24422  0.93943  0.61058  1.0000
  S   S691      1.0  0.26221  0.93668  0.61076  1.0000
  S   S692      1.0  0.21308  0.94536  0.60997  1.0000
  S   S693      1.0  0.23081  0.94038  0.62598  1.0000
  Fe  Fe348     1.0  0.27124  0.88466  0.65021  1.0000
  S   S694      1.0  0.28913  0.88374  0.64119  1.0000
  S   S695      1.0  0.26155  0.90060  0.65505  1.0000
  Fe  Fe349     1.0  0.27190  0.86064  0.65108  1.0000
  S   S696      1.0  0.29022  0.85767  0.64294  1.0000
  S   S697      1.0  0.26243  0.84678  0.65629  1.0000
  Fe  Fe350     1.0  0.29239  0.86792  0.65387  1.0000
  S   S698      1.0  0.30481  0.86408  0.66533  1.0000
  Fe  Fe351     1.0  0.28490  0.87386  0.63129  1.0000
  S   S699      1.0  0.28897  0.87629  0.61249  1.0000
  S   S700      1.0  0.27441  0.86916  0.66309  1.0000
  S   S701      1.0  0.26667  0.87645  0.63928  1.0000
  Fe  Fe352     1.0  0.20679  0.86302  0.61291  1.0000
  S   S702      1.0  0.22412  0.85275  0.60859  1.0000
  S   S703      1.0  0.20567  0.88172  0.60773  1.0000
  Fe  Fe353     1.0  0.19581  0.84230  0.61874  1.0000
  S   S704      1.0  0.21263  0.83092  0.61533  1.0000
  S   S705      1.0  0.17951  0.83613  0.62196  1.0000
  Fe  Fe354     1.0  0.21848  0.84071  0.62407  1.0000
  S   S706      1.0  0.23007  0.83203  0.63590  1.0000
  Fe  Fe355     1.0  0.21637  0.84429  0.60038  1.0000
  N   N170      1.0  0.00395  0.74445  0.61963  1.0000
  S   S707      1.0  0.20124  0.85118  0.62890  1.0000
  S   S708      1.0  0.19947  0.85541  0.60344  1.0000
  Fe  Fe356     1.0  0.15247  0.76855  0.60629  1.0000
  S   S709      1.0  0.14487  0.78268  0.61500  1.0000
  S   S710      1.0  0.16041  0.75112  0.61358  1.0000
  C   C2055     1.0  0.34733  0.86189  0.67944  1.0000
  S   S711      1.0  0.14074  0.79804  0.59070  1.0000
  Fe  Fe357     1.0  0.15466  0.79290  0.60017  1.0000
  S   S712      1.0  0.16823  0.80177  0.60039  1.0000
  Fe  Fe358     1.0  0.13171  0.78658  0.60486  1.0000
  S   S713      1.0  0.11301  0.79017  0.61193  1.0000
  S   S714      1.0  0.16292  0.77826  0.59203  1.0000
  S   S715      1.0  0.13865  0.77145  0.59760  1.0000
  Fe  Fe359     1.0  0.33649  0.89281  0.69600  1.0000
  S   S716      1.0  0.32683  0.90115  0.71023  1.0000
  S   S717      1.0  0.32916  0.89316  0.68121  1.0000
  Fe  Fe360     1.0  0.35865  0.88830  0.70379  1.0000
  S   S718      1.0  0.35060  0.89587  0.71857  1.0000
  S   S719      1.0  0.37735  0.88138  0.69966  1.0000
  Fe  Fe361     1.0  0.33700  0.88705  0.72059  1.0000
  S   S720      1.0  0.32958  0.87991  0.73824  1.0000
  Fe  Fe362     1.0  0.34131  0.90928  0.70714  1.0000
  S   S721      1.0  0.33953  0.92743  0.70670  1.0000
  S   S722      1.0  0.34578  0.87807  0.70673  1.0000
  S   S723      1.0  0.35021  0.90235  0.69201  1.0000
  C   C2056     1.0  0.35094  0.87188  0.67472  1.0000
  H   H2061     1.0  0.34061  0.86027  0.67683  1.0000
  S   S724      1.0  0.36799  0.85231  0.76358  1.0000
  H   H2062     1.0  0.28927  0.84058  0.62579  1.0000
  C   C2057     1.0  0.14053  0.74852  0.62829  1.0000
  Fe  Fe363     1.0  0.06756  0.76968  0.59662  1.0000
  S   S725      1.0  0.36779  0.87401  0.77900  1.0000
  H   H2063     1.0  0.48137  0.88374  0.75035  1.0000
  Fe  Fe364     1.0  0.04362  0.76520  0.60363  1.0000
  H   H2064     1.0  0.00823  0.74830  0.63280  1.0000
  S   S726      1.0  0.02517  0.77134  0.60352  1.0000
  Fe  Fe365     1.0  0.06120  0.75207  0.61667  1.0000
  C   C2058     1.0  0.26644  0.92235  0.58939  1.0000
  S   S727      1.0  0.05413  0.77038  0.61218  1.0000
  S   S728      1.0  0.05620  0.76670  0.58756  1.0000
  C   C2059     1.0  0.01125  0.75197  0.58716  1.0000
  S   S729      1.0  0.48723  0.91630  0.74077  1.0000
  Fe  Fe366     1.0  0.37173  0.95401  0.74751  1.0000
  S   S730      1.0  0.37162  0.95708  0.76390  1.0000
  S   S731      1.0  0.38642  0.95324  0.73332  1.0000
  Fe  Fe367     1.0  0.34804  0.95102  0.75393  1.0000
  S   S732      1.0  0.34549  0.95416  0.77095  1.0000
  S   S733      1.0  0.33451  0.94672  0.74864  1.0000
  Fe  Fe368     1.0  0.35479  0.96799  0.76250  1.0000
  C   C2060     1.0  0.26808  0.82843  0.63320  1.0000
  Fe  Fe369     1.0  0.36251  0.94306  0.77085  1.0000
  H   H2065     1.0  0.24271  0.90662  0.63836  1.0000
  S   S734      1.0  0.35557  0.96594  0.74544  1.0000
  S   S735      1.0  0.36435  0.93894  0.75454  1.0000
  Fe  Fe370     1.0  0.42434  0.89817  0.71793  1.0000
  S   S736      1.0  0.41836  0.89288  0.73619  1.0000
  S   S737      1.0  0.40953  0.90590  0.70968  1.0000
  Fe  Fe371     1.0  0.44883  0.89376  0.72043  1.0000
  S   S738      1.0  0.44422  0.88788  0.73886  1.0000
  S   S739      1.0  0.46670  0.89589  0.71304  1.0000
  Fe  Fe372     1.0  0.43338  0.87892  0.73512  1.0000
  S   S740      1.0  0.43039  0.86223  0.74478  1.0000
  Fe  Fe373     1.0  0.42982  0.90247  0.73782  1.0000
  S   S741      1.0  0.42414  0.91370  0.74984  1.0000
  S   S742      1.0  0.43892  0.88350  0.71660  1.0000
  S   S743      1.0  0.43491  0.90889  0.71960  1.0000
  C   C2061     1.0  0.39723  0.94273  0.73794  1.0000
  C   C2062     1.0  0.39658  0.93831  0.74928  1.0000
  C   C2063     1.0  0.40516  0.92976  0.75294  1.0000
  C   C2064     1.0  0.41419  0.92530  0.74523  1.0000
  C   C2065     1.0  0.41481  0.92971  0.73390  1.0000
  C   C2066     1.0  0.40641  0.93851  0.73026  1.0000
  H   H2066     1.0  0.38948  0.94145  0.75527  1.0000
  H   H2067     1.0  0.40463  0.92639  0.76171  1.0000
  H   H2068     1.0  0.42176  0.92649  0.72788  1.0000
  H   H2069     1.0  0.40696  0.94191  0.72148  1.0000
  H   H2070     1.0  0.29973  0.92067  0.67303  1.0000
  C   C2067     1.0  0.11288  0.75835  0.62070  1.0000
  C   C2068     1.0  0.48237  0.90962  0.73328  1.0000
  C   C2069     1.0  0.47164  0.90738  0.73745  1.0000
  C   C2070     1.0  0.46686  0.90317  0.73130  1.0000
  C   C2071     1.0  0.47277  0.90103  0.72093  1.0000
  C   C2072     1.0  0.48363  0.90305  0.71682  1.0000
  C   C2073     1.0  0.48845  0.90731  0.72300  1.0000
  H   H2071     1.0  0.46688  0.90918  0.74538  1.0000
  H   H2072     1.0  0.45845  0.90190  0.73449  1.0000
  H   H2073     1.0  0.48828  0.90145  0.70879  1.0000
  C   C2074     1.0  0.39939  0.87277  0.74199  1.0000
  C   C2075     1.0  0.01985  0.76381  0.59727  1.0000
  N   N171      1.0  0.17424  0.78312  0.62479  1.0000
  C   C2076     1.0  0.35231  0.85415  0.68763  1.0000
  Fe  Fe374     1.0  0.36644  0.85684  0.77972  1.0000
  C   C2077     1.0  0.25185  0.96606  0.61568  1.0000
  C   C2078     1.0  0.00849  0.76672  0.59680  1.0000
  H   H2074     1.0  0.22914  0.88221  0.64966  1.0000
  H   H2075     1.0  0.03559  0.75251  0.59314  1.0000
  C   C2079     1.0  0.36440  0.86641  0.68592  1.0000
  H   H2076     1.0  0.07671  0.76516  0.62108  1.0000
  C   C2080     1.0  0.42123  0.87379  0.76124  1.0000
  C   C2081     1.0  0.42161  0.86441  0.75747  1.0000
  C   C2082     1.0  0.41392  0.85766  0.76305  1.0000
  C   C2083     1.0  0.46529  0.93070  0.71474  1.0000
  C   C2084     1.0  0.25995  0.97596  0.62387  1.0000
  H   H2077     1.0  0.42718  0.87900  0.75702  1.0000
  H   H2078     1.0  0.41411  0.85046  0.76008  1.0000
  C   C2085     1.0  0.46132  0.93399  0.73319  1.0000
  H   H2079     1.0  0.33156  0.90378  0.76647  1.0000
  C   C2086     1.0  0.24286  0.89459  0.62509  1.0000
  C   C2087     1.0  0.17371  0.85066  0.59526  1.0000
  C   C2088     1.0  0.23863  0.89960  0.64320  1.0000
  C   C2089     1.0  0.02682  0.75483  0.59286  1.0000
  C   C2090     1.0  0.33875  0.93235  0.71850  1.0000
  C   C2091     1.0  0.34492  0.92641  0.72663  1.0000
  C   C2092     1.0  0.34438  0.93109  0.73558  1.0000
  C   C2093     1.0  0.33753  0.94162  0.73648  1.0000
  C   C2094     1.0  0.33149  0.94747  0.72832  1.0000
  C   C2095     1.0  0.33225  0.94296  0.71930  1.0000
  H   H2080     1.0  0.35008  0.91826  0.72599  1.0000
  H   H2081     1.0  0.34887  0.92639  0.74201  1.0000
  H   H2082     1.0  0.32603  0.95548  0.72904  1.0000
  H   H2083     1.0  0.32756  0.94765  0.71301  1.0000
  C   C2096     1.0  0.38626  0.88796  0.70290  1.0000
  C   C2097     1.0  0.38194  0.89634  0.70896  1.0000
  C   C2098     1.0  0.38919  0.90131  0.71156  1.0000
  C   C2099     1.0  0.40083  0.89804  0.70808  1.0000
  C   C2100     1.0  0.40518  0.88955  0.70217  1.0000
  C   C2101     1.0  0.39792  0.88452  0.69962  1.0000
  H   H2084     1.0  0.37301  0.89910  0.71153  1.0000
  H   H2085     1.0  0.38575  0.90787  0.71612  1.0000
  H   H2086     1.0  0.41414  0.88715  0.69920  1.0000
  H   H2087     1.0  0.40135  0.87807  0.69490  1.0000
  C   C2102     1.0  0.34001  0.87175  0.74542  1.0000
  C   C2103     1.0  0.35019  0.86635  0.73973  1.0000
  C   C2104     1.0  0.35853  0.85997  0.74550  1.0000
  C   C2105     1.0  0.35697  0.85945  0.75684  1.0000
  C   C2106     1.0  0.34684  0.86494  0.76251  1.0000
  C   C2107     1.0  0.33827  0.87085  0.75686  1.0000
  H   H2088     1.0  0.35154  0.86691  0.73093  1.0000
  H   H2089     1.0  0.36628  0.85556  0.74114  1.0000
  H   H2090     1.0  0.34555  0.86449  0.77129  1.0000
  H   H2091     1.0  0.33034  0.87485  0.76133  1.0000
  C   C2108     1.0  0.10406  0.78701  0.60535  1.0000
  C   C2109     1.0  0.10832  0.78148  0.59658  1.0000
  C   C2110     1.0  0.10103  0.77874  0.59176  1.0000
  C   C2111     1.0  0.08940  0.78167  0.59552  1.0000
  C   C2112     1.0  0.08511  0.78706  0.60439  1.0000
  C   C2113     1.0  0.09242  0.78971  0.60928  1.0000
  H   H2092     1.0  0.11721  0.77941  0.59337  1.0000
  H   H2093     1.0  0.23002  0.90332  0.64726  1.0000
  H   H2094     1.0  0.07615  0.78957  0.60721  1.0000
  H   H2095     1.0  0.08902  0.79404  0.61603  1.0000
  H   H2096     1.0  0.26883  0.82485  0.64172  1.0000
  N   N172      1.0  0.38882  0.90394  0.76354  1.0000
  C   C2114     1.0  0.36841  0.98685  0.77168  1.0000
  H   H2097     1.0  0.12523  0.74611  0.64020  1.0000
  N   N173      1.0  0.25612  0.98575  0.61707  1.0000
  H   H2098     1.0  0.00304  0.77365  0.60023  1.0000
  H   H2099     1.0  0.13886  0.75735  0.62795  1.0000
  C   C2115     1.0  0.32328  0.92519  0.76662  1.0000
  C   C2116     1.0  0.17656  0.82651  0.61590  1.0000
  C   C2117     1.0  0.16543  0.82539  0.61780  1.0000
  C   C2118     1.0  0.16268  0.81791  0.61317  1.0000
  C   C2119     1.0  0.17107  0.81134  0.60661  1.0000
  C   C2120     1.0  0.18220  0.81244  0.60474  1.0000
  C   C2121     1.0  0.18494  0.81998  0.60930  1.0000
  H   H2100     1.0  0.15885  0.83038  0.62289  1.0000
  H   H2101     1.0  0.15407  0.81723  0.61469  1.0000
  H   H2102     1.0  0.18879  0.80745  0.59967  1.0000
  H   H2103     1.0  0.19354  0.82071  0.60772  1.0000
  C   C2122     1.0  0.31108  0.87257  0.66981  1.0000
  C   C2123     1.0  0.31434  0.86872  0.68009  1.0000
  C   C2124     1.0  0.31966  0.87495  0.68383  1.0000
  C   C2125     1.0  0.32211  0.88502  0.67719  1.0000
  C   C2126     1.0  0.31893  0.88884  0.66688  1.0000
  C   C2127     1.0  0.31335  0.88276  0.66327  1.0000
  H   H2104     1.0  0.31269  0.86085  0.68523  1.0000
  H   H2105     1.0  0.32198  0.87186  0.69179  1.0000
  H   H2106     1.0  0.32076  0.89660  0.66163  1.0000
  H   H2107     1.0  0.31105  0.88582  0.65530  1.0000
  C   C2128     1.0  0.25221  0.84448  0.65065  1.0000
  C   C2129     1.0  0.24917  0.85084  0.64068  1.0000
  C   C2130     1.0  0.24173  0.84765  0.63625  1.0000
  C   C2131     1.0  0.23744  0.83807  0.64177  1.0000
  C   C2132     1.0  0.24037  0.83199  0.65177  1.0000
  C   C2133     1.0  0.24760  0.83519  0.65618  1.0000
  H   H2108     1.0  0.25280  0.85796  0.63625  1.0000
  H   H2109     1.0  0.23975  0.85225  0.62836  1.0000
  H   H2110     1.0  0.23722  0.82455  0.65604  1.0000
  H   H2111     1.0  0.24987  0.83021  0.66385  1.0000
  C   C2134     1.0  0.28094  0.84038  0.63145  1.0000
  H   H2112     1.0  0.37495  0.89831  0.77524  1.0000
  C   C2135     1.0  0.20284  0.90407  0.58463  1.0000
  H   H2113     1.0  0.23573  0.87424  0.61784  1.0000
  H   H2114     1.0  0.18171  0.76768  0.61976  1.0000
  C   C2136     1.0  0.27256  0.84120  0.61622  1.0000
  H   H2115     1.0  0.40277  0.90517  0.76908  1.0000
  H   H2116     1.0  0.37108  0.86810  0.68853  1.0000
  H   H2117     1.0  0.25003  0.95840  0.61527  1.0000
  H   H2118     1.0  0.17098  0.85868  0.58965  1.0000
  C   C2137     1.0  0.28321  0.87510  0.59380  1.0000
  C   C2138     1.0  0.28010  0.87367  0.60539  1.0000
  C   C2139     1.0  0.27014  0.87015  0.61097  1.0000
  C   C2140     1.0  0.26664  0.86930  0.59345  1.0000
  C   C2141     1.0  0.39367  0.90526  0.77210  1.0000
  H   H2119     1.0  0.16571  0.83608  0.58989  1.0000
  C   C2142     1.0  0.41305  0.87657  0.77043  1.0000
  H   H2120     1.0  0.28013  0.90673  0.66014  1.0000
  C   C2143     1.0  0.26329  0.92710  0.62319  1.0000
  C   C2144     1.0  0.26879  0.91610  0.62296  1.0000
  C   C2145     1.0  0.26819  0.90798  0.63277  1.0000
  C   C2146     1.0  0.26238  0.91088  0.64288  1.0000
  C   C2147     1.0  0.25700  0.92192  0.64314  1.0000
  C   C2148     1.0  0.25736  0.93003  0.63326  1.0000
  H   H2121     1.0  0.27320  0.91377  0.61516  1.0000
  H   H2122     1.0  0.27206  0.89945  0.63242  1.0000
  H   H2123     1.0  0.25234  0.92415  0.65092  1.0000
  H   H2124     1.0  0.25286  0.93849  0.63341  1.0000
  C   C2149     1.0  0.21446  0.90518  0.62381  1.0000
  C   C2150     1.0  0.20890  0.89675  0.63046  1.0000
  C   C2151     1.0  0.20682  0.88898  0.62576  1.0000
  C   C2152     1.0  0.21034  0.88954  0.61434  1.0000
  C   C2153     1.0  0.21635  0.89766  0.60778  1.0000
  C   C2154     1.0  0.21830  0.90551  0.61245  1.0000
  H   H2125     1.0  0.20591  0.89642  0.63926  1.0000
  H   H2126     1.0  0.20204  0.88288  0.63088  1.0000
  H   H2127     1.0  0.21927  0.89805  0.59898  1.0000
  H   H2128     1.0  0.22269  0.91187  0.60724  1.0000
  H   H2129     1.0  0.26765  0.86890  0.61988  1.0000
  H   H2130     1.0  0.35554  0.89159  0.67198  1.0000
  N   N174      1.0  0.35925  0.87409  0.67811  1.0000
  C   C2155     1.0  0.22246  0.97801  0.62567  1.0000
  C   C2156     1.0  0.22782  0.97123  0.63409  1.0000
  C   C2157     1.0  0.23245  0.97595  0.64001  1.0000
  C   C2158     1.0  0.45515  0.92737  0.71731  1.0000
  H   H2131     1.0  0.22807  0.96239  0.63628  1.0000
  H   H2132     1.0  0.23627  0.97068  0.64674  1.0000
  N   N175      1.0  0.40058  0.87120  0.73159  1.0000
  C   C2159     1.0  0.39142  0.87128  0.72794  1.0000
  C   C2160     1.0  0.38072  0.87298  0.73477  1.0000
  C   C2161     1.0  0.37949  0.87420  0.74553  1.0000
  C   C2162     1.0  0.41178  0.86961  0.72438  1.0000
  H   H2133     1.0  0.39231  0.86993  0.71975  1.0000
  H   H2134     1.0  0.37349  0.87314  0.73177  1.0000
  H   H2135     1.0  0.37130  0.87504  0.75108  1.0000
  H   H2136     1.0  0.41771  0.86292  0.72878  1.0000
  H   H2137     1.0  0.41488  0.87743  0.72198  1.0000
  N   N176      1.0  0.36940  0.94382  0.71410  1.0000
  C   C2163     1.0  0.36362  0.94112  0.70802  1.0000
  C   C2164     1.0  0.38052  0.93910  0.71359  1.0000
  C   C2165     1.0  0.36895  0.93347  0.70125  1.0000
  C   C2166     1.0  0.38617  0.93157  0.70674  1.0000
  C   C2167     1.0  0.38032  0.92873  0.70056  1.0000
  C   C2168     1.0  0.36360  0.95139  0.72162  1.0000
  H   H2138     1.0  0.38509  0.94115  0.71848  1.0000
  C   C2169     1.0  0.38889  0.87406  0.74920  1.0000
  H   H2139     1.0  0.39500  0.92786  0.70632  1.0000
  H   H2140     1.0  0.38459  0.92276  0.69535  1.0000
  H   H2141     1.0  0.35538  0.95624  0.71976  1.0000
  H   H2142     1.0  0.36209  0.94657  0.73030  1.0000
  H   H2143     1.0  0.36871  0.95744  0.72094  1.0000
  H   H2144     1.0  0.25509  0.84320  0.58698  1.0000
  H   H2145     1.0  0.26349  0.84280  0.60373  1.0000
  C   C2170     1.0  0.18444  0.79452  0.62845  1.0000
  C   C2171     1.0  0.38900  0.90606  0.74432  1.0000
  N   N177      1.0  0.18006  0.84224  0.58880  1.0000
  H   H2146     1.0  0.25252  0.82863  0.61546  1.0000
  H   H2147     1.0  0.28643  0.88420  0.66594  1.0000
  C   C2172     1.0  0.18413  0.78608  0.62363  1.0000
  H   H2148     1.0  0.29097  0.87766  0.58941  1.0000
  S   S744      1.0  0.22189  0.84152  0.58303  1.0000
  C   C2173     1.0  0.16446  0.79716  0.63529  1.0000
  H   H2149     1.0  0.15667  0.80168  0.63955  1.0000
  N   N178      1.0  0.27388  0.83637  0.62680  1.0000
  H   H2150     1.0  0.17367  0.77809  0.61062  1.0000
  H   H2151     1.0  0.25564  0.81934  0.63430  1.0000
  S   S745      1.0  0.07520  0.75166  0.60168  1.0000
  C   C2174     1.0  0.36290  0.88459  0.67297  1.0000
  H   H2152     1.0  0.27725  0.84742  0.61114  1.0000
  C   C2175     1.0  0.23664  0.87922  0.62303  1.0000
  H   H2153     1.0  0.48186  0.87893  0.73281  1.0000
  C   C2176     1.0  0.02254  0.74897  0.58780  1.0000
  H   H2154     1.0  0.40172  0.90938  0.75020  1.0000
  C   C2177     1.0  0.26490  0.83850  0.61193  1.0000
  H   H2155     1.0  0.16628  0.84799  0.60125  1.0000
  H   H2156     1.0  0.28224  0.83512  0.63965  1.0000
  H   H2157     1.0  0.43530  0.93348  0.74639  1.0000
  H   H2158     1.0  0.10003  0.77173  0.62612  1.0000
  C   C2178     1.0  0.11522  0.74798  0.61804  1.0000
  H   H2159     1.0  0.28824  0.92248  0.65947  1.0000
  C   C2179     1.0  0.36094  0.85638  0.69088  1.0000
  C   C2180     1.0  0.17454  0.80009  0.63432  1.0000
  C   C2181     1.0  0.26060  0.82529  0.62906  1.0000
  H   H2160     1.0  0.27313  0.88957  0.67434  1.0000
  H   H2161     1.0  0.00556  0.75995  0.62139  1.0000
  H   H2162     1.0  0.29454  0.88762  0.68756  1.0000
  C   C2182     1.0  0.26350  0.86787  0.60504  1.0000
  C   C2183     1.0  0.28955  0.91491  0.66575  1.0000
  C   C2184     1.0  0.40505  0.87012  0.77571  1.0000
  C   C2185     1.0  0.17408  0.77443  0.61943  1.0000
  C   C2186     1.0  0.25883  0.83054  0.61845  1.0000
  C   C2187     1.0  0.10174  0.76377  0.62387  1.0000
  H   H2163     1.0  0.33269  0.89408  0.75181  1.0000
  N   N179      1.0  0.32354  0.91951  0.75805  1.0000
  C   C2188     1.0  0.32828  0.90841  0.75917  1.0000
  C   C2189     1.0  0.31950  0.92536  0.74880  1.0000
  C   C2190     1.0  0.32896  0.90287  0.75094  1.0000
  C   C2191     1.0  0.32003  0.92006  0.74042  1.0000
  C   C2192     1.0  0.32478  0.90874  0.74153  1.0000
  C   C2193     1.0  0.46839  0.93408  0.72269  1.0000
  H   H2164     1.0  0.12383  0.74357  0.61581  1.0000
  H   H2165     1.0  0.31608  0.93424  0.74772  1.0000
  H   H2166     1.0  0.20818  0.98406  0.64983  1.0000
  H   H2167     1.0  0.31702  0.92475  0.73300  1.0000
  H   H2168     1.0  0.32530  0.90450  0.73509  1.0000
  H   H2169     1.0  0.36584  0.89725  0.76103  1.0000
  H   H2170     1.0  0.35482  0.94482  0.70841  1.0000
  H   H2171     1.0  0.39277  0.89835  0.77950  1.0000
  H   H2172     1.0  0.07757  0.76045  0.63545  1.0000
  H   H2173     1.0  0.38930  0.91326  0.77465  1.0000
  H   H2174     1.0  0.47647  0.93624  0.72096  1.0000
  C   C2194     1.0  0.23196  0.98744  0.63743  1.0000
  H   H2175     1.0  0.25601  0.86482  0.60946  1.0000
  H   H2176     1.0  0.38810  0.87478  0.75762  1.0000
  C   C2195     1.0  0.16445  0.78866  0.63039  1.0000
  H   H2177     1.0  0.17463  0.80691  0.63778  1.0000
  H   H2178     1.0  0.44648  0.93477  0.75166  1.0000
  H   H2179     1.0  0.46409  0.93610  0.73947  1.0000
  H   H2180     1.0  0.36848  0.88410  0.66471  1.0000
  C   C2196     1.0  0.13284  0.74216  0.63523  1.0000
  H   H2181     1.0  0.27680  0.84892  0.63272  1.0000
  H   H2182     1.0  0.24695  0.90154  0.62136  1.0000
  H   H2183     1.0  0.08079  0.77365  0.62760  1.0000
  C   C2197     1.0  0.10644  0.74322  0.61846  1.0000
  C   C2198     1.0  0.00416  0.76076  0.59182  1.0000
  H   H2184     1.0  0.25815  0.93966  0.58780  1.0000
  C   C2199     1.0  0.19908  0.91066  0.59251  1.0000
  H   H2185     1.0  0.32021  0.92034  0.77501  1.0000
  H   H2186     1.0  0.33183  0.92626  0.76600  1.0000
  N   N180      1.0  0.23816  0.89251  0.63619  1.0000
  C   C2200     1.0  0.40555  0.86061  0.77209  1.0000
  H   H2187     1.0  0.16678  0.77050  0.62355  1.0000
  C   C2201     1.0  0.44825  0.92743  0.72787  1.0000
  H   H2188     1.0  0.37246  0.97911  0.76907  1.0000
  H   H2189     1.0  0.41183  0.86719  0.71669  1.0000
  C   C2202     1.0  0.08151  0.76492  0.62721  1.0000
  H   H2190     1.0  0.34689  0.87795  0.66849  1.0000
  C   C2203     1.0  0.29760  0.90410  0.68136  1.0000
  H   H2191     1.0  0.34946  0.84645  0.69147  1.0000
  C   C2204     1.0  0.28499  0.90599  0.66617  1.0000
  H   H2192     1.0  0.15655  0.78664  0.63094  1.0000
  H   H2193     1.0  0.40662  0.87288  0.74477  1.0000
  H   H2194     1.0  0.22758  0.87035  0.63808  1.0000
  C   C2205     1.0  0.27564  0.90269  0.59026  1.0000
  C   C2206     1.0  0.29595  0.91391  0.67337  1.0000
  S   S746      1.0  0.04974  0.74690  0.60947  1.0000
  C   C2207     1.0  0.28232  0.88702  0.67380  1.0000
  C   C2208     1.0  0.09540  0.74901  0.62137  1.0000
  H   H2195     1.0  0.36486  0.85044  0.69728  1.0000
  H   H2196     1.0  0.24572  0.88974  0.60951  1.0000
  H   H2197     1.0  0.44056  0.92449  0.72997  1.0000
  C   C2209     1.0  0.29290  0.89535  0.68155  1.0000
  H   H2198     1.0  0.49436  0.89447  0.75683  1.0000
  H   H2199     1.0  0.19564  0.84688  0.58624  1.0000
  C   C2210     1.0  0.24219  0.88797  0.61835  1.0000
  N   N181      1.0  0.28673  0.89637  0.67398  1.0000
  C   C2211     1.0  0.25012  0.98591  0.60965  1.0000
  H   H2200     1.0  0.24282  0.97625  0.60322  1.0000
  H   H2201     1.0  0.37494  0.90219  0.74098  1.0000
  C   C2212     1.0  0.37884  0.90267  0.74732  1.0000
  H   H2202     1.0  0.39310  0.90821  0.73564  1.0000
  H   H2203     1.0  0.19225  0.79700  0.62735  1.0000
  H   H2204     1.0  0.21893  0.86278  0.58790  1.0000
  H   H2205     1.0  0.19180  0.78202  0.61879  1.0000
  H   H2206     1.0  0.26447  0.97589  0.62994  1.0000
  H   H2207     1.0  0.11961  0.76219  0.62038  1.0000
  H   H2208     1.0  0.17886  0.85194  0.60035  1.0000
  H   H2209     1.0  0.24340  0.89467  0.64965  1.0000
  H   H2210     1.0  0.47091  0.93029  0.70673  1.0000
  H   H2211     1.0  0.49357  0.88046  0.76452  1.0000
  C   C2213     1.0  0.44425  0.93004  0.74680  1.0000
  S   S747      1.0  0.34907  0.98510  0.76668  1.0000
  C   C2214     1.0  0.15052  0.74339  0.62208  1.0000
  H   H2212     1.0  0.36423  0.93120  0.69664  1.0000
  C   C2215     1.0  0.48957  0.87918  0.73475  1.0000
  N   N182      1.0  0.45136  0.93075  0.73562  1.0000
  H   H2213     1.0  0.20044  0.92533  0.59677  1.0000
  C   C2216     1.0  0.00929  0.75093  0.62366  1.0000
  C   C2217     1.0  0.37375  0.89988  0.75852  1.0000
  H   H2214     1.0  0.28399  0.87977  0.68069  1.0000
  N   N183      1.0  0.09317  0.75918  0.62397  1.0000
  C   C2218     1.0  0.23288  0.88382  0.64087  1.0000
  H   H2215     1.0  0.30281  0.90312  0.68714  1.0000
  C   C2219     1.0  0.23201  0.87707  0.63437  1.0000
  H   H2216     1.0  0.45286  0.92433  0.71131  1.0000
  S   S748      1.0  0.08047  0.78017  0.58789  1.0000
  H   H2217     1.0  0.16047  0.73884  0.59820  1.0000
  H   H2218     1.0  0.44511  0.92120  0.75128  1.0000
  C   C2220     1.0  0.37891  0.90054  0.76656  1.0000
  C   C2221     1.0  0.39386  0.90670  0.75259  1.0000
  H   H2219     1.0  0.49671  0.90911  0.71966  1.0000
  H   H2220     1.0  0.19354  0.90797  0.60033  1.0000
  S   S749      1.0  0.06591  0.74465  0.63308  1.0000
  Fe  Fe375     1.0  0.06295  0.74868  0.59385  1.0000
  H   H2221     1.0  0.26392  0.92060  0.59835  1.0000
  C   C2222     1.0  0.25793  0.96597  0.62324  1.0000
  C   C2223     1.0  0.48935  0.88187  0.74466  1.0000
  C   C2224     1.0  0.24787  0.97608  0.60886  1.0000
  H   H2222     1.0  0.41279  0.88386  0.77327  1.0000
  H   H2223     1.0  0.31772  0.93361  0.76566  1.0000
  H   H2224     1.0  0.26091  0.95820  0.62866  1.0000
  H   H2225     1.0  0.39945  0.85555  0.77615  1.0000
  H   H2226     1.0  0.08860  0.74532  0.62160  1.0000
  H   H2227     1.0  0.20020  0.89628  0.58631  1.0000
  H   H2228     1.0  0.02805  0.74213  0.58427  1.0000
  H   H2229     1.0  0.10445  0.77451  0.58497  1.0000
  C   C2225     1.0  0.20300  0.92034  0.59053  1.0000
  H   H2230     1.0  0.17110  0.75333  0.58493  1.0000
  C   C2226     1.0  0.27644  0.87309  0.58784  1.0000
  C   C2227     1.0  0.17462  0.83552  0.58657  1.0000
  H   H2231     1.0  0.27547  0.90243  0.59904  1.0000
  H   H2232     1.0  0.15715  0.75923  0.58259  1.0000
  H   H2233     1.0  0.34765  0.92769  0.77824  1.0000
  C   C2228     1.0  0.26316  0.93317  0.58346  1.0000
  H   H2234     1.0  0.26971  0.89779  0.59014  1.0000
  S   S750      1.0  0.25880  0.86520  0.58638  1.0000
  H   H2235     1.0  0.24480  0.83697  0.58532  1.0000
  H   H2236     1.0  0.23725  0.92227  0.58489  1.0000
  H   H2237     1.0  0.28428  0.89863  0.58665  1.0000
  N   N184      1.0  0.27266  0.91409  0.58398  1.0000
  Fe  Fe376     1.0  0.14829  0.78248  0.58400  1.0000
  C   C2229     1.0  0.19131  0.84145  0.58465  1.0000
  H   H2238     1.0  0.38283  0.98815  0.77669  1.0000
  Fe  Fe377     1.0  0.36573  0.76611  0.86815  1.0000
  S   S751      1.0  0.34916  0.77472  0.87669  1.0000
  S   S752      1.0  0.36639  0.75536  0.85681  1.0000
  Fe  Fe378     1.0  0.37849  0.77694  0.87725  1.0000
  S   S753      1.0  0.36296  0.78651  0.88658  1.0000
  S   S754      1.0  0.39500  0.77796  0.87926  1.0000
  Fe  Fe379     1.0  0.35718  0.77044  0.89130  1.0000
  S   S755      1.0  0.34982  0.76080  0.90799  1.0000
  Fe  Fe380     1.0  0.35672  0.78988  0.87089  1.0000
  S   S756      1.0  0.34690  0.80636  0.86280  1.0000
  S   S757      1.0  0.37325  0.76063  0.88305  1.0000
  S   S758      1.0  0.37280  0.78141  0.86129  1.0000
  Fe  Fe381     1.0  0.36594  0.84926  0.80453  1.0000
  H   H2239     1.0  0.39372  0.75212  0.95290  1.0000
  S   S759      1.0  0.37034  0.83293  0.81674  1.0000
  H   H2240     1.0  0.39623  0.75256  0.89865  1.0000
  C   C2230     1.0  0.37060  0.79124  0.82629  1.0000
  N   N185      1.0  0.38654  0.84703  0.82526  1.0000
  S   S760      1.0  0.36712  0.86608  0.80592  1.0000
  S   S761      1.0  0.36081  0.76798  0.95035  1.0000
  N   N186      1.0  0.38754  0.74632  0.91483  1.0000
  H   H2241     1.0  0.39945  0.75822  0.93265  1.0000
  N   N187      1.0  0.35279  0.79058  0.83889  1.0000
  C   C2231     1.0  0.40213  0.74896  0.94867  1.0000
  C   C2232     1.0  0.40546  0.75269  0.93725  1.0000
  H   H2242     1.0  0.39800  0.75823  0.90923  1.0000
  C   C2233     1.0  0.35357  0.81443  0.85050  1.0000
  C   C2234     1.0  0.34726  0.82401  0.84478  1.0000
  C   C2235     1.0  0.35229  0.83011  0.83456  1.0000
  C   C2236     1.0  0.36364  0.82657  0.83000  1.0000
  C   C2237     1.0  0.36997  0.81721  0.83588  1.0000
  C   C2238     1.0  0.36499  0.81120  0.84608  1.0000
  H   H2243     1.0  0.33843  0.82662  0.84818  1.0000
  H   H2244     1.0  0.34733  0.83733  0.83010  1.0000
  H   H2245     1.0  0.37876  0.81441  0.83244  1.0000
  H   H2246     1.0  0.36999  0.80402  0.85046  1.0000
  C   C2239     1.0  0.40514  0.76612  0.87654  1.0000
  C   C2240     1.0  0.40408  0.75993  0.86956  1.0000
  C   C2241     1.0  0.36440  0.90774  0.79366  1.0000
  C   C2242     1.0  0.41410  0.76254  0.88186  1.0000
  H   H2247     1.0  0.42846  0.74971  0.88500  1.0000
  H   H2248     1.0  0.41498  0.76725  0.88727  1.0000
  C   C2243     1.0  0.35284  0.76294  0.91972  1.0000
  C   C2244     1.0  0.35592  0.77271  0.91943  1.0000
  C   C2245     1.0  0.35807  0.77429  0.92898  1.0000
  C   C2246     1.0  0.35770  0.76591  0.93865  1.0000
  C   C2247     1.0  0.35484  0.75605  0.93887  1.0000
  C   C2248     1.0  0.35213  0.75470  0.92950  1.0000
  H   H2249     1.0  0.35622  0.77921  0.91200  1.0000
  H   H2250     1.0  0.35986  0.78206  0.92896  1.0000
  H   H2251     1.0  0.35441  0.74960  0.94635  1.0000
  S   S762      1.0  0.35410  0.74073  0.97409  1.0000
  C   C2249     1.0  0.33057  0.74937  0.89983  1.0000
  H   H2252     1.0  0.37452  0.94568  0.79243  1.0000
  Fe  Fe382     1.0  0.35484  0.87298  0.79476  1.0000
  Fe  Fe383     1.0  0.36523  0.75212  0.96273  1.0000
  H   H2253     1.0  0.40128  0.74162  0.92286  1.0000
  H   H2254     1.0  0.35462  0.95259  0.79157  1.0000
  H   H2255     1.0  0.40880  0.85444  0.79871  1.0000
  H   H2256     1.0  0.35020  0.77641  0.85207  1.0000
  H   H2257     1.0  0.37932  0.78737  0.82361  1.0000
  S   S763      1.0  0.39432  0.87429  0.78657  1.0000
  C   C2250     1.0  0.41200  0.75009  0.86802  1.0000
  H   H2258     1.0  0.40555  0.83519  0.80526  1.0000
  S   S764      1.0  0.34263  0.88947  0.79413  1.0000
  S   S765      1.0  0.41983  0.75238  0.91728  1.0000
  C   C2251     1.0  0.39189  0.75539  0.90647  1.0000
  C   C2252     1.0  0.35912  0.89886  0.79560  1.0000
  H   H2259     1.0  0.35157  0.81523  0.82040  1.0000
  C   C2253     1.0  0.35900  0.95795  0.79321  1.0000
  H   H2260     1.0  0.39124  0.83063  0.82221  1.0000
  H   H2261     1.0  0.39755  0.86889  0.80921  1.0000
  C   C2254     1.0  0.35553  0.73994  0.85641  1.0000
  H   H2262     1.0  0.38302  0.86413  0.82593  1.0000
  C   C2255     1.0  0.39639  0.86041  0.81220  1.0000
  C   C2256     1.0  0.42065  0.74625  0.87380  1.0000
  H   H2263     1.0  0.33346  0.75631  0.90053  1.0000
  H   H2264     1.0  0.34958  0.74720  0.92985  1.0000
  C   C2257     1.0  0.34540  0.91088  0.78533  1.0000
  H   H2265     1.0  0.32958  0.75636  0.88272  1.0000
  S   S766      1.0  0.36712  0.92915  0.78494  1.0000
  C   C2258     1.0  0.37753  0.84449  0.83488  1.0000
  H   H2266     1.0  0.33984  0.80510  0.83665  1.0000
  H   H2267     1.0  0.39722  0.76276  0.86533  1.0000
  C   C2259     1.0  0.39276  0.83898  0.81955  1.0000
  H   H2268     1.0  0.36939  0.84714  0.83225  1.0000
  C   C2260     1.0  0.35680  0.74068  0.87464  1.0000
  H   H2269     1.0  0.35722  0.74299  0.84752  1.0000
  H   H2270     1.0  0.36234  0.89086  0.80045  1.0000
  S   S767      1.0  0.35233  0.85615  0.79471  1.0000
  S   S768      1.0  0.37988  0.84892  0.78932  1.0000
  Fe  Fe384     1.0  0.37988  0.86614  0.78999  1.0000
  H   H2271     1.0  0.33643  0.96975  0.80235  1.0000
  H   H2272     1.0  0.37881  0.83544  0.83860  1.0000
  H   H2273     1.0  0.34207  0.78961  0.85484  1.0000
  C   C2261     1.0  0.35911  0.97507  0.79699  1.0000
  H   H2274     1.0  0.36723  0.77732  0.83955  1.0000
  C   C2262     1.0  0.40271  0.85228  0.80629  1.0000
  H   H2275     1.0  0.37708  0.84883  0.84143  1.0000
  C   C2263     1.0  0.38819  0.85766  0.82165  1.0000
  N   N188      1.0  0.39040  0.78181  0.92261  1.0000
  C   C2264     1.0  0.38444  0.78598  0.91444  1.0000
  C   C2265     1.0  0.40185  0.77902  0.91994  1.0000
  C   C2266     1.0  0.38994  0.78761  0.90327  1.0000
  C   C2267     1.0  0.40761  0.78041  0.90886  1.0000
  C   C2268     1.0  0.40160  0.78480  0.90049  1.0000
  C   C2269     1.0  0.38442  0.77962  0.93424  1.0000
  H   H2276     1.0  0.37537  0.78803  0.91650  1.0000
  H   H2277     1.0  0.40663  0.77544  0.92637  1.0000
  H   H2278     1.0  0.38521  0.79084  0.89678  1.0000
  H   H2279     1.0  0.41667  0.77783  0.90680  1.0000
  H   H2280     1.0  0.40595  0.78586  0.89184  1.0000
  H   H2281     1.0  0.37670  0.78613  0.93581  1.0000
  H   H2282     1.0  0.38193  0.77149  0.93640  1.0000
  H   H2283     1.0  0.38968  0.77936  0.93997  1.0000
  C   C2270     1.0  0.41630  0.74864  0.93172  1.0000
  C   C2271     1.0  0.40088  0.84150  0.80996  1.0000
  C   C2272     1.0  0.32468  0.74057  0.88870  1.0000
  H   H2284     1.0  0.47107  0.74318  0.89966  1.0000
  C   C2273     1.0  0.37027  0.95396  0.79375  1.0000
  S   S769      1.0  0.37411  0.75190  0.97571  1.0000
  C   C2274     1.0  0.42175  0.75256  0.88061  1.0000
  H   H2285     1.0  0.38500  0.76269  0.90473  1.0000
  H   H2286     1.0  0.48355  0.75139  0.90533  1.0000
  H   H2287     1.0  0.33858  0.78333  0.84557  1.0000
  C   C2275     1.0  0.48706  0.74480  0.90076  1.0000
  H   H2288     1.0  0.37323  0.74883  0.90812  1.0000
  C   C2276     1.0  0.36032  0.91815  0.78736  1.0000
  C   C2277     1.0  0.35500  0.80683  0.82445  1.0000
  H   H2289     1.0  0.35949  0.74431  0.87987  1.0000
  H   H2290     1.0  0.37168  0.90651  0.79700  1.0000
  H   H2291     1.0  0.33962  0.98167  0.79156  1.0000
  C   C2278     1.0  0.36373  0.78562  0.83534  1.0000
  C   C2279     1.0  0.37038  0.97134  0.79761  1.0000
  C   C2280     1.0  0.34952  0.90044  0.79155  1.0000
  H   H2292     1.0  0.37143  0.80649  0.81392  1.0000
  N   N189      1.0  0.35363  0.96846  0.79463  1.0000
  C   C2281     1.0  0.40954  0.74096  0.95457  1.0000
  H   H2293     1.0  0.37475  0.97677  0.79915  1.0000
  C   C2282     1.0  0.34841  0.80106  0.83362  1.0000
  C   C2283     1.0  0.36618  0.80190  0.82082  1.0000
  C   C2284     1.0  0.35897  0.74471  0.86312  1.0000
  C   C2285     1.0  0.34178  0.97245  0.79414  1.0000
  C   C2286     1.0  0.32829  0.74951  0.88975  1.0000
  N   N190      1.0  0.32927  0.74060  0.90864  1.0000
  C   C2287     1.0  0.37600  0.96074  0.79590  1.0000
  H   H2294     1.0  0.38478  0.95780  0.79621  1.0000
  C   C2288     1.0  0.34557  0.78467  0.84830  1.0000
  C   C2289     1.0  0.39344  0.73997  0.92268  1.0000
  C   C2290     1.0  0.37788  0.74387  0.91438  1.0000
  H   H2295     1.0  0.33986  0.96925  0.78781  1.0000
  H   H2296     1.0  0.32323  0.74034  0.88082  1.0000
  H   H2297     1.0  0.33147  0.74882  0.92009  1.0000
  C   C2291     1.0  0.33223  0.74031  0.91898  1.0000
  S   S770      1.0  0.37830  0.73866  0.95578  1.0000
  H   H2298     1.0  0.41127  0.74529  0.86263  1.0000
  C   C2292     1.0  0.42389  0.74094  0.93765  1.0000
  H   H2299     1.0  0.35489  0.98342  0.79809  1.0000
  C   C2293     1.0  0.48005  0.74004  0.89762  1.0000
  H   H2300     1.0  0.39410  0.73886  0.86738  1.0000
  H   H2301     1.0  0.39694  0.73850  0.88613  1.0000
  C   C2294     1.0  0.35088  0.91967  0.78308  1.0000
  H   H2302     1.0  0.33797  0.91213  0.78226  1.0000
  H   H2303     1.0  0.59721  0.18393  0.14265  1.0000
  H   H2304     1.0  0.64911  0.17888  0.15889  1.0000
  S   S771      1.0  0.62782  0.21041  0.06411  1.0000
  H   H2305     1.0  0.50243  0.23418  0.09913  1.0000
  Fe  Fe385     1.0  0.62442  0.18994  0.14301  1.0000
  S   S772      1.0  0.61084  0.19895  0.15466  1.0000
  S   S773      1.0  0.63091  0.17142  0.14867  1.0000
  Fe  Fe386     1.0  0.62461  0.21100  0.12426  1.0000
  S   S774      1.0  0.61087  0.22137  0.13467  1.0000
  S   S775      1.0  0.63125  0.22161  0.10785  1.0000
  Fe  Fe387     1.0  0.62033  0.21261  0.14804  1.0000
  S   S776      1.0  0.62461  0.22047  0.15944  1.0000
  Fe  Fe388     1.0  0.60300  0.20659  0.14001  1.0000
  S   S777      1.0  0.58519  0.20674  0.14087  1.0000
  S   S778      1.0  0.63465  0.20310  0.13741  1.0000
  S   S779      1.0  0.61594  0.19680  0.12853  1.0000
  H   H2306     1.0  0.60986  0.17343  0.14260  1.0000
  C   C2295     1.0  0.62979  0.23765  0.14183  1.0000
  H   H2307     1.0  0.63154  0.22995  0.06835  1.0000
  C   C2296     1.0  0.62950  0.14812  0.17751  1.0000
  C   C2297     1.0  0.63099  0.15336  0.16618  1.0000
  C   C2298     1.0  0.62787  0.16498  0.16288  1.0000
  H   H2308     1.0  0.58720  0.22486  0.14912  1.0000
  C   C2299     1.0  0.62947  0.21324  0.07612  1.0000
  C   C2300     1.0  0.63094  0.22371  0.07599  1.0000
  C   C2301     1.0  0.63173  0.22609  0.08574  1.0000
  C   C2302     1.0  0.63073  0.21814  0.09572  1.0000
  C   C2303     1.0  0.62920  0.20769  0.09588  1.0000
  C   C2304     1.0  0.62871  0.20520  0.08605  1.0000
  C   C2305     1.0  0.59420  0.16713  0.18120  1.0000
  H   H2309     1.0  0.55303  0.23643  0.13374  1.0000
  H   H2310     1.0  0.62850  0.20148  0.10354  1.0000
  H   H2311     1.0  0.62755  0.19710  0.08617  1.0000
  H   H2312     1.0  0.60911  0.22353  0.08833  1.0000
  C   C2306     1.0  0.61586  0.21654  0.00338  1.0000
  H   H2313     1.0  0.61614  0.20780  0.00696  1.0000
  C   C2307     1.0  0.59933  0.22651  0.10414  1.0000
  C   C2308     1.0  0.58337  0.21857  0.09938  1.0000
  C   C2309     1.0  0.57657  0.21985  0.14175  1.0000
  C   C2310     1.0  0.56676  0.22303  0.13773  1.0000
  C   C2311     1.0  0.56040  0.23389  0.13720  1.0000
  C   C2312     1.0  0.57389  0.23659  0.06352  1.0000
  C   C2313     1.0  0.65386  0.22917  0.11413  1.0000
  H   H2314     1.0  0.60574  0.22945  0.10594  1.0000
  H   H2315     1.0  0.56424  0.21720  0.13470  1.0000
  H   H2316     1.0  0.59687  0.16990  0.14307  1.0000
  C   C2314     1.0  0.57971  0.22735  0.14583  1.0000
  H   H2317     1.0  0.60422  0.15091  0.17942  1.0000
  Fe  Fe389     1.0  0.62108  0.22608  0.05274  1.0000
  C   C2315     1.0  0.60271  0.16198  0.16357  1.0000
  H   H2318     1.0  0.57289  0.22227  0.11481  1.0000
  N   N191      1.0  0.59841  0.17243  0.15817  1.0000
  C   C2316     1.0  0.60129  0.22297  0.09426  1.0000
  S   S780      1.0  0.61164  0.22578  0.04045  1.0000
  H   H2319     1.0  0.63297  0.23417  0.08553  1.0000
  H   H2320     1.0  0.60491  0.21237  0.07850  1.0000
  C   C2317     1.0  0.51684  0.23536  0.10402  1.0000
  C   C2318     1.0  0.60068  0.17506  0.14603  1.0000
  H   H2321     1.0  0.63490  0.14842  0.15997  1.0000
  C   C2319     1.0  0.63615  0.23587  0.15845  1.0000
  H   H2322     1.0  0.59209  0.22160  0.07547  1.0000
  C   C2320     1.0  0.55993  0.22897  0.07856  1.0000
  C   C2321     1.0  0.59576  0.21490  0.08184  1.0000
  H   H2323     1.0  0.64523  0.23560  0.99168  1.0000
  H   H2324     1.0  0.58740  0.22889  0.11936  1.0000
  C   C2322     1.0  0.63962  0.19167  0.16771  1.0000
  C   C2323     1.0  0.58910  0.22616  0.11166  1.0000
  H   H2325     1.0  0.59038  0.22320  0.03247  1.0000
  H   H2326     1.0  0.57700  0.21561  0.09755  1.0000
  H   H2327     1.0  0.62045  0.21947  0.01717  1.0000
  C   C2324     1.0  0.61327  0.22112  0.99289  1.0000
  C   C2325     1.0  0.65180  0.16122  0.17550  1.0000
  S   S781      1.0  0.61125  0.21240  0.98535  1.0000
  C   C2326     1.0  0.58100  0.22231  0.10920  1.0000
  H   H2328     1.0  0.65439  0.22243  0.13140  1.0000
  H   H2329     1.0  0.59214  0.20753  0.08325  1.0000
  N   N192      1.0  0.59349  0.21878  0.09213  1.0000
  H   H2330     1.0  0.62040  0.18017  0.16864  1.0000
  C   C2327     1.0  0.62280  0.17126  0.17099  1.0000
  C   C2328     1.0  0.56242  0.23401  0.08569  1.0000
  C   C2329     1.0  0.58736  0.22222  0.01705  1.0000
  C   C2330     1.0  0.63436  0.19413  0.17807  1.0000
  H   H2331     1.0  0.60799  0.15584  0.15890  1.0000
  H   H2332     1.0  0.56345  0.22672  0.06183  1.0000
  C   C2331     1.0  0.64282  0.22096  0.98826  1.0000
  H   H2333     1.0  0.63918  0.19817  0.16028  1.0000
  C   C2332     1.0  0.61827  0.22315  0.00920  1.0000
  H   H2334     1.0  0.63866  0.20822  0.98306  1.0000
  H   H2335     1.0  0.65042  0.22252  0.11359  1.0000
  C   C2333     1.0  0.61297  0.23242  0.98832  1.0000
  C   C2334     1.0  0.65621  0.22898  0.12420  1.0000
  C   C2335     1.0  0.63049  0.23215  0.15275  1.0000
  H   H2336     1.0  0.58484  0.18406  0.18024  1.0000
  H   H2337     1.0  0.63239  0.13922  0.17998  1.0000
  C   C2336     1.0  0.64529  0.18077  0.16701  1.0000
  H   H2338     1.0  0.58851  0.18857  0.15978  1.0000
  H   H2339     1.0  0.64457  0.21564  0.99603  1.0000
  C   C2337     1.0  0.56552  0.23045  0.06741  1.0000
  H   H2340     1.0  0.58642  0.21367  0.01989  1.0000
  N   N193      1.0  0.65579  0.23763  0.10514  1.0000
  H   H2341     1.0  0.63672  0.23167  0.16688  1.0000
  H   H2342     1.0  0.66214  0.23769  0.13287  1.0000
  C   C2338     1.0  0.61840  0.23435  0.00444  1.0000
  C   C2339     1.0  0.60063  0.15915  0.17516  1.0000
  H   H2343     1.0  0.52263  0.22952  0.09927  1.0000
  H   H2344     1.0  0.65108  0.15925  0.16784  1.0000
  H   H2345     1.0  0.62982  0.20255  0.17866  1.0000
  H   H2346     1.0  0.55351  0.22414  0.08160  1.0000
  S   S782      1.0  0.55518  0.23256  0.09948  1.0000
  C   C2340     1.0  0.58966  0.22752  0.02407  1.0000
  N   N194      1.0  0.64568  0.17255  0.17639  1.0000
  H   H2347     1.0  0.58476  0.22385  0.00074  1.0000
  H   H2348     1.0  0.62551  0.23475  0.13734  1.0000
  C   C2341     1.0  0.66056  0.23753  0.12503  1.0000
  C   C2342     1.0  0.58636  0.22796  0.00633  1.0000
  C   C2343     1.0  0.64323  0.23217  0.98579  1.0000
  H   H2349     1.0  0.66077  0.16028  0.17537  1.0000
  C   C2344     1.0  0.58983  0.17777  0.17563  1.0000
  C   C2345     1.0  0.59197  0.18028  0.16404  1.0000
  H   H2350     1.0  0.65267  0.22956  0.09405  1.0000
  C   C2346     1.0  0.50541  0.23802  0.10400  1.0000
  S   S783      1.0  0.60718  0.23789  0.06129  1.0000
  C   C2347     1.0  0.57305  0.23809  0.14577  1.0000
  C   C2348     1.0  0.65289  0.23796  0.09476  1.0000
  Fe  Fe390     1.0  0.55837  0.07812  0.26880  1.0000
  S   S784      1.0  0.55132  0.07180  0.28675  1.0000
  S   S785      1.0  0.56533  0.06664  0.25707  1.0000
  Fe  Fe391     1.0  0.55383  0.10154  0.27151  1.0000
  S   S786      1.0  0.54634  0.09725  0.28971  1.0000
  S   S787      1.0  0.55683  0.11847  0.26286  1.0000
  Fe  Fe392     1.0  0.56098  0.08262  0.28983  1.0000
  S   S788      1.0  0.57207  0.07557  0.30239  1.0000
  Fe  Fe393     1.0  0.53751  0.08691  0.28466  1.0000
  S   S789      1.0  0.51932  0.08556  0.29135  1.0000
  S   S790      1.0  0.56901  0.08770  0.27198  1.0000
  S   S791      1.0  0.54394  0.09248  0.26643  1.0000
  Fe  Fe394     1.0  0.61125  0.02486  0.26635  1.0000
  S   S792      1.0  0.61170  0.02213  0.24975  1.0000
  S   S793      1.0  0.59592  0.02400  0.27972  1.0000
  Fe  Fe395     1.0  0.63415  0.03034  0.25963  1.0000
  S   S794      1.0  0.63688  0.02731  0.24252  1.0000
  S   S795      1.0  0.64632  0.03862  0.26261  1.0000
  Fe  Fe396     1.0  0.61930  0.03716  0.24308  1.0000
  S   S796      1.0  0.61377  0.05126  0.22949  1.0000
  Fe  Fe397     1.0  0.62903  0.01244  0.25082  1.0000
  S   S797      1.0  0.61695  0.04090  0.25963  1.0000
  S   S798      1.0  0.62819  0.01444  0.26798  1.0000
  H   H2351     1.0  0.63860  0.09642  0.35725  1.0000
  C   C2349     1.0  0.52610  0.04843  0.27512  1.0000
  C   C2350     1.0  0.64170  0.04589  0.20933  1.0000
  H   H2352     1.0  0.62119  0.01866  0.21891  1.0000
  C   C2351     1.0  0.62920  0.08609  0.24867  1.0000
  H   H2353     1.0  0.61790  0.17105  0.18846  1.0000
  C   C2352     1.0  0.63836  0.01229  0.22039  1.0000
  H   H2354     1.0  0.50254  0.04943  0.29556  1.0000
  H   H2355     1.0  0.63780  0.11113  0.34014  1.0000
  H   H2356     1.0  0.63357  0.05180  0.20860  1.0000
  Fe  Fe398     1.0  0.69480  0.10598  0.36028  1.0000
  S   S799      1.0  0.71311  0.09932  0.35383  1.0000
  S   S800      1.0  0.68361  0.11169  0.34743  1.0000
  H   H2357     1.0  0.85123  0.20762  0.37629  1.0000
  C   C2353     1.0  0.64831  0.10399  0.36336  1.0000
  Fe  Fe399     1.0  0.71706  0.10620  0.36641  1.0000
  S   S801      1.0  0.73422  0.11023  0.36414  1.0000
  Fe  Fe400     1.0  0.71023  0.08464  0.36744  1.0000
  S   S802      1.0  0.71675  0.06768  0.36378  1.0000
  S   S803      1.0  0.69892  0.11470  0.37160  1.0000
  S   S804      1.0  0.69203  0.09101  0.37374  1.0000
  Fe  Fe401     1.0  0.62490  0.08999  0.31067  1.0000
  S   S805      1.0  0.63303  0.08190  0.29631  1.0000
  S   S806      1.0  0.60614  0.09699  0.31352  1.0000
  Fe  Fe402     1.0  0.64731  0.08567  0.31837  1.0000
  S   S807      1.0  0.65685  0.07711  0.30420  1.0000
  S   S808      1.0  0.65559  0.08538  0.33256  1.0000
  Fe  Fe403     1.0  0.64647  0.09110  0.29388  1.0000
  S   S809      1.0  0.65271  0.09996  0.27643  1.0000
  Fe  Fe404     1.0  0.64234  0.06880  0.30792  1.0000
  S   S810      1.0  0.64158  0.05121  0.30846  1.0000
  S   S811      1.0  0.63778  0.10022  0.30762  1.0000
  S   S812      1.0  0.63337  0.07625  0.32275  1.0000
  Fe  Fe405     1.0  0.61624  0.11976  0.23323  1.0000
  S   S813      1.0  0.63251  0.12015  0.22087  1.0000
  S   S814      1.0  0.61249  0.11792  0.25175  1.0000
  Fe  Fe406     1.0  0.60428  0.11816  0.21630  1.0000
  S   S815      1.0  0.61958  0.11817  0.20244  1.0000
  S   S816      1.0  0.58802  0.11474  0.21592  1.0000
  Fe  Fe407     1.0  0.62860  0.10662  0.21548  1.0000
  S   S817      1.0  0.64031  0.08988  0.21578  1.0000
  Fe  Fe408     1.0  0.62205  0.13181  0.20897  1.0000
  S   S818      1.0  0.62540  0.14885  0.19963  1.0000
  S   S819      1.0  0.61310  0.10555  0.22860  1.0000
  S   S820      1.0  0.60604  0.13250  0.22198  1.0000
  H   H2358     1.0  0.61974  0.05415  0.28197  1.0000
  C   C2354     1.0  0.61524  0.05931  0.29757  1.0000
  H   H2359     1.0  0.89496  0.21658  0.36950  1.0000
  H   H2360     1.0  0.69834  0.06500  0.35200  1.0000
  H   H2361     1.0  0.50828  0.10551  0.27202  1.0000
  C   C2355     1.0  0.52848  0.05486  0.28982  1.0000
  C   C2356     1.0  0.75413  0.99432  0.37867  1.0000
  C   C2357     1.0  0.64244  0.10343  0.35584  1.0000
  C   C2358     1.0  0.68850  0.06266  0.34192  1.0000
  H   H2362     1.0  0.70291  0.09299  0.33620  1.0000
  H   H2363     1.0  0.61453  0.07059  0.31236  1.0000
  H   H2364     1.0  0.66886  0.08458  0.25604  1.0000
  H   H2365     1.0  0.60602  0.99583  0.27857  1.0000
  C   C2359     1.0  0.62387  0.11334  0.25830  1.0000
  C   C2360     1.0  0.63486  0.11350  0.25237  1.0000
  C   C2361     1.0  0.64371  0.10975  0.25799  1.0000
  C   C2362     1.0  0.64158  0.10576  0.26951  1.0000
  C   C2363     1.0  0.63055  0.10589  0.27540  1.0000
  C   C2364     1.0  0.62177  0.10947  0.26979  1.0000
  H   H2366     1.0  0.63653  0.11661  0.24350  1.0000
  H   H2367     1.0  0.65221  0.10985  0.25340  1.0000
  H   H2368     1.0  0.62874  0.10335  0.28430  1.0000
  H   H2369     1.0  0.61334  0.10913  0.27438  1.0000
  C   C2365     1.0  0.67673  0.10373  0.34294  1.0000
  C   C2366     1.0  0.67313  0.10801  0.33286  1.0000
  C   C2367     1.0  0.66687  0.10247  0.32941  1.0000
  C   C2368     1.0  0.66394  0.09259  0.33610  1.0000
  C   C2369     1.0  0.66769  0.08824  0.34611  1.0000
  C   C2370     1.0  0.67409  0.09369  0.34947  1.0000
  H   H2370     1.0  0.67506  0.11578  0.32771  1.0000
  H   H2371     1.0  0.66413  0.10596  0.32168  1.0000
  H   H2372     1.0  0.66556  0.08059  0.35135  1.0000
  H   H2373     1.0  0.67673  0.09023  0.35725  1.0000
  C   C2371     1.0  0.88757  0.21400  0.36932  1.0000
  H   H2374     1.0  0.73830  0.14605  0.36737  1.0000
  C   C2372     1.0  0.74647  0.11413  0.37687  1.0000
  H   H2375     1.0  0.60513  0.12715  0.28137  1.0000
  C   C2373     1.0  0.63039  0.03172  0.21430  1.0000
  C   C2374     1.0  0.60659  0.99669  0.26960  1.0000
  C   C2375     1.0  0.61303  0.98929  0.23254  1.0000
  C   C2376     1.0  0.50150  0.07965  0.28799  1.0000
  C   C2377     1.0  0.87619  0.20030  0.37482  1.0000
  H   H2376     1.0  0.66505  0.09236  0.23708  1.0000
  H   H2377     1.0  0.64504  0.04823  0.21532  1.0000
  C   C2378     1.0  0.61007  0.06365  0.31595  1.0000
  C   C2379     1.0  0.49989  0.10517  0.27183  1.0000
  C   C2380     1.0  0.74914  0.13245  0.37605  1.0000
  S   S821      1.0  0.71564  0.09065  0.37941  1.0000
  H   H2378     1.0  0.74476  0.09000  0.37749  1.0000
  C   C2381     1.0  0.73800  0.11876  0.37078  1.0000
  C   C2382     1.0  0.73482  0.13035  0.36779  1.0000
  C   C2383     1.0  0.74041  0.13714  0.37033  1.0000
  C   C2384     1.0  0.75903  0.01027  0.38166  1.0000
  C   C2385     1.0  0.78396  0.10690  0.36926  1.0000
  H   H2379     1.0  0.50999  0.04474  0.27702  1.0000
  C   C2386     1.0  0.50169  0.07301  0.27191  1.0000
  H   H2380     1.0  0.66653  0.10480  0.37023  1.0000
  H   H2381     1.0  0.73094  0.04636  0.36997  1.0000
  H   H2382     1.0  0.62629  0.07824  0.25281  1.0000
  C   C2387     1.0  0.60328  0.05185  0.29116  1.0000
  H   H2383     1.0  0.62941  0.08742  0.23971  1.0000
  C   C2388     1.0  0.61334  0.05510  0.28944  1.0000
  N   N195      1.0  0.64044  0.03433  0.21320  1.0000
  H   H2384     1.0  0.54722  0.04891  0.26687  1.0000
  C   C2389     1.0  0.66007  0.11263  0.36914  1.0000
  C   C2390     1.0  0.64459  0.04214  0.27543  1.0000
  C   C2391     1.0  0.64887  0.05107  0.27564  1.0000
  C   C2392     1.0  0.64792  0.05395  0.28571  1.0000
  C   C2393     1.0  0.64301  0.04767  0.29570  1.0000
  C   C2394     1.0  0.63874  0.03872  0.29552  1.0000
  C   C2395     1.0  0.63938  0.03605  0.28540  1.0000
  H   H2385     1.0  0.65305  0.05570  0.26796  1.0000
  H   H2386     1.0  0.65128  0.06080  0.28582  1.0000
  H   H2387     1.0  0.63489  0.03385  0.30322  1.0000
  H   H2388     1.0  0.63615  0.02909  0.28533  1.0000
  C   C2396     1.0  0.62079  0.06219  0.22635  1.0000
  C   C2397     1.0  0.61726  0.07210  0.21905  1.0000
  C   C2398     1.0  0.62305  0.08074  0.21605  1.0000
  C   C2399     1.0  0.63271  0.07929  0.21994  1.0000
  C   C2400     1.0  0.63629  0.06935  0.22720  1.0000
  C   C2401     1.0  0.63020  0.06090  0.23059  1.0000
  H   H2389     1.0  0.61014  0.07309  0.21556  1.0000
  H   H2390     1.0  0.62026  0.08839  0.21043  1.0000
  H   H2391     1.0  0.64372  0.06821  0.23028  1.0000
  H   H2392     1.0  0.63299  0.05328  0.23625  1.0000
  H   H2393     1.0  0.61623  0.00359  0.23603  1.0000
  C   C2402     1.0  0.56473  0.11799  0.24940  1.0000
  C   C2403     1.0  0.57143  0.12572  0.24393  1.0000
  C   C2404     1.0  0.57838  0.12492  0.23349  1.0000
  C   C2405     1.0  0.57841  0.11658  0.22837  1.0000
  C   C2406     1.0  0.57133  0.10914  0.23363  1.0000
  C   C2407     1.0  0.56468  0.10969  0.24425  1.0000
  H   H2394     1.0  0.57142  0.13221  0.24783  1.0000
  H   H2395     1.0  0.58358  0.13086  0.22936  1.0000
  H   H2396     1.0  0.57127  0.10272  0.22967  1.0000
  H   H2397     1.0  0.55948  0.10373  0.24840  1.0000
  C   C2408     1.0  0.58110  0.08287  0.30436  1.0000
  C   C2409     1.0  0.59122  0.08421  0.29675  1.0000
  C   C2410     1.0  0.59917  0.08829  0.29949  1.0000
  C   C2411     1.0  0.59694  0.09116  0.30980  1.0000
  C   C2412     1.0  0.58674  0.09006  0.31720  1.0000
  C   C2413     1.0  0.57900  0.08574  0.31460  1.0000
  H   H2398     1.0  0.59305  0.08176  0.28892  1.0000
  H   H2399     1.0  0.60694  0.08929  0.29362  1.0000
  H   H2400     1.0  0.58489  0.09234  0.32513  1.0000
  H   H2401     1.0  0.57137  0.08450  0.32064  1.0000
  C   C2414     1.0  0.51259  0.08097  0.28363  1.0000
  H   H2402     1.0  0.78997  0.10707  0.37378  1.0000
  H   H2403     1.0  0.60240  0.06669  0.32190  1.0000
  C   C2415     1.0  0.64829  0.08940  0.24203  1.0000
  C   C2416     1.0  0.51269  0.07451  0.26748  1.0000
  C   C2417     1.0  0.51810  0.07854  0.27327  1.0000
  C   C2418     1.0  0.68666  0.07694  0.32541  1.0000
  H   H2404     1.0  0.51713  0.07239  0.25960  1.0000
  H   H2405     1.0  0.52660  0.07958  0.26979  1.0000
  C   C2419     1.0  0.57318  0.05446  0.26373  1.0000
  C   C2420     1.0  0.57524  0.05386  0.27405  1.0000
  C   C2421     1.0  0.58153  0.04411  0.27940  1.0000
  C   C2422     1.0  0.58614  0.03512  0.27423  1.0000
  C   C2423     1.0  0.58419  0.03575  0.26385  1.0000
  C   C2424     1.0  0.57759  0.04538  0.25866  1.0000
  H   H2406     1.0  0.57233  0.06099  0.27779  1.0000
  H   H2407     1.0  0.58318  0.04370  0.28733  1.0000
  H   H2408     1.0  0.58781  0.02884  0.25979  1.0000
  H   H2409     1.0  0.57610  0.04586  0.25062  1.0000
  H   H2410     1.0  0.71259  0.07991  0.33972  1.0000
  C   C2425     1.0  0.51770  0.05376  0.29577  1.0000
  S   S822      1.0  0.63475  0.99492  0.24759  1.0000
  H   H2411     1.0  0.56675  0.11020  0.28157  1.0000
  H   H2412     1.0  0.68312  0.08053  0.31809  1.0000
  C   C2426     1.0  0.87947  0.22144  0.36391  1.0000
  C   C2427     1.0  0.64731  0.12046  0.34425  1.0000
  H   H2413     1.0  0.59997  0.00400  0.26715  1.0000
  C   C2428     1.0  0.68420  0.06705  0.33236  1.0000
  C   C2429     1.0  0.59749  0.05703  0.30892  1.0000
  H   H2414     1.0  0.60176  0.04840  0.28501  1.0000
  H   H2415     1.0  0.58724  0.05075  0.30223  1.0000
  H   H2416     1.0  0.51436  0.05632  0.30363  1.0000
  H   H2417     1.0  0.63585  0.07814  0.26777  1.0000
  H   H2418     1.0  0.60685  0.99419  0.22779  1.0000
  H   H2419     1.0  0.70050  0.08461  0.34986  1.0000
  N   N196      1.0  0.69711  0.07826  0.33781  1.0000
  H   H2420     1.0  0.65417  0.07748  0.27135  1.0000
  C   C2430     1.0  0.66093  0.08459  0.25440  1.0000
  C   C2431     1.0  0.64230  0.08105  0.26095  1.0000
  C   C2432     1.0  0.51528  0.04724  0.28084  1.0000
  C   C2433     1.0  0.70364  0.08425  0.34097  1.0000
  H   H2421     1.0  0.62313  0.09319  0.25183  1.0000
  H   H2422     1.0  0.73868  0.06626  0.37196  1.0000
  H   H2423     1.0  0.61561  0.05661  0.32047  1.0000
  N   N197      1.0  0.86838  0.20758  0.36931  1.0000
  H   H2424     1.0  0.54973  0.05152  0.27883  1.0000
  H   H2425     1.0  0.87486  0.19211  0.37942  1.0000
  C   C2434     1.0  0.65267  0.08056  0.26302  1.0000
  H   H2426     1.0  0.62317  0.03820  0.21253  1.0000
  H   H2427     1.0  0.66464  0.11954  0.36611  1.0000
  H   H2428     1.0  0.75255  0.06539  0.37377  1.0000
  H   H2429     1.0  0.72860  0.13408  0.36278  1.0000
  H   H2430     1.0  0.59116  0.05788  0.31644  1.0000
  C   C2435     1.0  0.59523  0.05297  0.30089  1.0000
  C   C2436     1.0  0.62677  0.98844  0.24288  1.0000
  H   H2431     1.0  0.69472  0.09036  0.32301  1.0000
  N   N198      1.0  0.60743  0.06010  0.30721  1.0000
  H   H2432     1.0  0.85910  0.19524  0.37135  1.0000
  H   H2433     1.0  0.50489  0.10081  0.25594  1.0000
  N   N199      1.0  0.77055  0.11651  0.35793  1.0000
  C   C2437     1.0  0.76823  0.10662  0.35812  1.0000
  C   C2438     1.0  0.77829  0.11675  0.36340  1.0000
  C   C2439     1.0  0.77371  0.09662  0.36394  1.0000
  H   H2434     1.0  0.88046  0.22988  0.35999  1.0000
  C   C2440     1.0  0.88592  0.20338  0.37485  1.0000
  C   C2441     1.0  0.76505  0.12684  0.35141  1.0000
  H   H2435     1.0  0.76192  0.10646  0.35397  1.0000
  H   H2436     1.0  0.78000  0.12460  0.36339  1.0000
  H   H2437     1.0  0.60560  0.11556  0.29305  1.0000
  C   C2442     1.0  0.86983  0.21809  0.36405  1.0000
  C   C2443     1.0  0.54367  0.05391  0.27335  1.0000
  H   H2438     1.0  0.75632  0.12658  0.35165  1.0000
  H   H2439     1.0  0.76449  0.13413  0.35482  1.0000
  H   H2440     1.0  0.76979  0.12814  0.34268  1.0000
  C   C2444     1.0  0.61837  0.99465  0.23719  1.0000
  H   H2441     1.0  0.65770  0.12730  0.35007  1.0000
  S   S823      1.0  0.93362  0.23289  0.38168  1.0000
  C   C2445     1.0  0.65318  0.12072  0.35189  1.0000
  H   H2442     1.0  0.75054  0.01100  0.36898  1.0000
  C   C2446     1.0  0.62920  0.02068  0.21792  1.0000
  C   C2447     1.0  0.96469  0.22579  0.37947  1.0000
  H   H2443     1.0  0.77904  0.99653  0.36809  1.0000
  C   C2448     1.0  0.64198  0.11170  0.34622  1.0000
  C   C2449     1.0  0.75412  0.00571  0.37586  1.0000
  H   H2444     1.0  0.53340  0.05828  0.29322  1.0000
  N   N200      1.0  0.65367  0.11251  0.36128  1.0000
  C   C2450     1.0  0.64857  0.01501  0.21925  1.0000
  C   C2451     1.0  0.64948  0.02614  0.21557  1.0000
  C   C2452     1.0  0.72541  0.04873  0.37740  1.0000
  H   H2445     1.0  0.59663  0.12888  0.29477  1.0000
  H   H2446     1.0  0.86338  0.22405  0.36018  1.0000
  H   H2447     1.0  0.65741  0.02823  0.21483  1.0000
  H   H2448     1.0  0.62306  0.06180  0.29623  1.0000
  C   C2453     1.0  0.85803  0.20441  0.36966  1.0000
  H   H2449     1.0  0.78605  0.08909  0.37394  1.0000
  C   C2454     1.0  0.65877  0.08902  0.24381  1.0000
  C   C2455     1.0  0.69505  0.06839  0.34451  1.0000
  H   H2450     1.0  0.74945  0.10526  0.37888  1.0000
  S   S824      1.0  0.75734  0.14114  0.37719  1.0000
  C   C2456     1.0  0.64070  0.17493  0.18661  1.0000
  C   C2457     1.0  0.63489  0.18573  0.18760  1.0000
  N   N201      1.0  0.64026  0.08534  0.25053  1.0000
  C   C2458     1.0  0.71725  0.05859  0.37661  1.0000
  H   H2451     1.0  0.68665  0.05497  0.34738  1.0000
  C   C2459     1.0  0.78172  0.09678  0.36940  1.0000
  H   H2452     1.0  0.52914  0.04671  0.26687  1.0000
  H   H2453     1.0  0.67880  0.06292  0.33041  1.0000
  H   H2454     1.0  0.59479  0.99511  0.25593  1.0000
  H   H2455     1.0  0.64659  0.09311  0.23384  1.0000
  C   C2460     1.0  0.51107  0.04993  0.29123  1.0000
  H   H2456     1.0  0.74501  0.07800  0.36619  1.0000
  S   S825      1.0  0.74906  0.98875  0.37033  1.0000
  N   N202      1.0  0.53259  0.05210  0.27968  1.0000
  H   H2457     1.0  0.97743  0.23450  0.37799  1.0000
  C   C2461     1.0  0.69317  0.08248  0.32827  1.0000
  N   N203      1.0  0.59191  0.07870  0.23974  1.0000
  C   C2462     1.0  0.59342  0.08830  0.24129  1.0000
  C   C2463     1.0  0.59342  0.06906  0.24757  1.0000
  C   C2464     1.0  0.59638  0.08845  0.25094  1.0000
  C   C2465     1.0  0.59638  0.06890  0.25733  1.0000
  C   C2466     1.0  0.59781  0.07868  0.25904  1.0000
  C   C2467     1.0  0.58780  0.07890  0.23008  1.0000
  H   H2458     1.0  0.59226  0.09592  0.23507  1.0000
  H   H2459     1.0  0.59215  0.06147  0.24635  1.0000
  H   H2460     1.0  0.59736  0.09618  0.25215  1.0000
  H   H2461     1.0  0.59730  0.06126  0.26358  1.0000
  H   H2462     1.0  0.59985  0.07874  0.26667  1.0000
  H   H2463     1.0  0.57855  0.07997  0.23239  1.0000
  H   H2464     1.0  0.59002  0.08584  0.22307  1.0000
  H   H2465     1.0  0.59152  0.07101  0.22716  1.0000
  N   N204      1.0  0.59079  0.11968  0.28689  1.0000
  C   C2468     1.0  0.58957  0.12130  0.27626  1.0000
  C   C2469     1.0  0.58349  0.11481  0.29563  1.0000
  C   C2470     1.0  0.58091  0.11791  0.27419  1.0000
  C   C2471     1.0  0.57474  0.11134  0.29385  1.0000
  C   C2472     1.0  0.57349  0.11288  0.28305  1.0000
  C   C2473     1.0  0.59998  0.12301  0.28909  1.0000
  H   H2466     1.0  0.59529  0.12521  0.26930  1.0000
  H   H2467     1.0  0.58452  0.11347  0.30404  1.0000
  H   H2468     1.0  0.57993  0.11921  0.26576  1.0000
  H   H2469     1.0  0.56904  0.10736  0.30078  1.0000
  H   H2470     1.0  0.64724  0.12678  0.33665  1.0000
  H   H2471     1.0  0.65565  0.00854  0.22140  1.0000
  H   H2472     1.0  0.64750  0.04701  0.20109  1.0000
  H   H2473     1.0  0.78794  0.99066  0.35653  1.0000
  C   C2474     1.0  0.74418  0.07090  0.37341  1.0000
  H   H2474     1.0  0.59273  0.16508  0.19019  1.0000
  H   H2475     1.0  0.77171  0.08879  0.36433  1.0000
  C   C2475     1.0  0.62497  0.15452  0.18558  1.0000
  C   C2476     1.0  0.75184  0.12092  0.37969  1.0000
  H   H2476     1.0  0.54310  0.06283  0.26922  1.0000
  H   H2477     1.0  0.63755  0.00369  0.22330  1.0000
  H   H2478     1.0  0.75928  0.01900  0.37919  1.0000
  H   H2479     1.0  0.64885  0.09740  0.37070  1.0000
  H   H2480     1.0  0.85537  0.20790  0.36163  1.0000
  C   C2477     1.0  0.78029  0.99017  0.36320  1.0000
  H   H2481     1.0  0.77288  0.99238  0.35939  1.0000
  H   H2482     1.0  0.89198  0.19761  0.37939  1.0000
  H   H2483     1.0  0.65443  0.11355  0.37728  1.0000
  H   H2484     1.0  0.63074  0.18753  0.19569  1.0000
  H   H2485     1.0  0.61487  0.99846  0.26492  1.0000
  C   C2478     1.0  0.97494  0.22657  0.38095  1.0000
  S   S826      1.0  0.78883  0.12859  0.38207  1.0000
  H   H2486     1.0  0.95922  0.23303  0.37555  1.0000
  H   H2487     1.0  0.64088  0.16837  0.19405  1.0000
  H   H2488     1.0  0.95346  0.21495  0.38218  1.0000
  C   C2479     1.0  0.49791  0.10251  0.26278  1.0000
  C   C2480     1.0  0.62141  0.16605  0.18226  1.0000
  H   H2489     1.0  0.64830  0.15497  0.18258  1.0000
  H   H2490     1.0  0.85597  0.22638  0.52466  1.0000
  H   H2491     1.0  0.86093  0.21270  0.39102  1.0000
  H   H2492     1.0  0.75812  0.10714  0.50371  1.0000
  Fe  Fe409     1.0  0.95008  0.20919  0.41465  1.0000
  C   C2481     1.0  0.81230  0.15449  0.39503  1.0000
  S   S827      1.0  0.96759  0.20016  0.41723  1.0000
  Fe  Fe410     1.0  0.92483  0.20953  0.41939  1.0000
  N   N205      1.0  0.72059  0.06746  0.57270  1.0000
  S   S828      1.0  0.90987  0.20128  0.42667  1.0000
  C   C2482     1.0  0.93879  0.23174  0.56806  1.0000
  C   C2483     1.0  0.72377  0.13962  0.40403  1.0000
  H   H2493     1.0  0.83482  0.21802  0.42765  1.0000
  H   H2494     1.0  0.79869  0.10881  0.56894  1.0000
  S   S829      1.0  0.93919  0.20564  0.40524  1.0000
  S   S830      1.0  0.93607  0.21118  0.42955  1.0000
  H   H2495     1.0  0.74774  0.13990  0.41679  1.0000
  H   H2496     1.0  0.91115  0.20579  0.57060  1.0000
  S   S831      1.0  0.87417  0.22358  0.45129  1.0000
  C   C2484     1.0  0.93292  0.23048  0.56088  1.0000
  C   C2485     1.0  0.86742  0.22728  0.38805  1.0000
  H   H2497     1.0  0.75214  0.07000  0.46012  1.0000
  S   S832      1.0  0.88869  0.22223  0.55526  1.0000
  H   H2498     1.0  0.73361  0.05996  0.39226  1.0000
  H   H2499     1.0  0.90403  0.21911  0.40015  1.0000
  S   S833      1.0  0.77203  0.00849  0.39633  1.0000
  Fe  Fe411     1.0  0.84118  0.17939  0.41267  1.0000
  S   S834      1.0  0.83112  0.19531  0.41802  1.0000
  S   S835      1.0  0.83275  0.16495  0.41408  1.0000
  Fe  Fe412     1.0  0.86351  0.18711  0.40810  1.0000
  S   S836      1.0  0.85475  0.20325  0.41288  1.0000
  S   S837      1.0  0.88230  0.18545  0.40141  1.0000
  Fe  Fe413     1.0  0.84452  0.19355  0.42717  1.0000
  S   S838      1.0  0.84126  0.19843  0.44372  1.0000
  Fe  Fe414     1.0  0.84243  0.20369  0.40328  1.0000
  H   H2500     1.0  0.70389  0.06936  0.38564  1.0000
  S   S839      1.0  0.85393  0.17700  0.42309  1.0000
  N   N206      1.0  0.76472  0.06265  0.44780  1.0000
  Fe  Fe415     1.0  0.77320  0.13265  0.41123  1.0000
  S   S840      1.0  0.76440  0.13674  0.42768  1.0000
  S   S841      1.0  0.79146  0.12486  0.40760  1.0000
  S   S842      1.0  0.69160  0.09648  0.40312  1.0000
  H   H2501     1.0  0.86468  0.18282  0.44014  1.0000
  Fe  Fe416     1.0  0.74419  0.10497  0.54972  1.0000
  S   S843      1.0  0.72914  0.10687  0.54306  1.0000
  S   S844      1.0  0.75552  0.08824  0.55257  1.0000
  Fe  Fe417     1.0  0.73982  0.12918  0.55050  1.0000
  S   S845      1.0  0.72437  0.13333  0.54350  1.0000
  S   S846      1.0  0.74366  0.14156  0.55786  1.0000
  Fe  Fe418     1.0  0.72053  0.11768  0.55539  1.0000
  S   S847      1.0  0.70307  0.11669  0.56519  1.0000
  Fe  Fe419     1.0  0.73433  0.12216  0.53170  1.0000
  S   S848      1.0  0.73576  0.12550  0.51306  1.0000
  S   S849      1.0  0.73516  0.11434  0.56311  1.0000
  S   S850      1.0  0.75022  0.11948  0.53763  1.0000
  Fe  Fe420     1.0  0.74158  0.03855  0.40848  1.0000
  S   S851      1.0  0.83734  0.22029  0.39223  1.0000
  Fe  Fe421     1.0  0.75874  0.03498  0.42204  1.0000
  S   S852      1.0  0.77305  0.03532  0.40717  1.0000
  S   S853      1.0  0.76030  0.03186  0.43967  1.0000
  Fe  Fe422     1.0  0.76130  0.05014  0.39931  1.0000
  H   H2502     1.0  0.71711  0.13929  0.40044  1.0000
  Fe  Fe423     1.0  0.76457  0.02495  0.40165  1.0000
  H   H2503     1.0  0.73739  0.13245  0.43485  1.0000
  S   S854      1.0  0.74750  0.05022  0.41455  1.0000
  S   S855      1.0  0.75150  0.02331  0.41737  1.0000
  Fe  Fe424     1.0  0.72318  0.07862  0.46564  1.0000
  S   S856      1.0  0.70879  0.09336  0.46452  1.0000
  S   S857      1.0  0.72201  0.06078  0.46968  1.0000
  Fe  Fe425     1.0  0.74011  0.09261  0.46109  1.0000
  S   S858      1.0  0.72748  0.10866  0.45901  1.0000
  S   S859      1.0  0.75824  0.09121  0.45992  1.0000
  Fe  Fe426     1.0  0.71705  0.09990  0.47427  1.0000
  S   S860      1.0  0.70881  0.10620  0.49010  1.0000
  Fe  Fe427     1.0  0.72060  0.10067  0.44936  1.0000
  S   S861      1.0  0.71827  0.10891  0.43182  1.0000
  S   S862      1.0  0.73020  0.08431  0.47672  1.0000
  S   S863      1.0  0.73444  0.08551  0.45008  1.0000
  C   C2486     1.0  0.72692  0.04233  0.38784  1.0000
  H   H2504     1.0  0.78830  0.09052  0.57408  1.0000
  C   C2487     1.0  0.76980  0.05273  0.44474  1.0000
  Fe  Fe428     1.0  0.78633  0.11548  0.39785  1.0000
  C   C2488     1.0  0.74936  0.03991  0.44775  1.0000
  C   C2489     1.0  0.74454  0.05085  0.44321  1.0000
  C   C2490     1.0  0.73614  0.05731  0.44990  1.0000
  C   C2491     1.0  0.73258  0.05288  0.46118  1.0000
  C   C2492     1.0  0.73730  0.04191  0.46569  1.0000
  C   C2493     1.0  0.74579  0.03549  0.45903  1.0000
  H   H2505     1.0  0.74752  0.05448  0.43463  1.0000
  H   H2506     1.0  0.73230  0.06565  0.44627  1.0000
  H   H2507     1.0  0.73453  0.03841  0.47440  1.0000
  H   H2508     1.0  0.74955  0.02707  0.46261  1.0000
  C   C2494     1.0  0.75606  0.13856  0.56281  1.0000
  H   H2509     1.0  0.85390  0.22566  0.54699  1.0000
  C   C2495     1.0  0.72900  0.07174  0.40265  1.0000
  C   C2496     1.0  0.77591  0.13483  0.57037  1.0000
  C   C2497     1.0  0.77549  0.12921  0.56255  1.0000
  C   C2498     1.0  0.76555  0.13095  0.55890  1.0000
  C   C2499     1.0  0.84810  0.22755  0.38884  1.0000
  C   C2500     1.0  0.96141  0.21563  0.38323  1.0000
  H   H2510     1.0  0.78294  0.12370  0.55911  1.0000
  H   H2511     1.0  0.76539  0.12675  0.55272  1.0000
  C   C2501     1.0  0.73423  0.99048  0.41033  1.0000
  C   C2502     1.0  0.85911  0.21295  0.56895  1.0000
  C   C2503     1.0  0.72785  0.12043  0.50685  1.0000
  C   C2504     1.0  0.71911  0.11518  0.51313  1.0000
  C   C2505     1.0  0.71328  0.11096  0.50789  1.0000
  C   C2506     1.0  0.71631  0.11167  0.49638  1.0000
  C   C2507     1.0  0.72509  0.11687  0.49010  1.0000
  C   C2508     1.0  0.73072  0.12135  0.49530  1.0000
  H   H2512     1.0  0.71676  0.11449  0.52201  1.0000
  H   H2513     1.0  0.70643  0.10706  0.51279  1.0000
  H   H2514     1.0  0.72739  0.11763  0.48122  1.0000
  H   H2515     1.0  0.73737  0.12551  0.49037  1.0000
  C   C2509     1.0  0.89596  0.17980  0.44618  1.0000
  H   H2516     1.0  0.76144  0.10946  0.57174  1.0000
  C   C2510     1.0  0.75518  0.06889  0.56801  1.0000
  C   C2511     1.0  0.74955  0.07983  0.56471  1.0000
  C   C2512     1.0  0.73937  0.08407  0.57132  1.0000
  N   N207      1.0  0.89386  0.23225  0.40772  1.0000
  C   C2513     1.0  0.84730  0.23065  0.52798  1.0000
  H   H2517     1.0  0.76295  0.06550  0.56282  1.0000
  H   H2518     1.0  0.73474  0.09232  0.56863  1.0000
  H   H2519     1.0  0.75859  0.11718  0.38403  1.0000
  H   H2520     1.0  0.95901  0.21146  0.43895  1.0000
  S   S864      1.0  0.92061  0.22792  0.41254  1.0000
  C   C2514     1.0  0.69957  0.09937  0.41097  1.0000
  C   C2515     1.0  0.69731  0.09569  0.42257  1.0000
  C   C2516     1.0  0.70326  0.09817  0.42906  1.0000
  C   C2517     1.0  0.71136  0.10457  0.42400  1.0000
  C   C2518     1.0  0.71369  0.10815  0.41240  1.0000
  C   C2519     1.0  0.70792  0.10547  0.40590  1.0000
  H   H2521     1.0  0.69074  0.09113  0.42656  1.0000
  H   H2522     1.0  0.70124  0.09558  0.43798  1.0000
  H   H2523     1.0  0.71992  0.11312  0.40840  1.0000
  H   H2524     1.0  0.70972  0.10838  0.39699  1.0000
  C   C2520     1.0  0.76351  0.12416  0.43718  1.0000
  C   C2521     1.0  0.77016  0.11421  0.43443  1.0000
  C   C2522     1.0  0.76899  0.10406  0.44176  1.0000
  C   C2523     1.0  0.76096  0.10387  0.45167  1.0000
  C   C2524     1.0  0.75436  0.11382  0.45447  1.0000
  C   C2525     1.0  0.75576  0.12399  0.44729  1.0000
  H   H2525     1.0  0.77613  0.11429  0.42661  1.0000
  H   H2526     1.0  0.77403  0.09637  0.43953  1.0000
  H   H2527     1.0  0.74809  0.11367  0.46211  1.0000
  H   H2528     1.0  0.75059  0.13169  0.44941  1.0000
  C   C2526     1.0  0.78246  0.07050  0.39536  1.0000
  H   H2529     1.0  0.72894  0.01121  0.38860  1.0000
  S   S865      1.0  0.76793  0.12204  0.40318  1.0000
  N   N208      1.0  0.75325  0.10079  0.49242  1.0000
  C   C2527     1.0  0.95641  0.22068  0.43750  1.0000
  C   C2528     1.0  0.82525  0.16104  0.40625  1.0000
  C   C2529     1.0  0.82175  0.15084  0.41027  1.0000
  C   C2530     1.0  0.81524  0.14765  0.40481  1.0000
  C   C2531     1.0  0.99260  0.21831  0.38714  1.0000
  H   H2530     1.0  0.79265  0.17506  0.39812  1.0000
  H   H2531     1.0  0.82399  0.14541  0.41778  1.0000
  H   H2532     1.0  0.81259  0.13983  0.40812  1.0000
  C   C2532     1.0  0.86974  0.21372  0.56221  1.0000
  H   H2533     1.0  0.89344  0.22803  0.39287  1.0000
  H   H2534     1.0  0.76532  0.06323  0.46394  1.0000
  C   C2533     1.0  0.86400  0.21810  0.44885  1.0000
  C   C2534     1.0  0.85408  0.21671  0.45666  1.0000
  C   C2535     1.0  0.84696  0.21091  0.45492  1.0000
  C   C2536     1.0  0.84969  0.20657  0.44534  1.0000
  C   C2537     1.0  0.85939  0.20838  0.43744  1.0000
  C   C2538     1.0  0.86646  0.21413  0.43916  1.0000
  H   H2535     1.0  0.72455  0.12839  0.43627  1.0000
  N   N209      1.0  0.73934  0.07476  0.38380  1.0000
  H   H2536     1.0  0.86170  0.20504  0.43015  1.0000
  H   H2537     1.0  0.87398  0.21535  0.43301  1.0000
  C   C2539     1.0  0.90231  0.19773  0.41887  1.0000
  C   C2540     1.0  0.90722  0.19505  0.40849  1.0000
  C   C2541     1.0  0.90101  0.19142  0.40310  1.0000
  C   C2542     1.0  0.88985  0.19053  0.40798  1.0000
  C   C2543     1.0  0.88493  0.19348  0.41819  1.0000
  C   C2544     1.0  0.89111  0.19707  0.42356  1.0000
  H   H2538     1.0  0.91588  0.19544  0.40480  1.0000
  C   C2545     1.0  0.76670  0.08608  0.39444  1.0000
  H   H2539     1.0  0.87644  0.19268  0.42208  1.0000
  H   H2540     1.0  0.88723  0.19917  0.43152  1.0000
  C   C2546     1.0  0.77146  0.07489  0.39397  1.0000
  C   C2547     1.0  0.89427  0.18809  0.45197  1.0000
  S   S866      1.0  0.79249  0.09697  0.39819  1.0000
  C   C2548     1.0  0.71146  0.05515  0.39663  1.0000
  H   H2541     1.0  0.68306  0.11196  0.57986  1.0000
  H   H2542     1.0  0.95391  0.22355  0.42938  1.0000
  H   H2543     1.0  0.74563  0.09850  0.52020  1.0000
  H   H2544     1.0  0.79726  0.07386  0.39778  1.0000
  C   C2549     1.0  0.72000  0.15158  0.57466  1.0000
  N   N210      1.0  0.80333  0.09185  0.57719  1.0000
  S   S867      1.0  0.76430  0.06727  0.38969  1.0000
  Fe  Fe429     1.0  0.86918  0.23693  0.46119  1.0000
  C   C2550     1.0  0.97591  0.21915  0.41277  1.0000
  C   C2551     1.0  0.97752  0.20769  0.41699  1.0000
  C   C2552     1.0  0.98740  0.20208  0.42076  1.0000
  Fe  Fe430     1.0  0.93535  0.22415  0.39891  1.0000
  C   C2553     1.0  0.98350  0.22438  0.44071  1.0000
  H   H2545     1.0  0.96568  0.19855  0.39181  1.0000
  H   H2546     1.0  0.70399  0.13647  0.57039  1.0000
  C   C2554     1.0  0.89527  0.22400  0.40120  1.0000
  C   C2555     1.0  0.74083  0.14533  0.40230  1.0000
  C   C2556     1.0  0.77565  0.06237  0.42591  1.0000
  H   H2547     1.0  0.79988  0.09113  0.56213  1.0000
  C   C2557     1.0  0.72003  0.04564  0.39744  1.0000
  C   C2558     1.0  0.78865  0.07726  0.39703  1.0000
  H   H2548     1.0  0.88947  0.21826  0.40538  1.0000
  H   H2549     1.0  0.70621  0.05782  0.40403  1.0000
  C   C2559     1.0  0.76029  0.10641  0.48259  1.0000
  H   H2550     1.0  0.76337  0.10142  0.47608  1.0000
  H   H2551     1.0  0.86816  0.16909  0.44864  1.0000
  C   C2560     1.0  0.80307  0.10298  0.57506  1.0000
  H   H2552     1.0  0.89172  0.22057  0.42319  1.0000
  S   S868      1.0  0.77386  0.14673  0.39651  1.0000
  C   C2561     1.0  0.75308  0.10203  0.50272  1.0000
  S   S869      1.0  0.72343  0.03925  0.41028  1.0000
  N   N211      1.0  0.87609  0.18118  0.45009  1.0000
  C   C2562     1.0  0.90964  0.21063  0.57680  1.0000
  C   C2563     1.0  0.87438  0.18920  0.45591  1.0000
  C   C2564     1.0  0.83312  0.22691  0.42340  1.0000
  S   S870      1.0  0.85179  0.18809  0.39730  1.0000
  H   H2553     1.0  0.98370  0.20029  0.39413  1.0000
  H   H2554     1.0  0.92714  0.20857  0.57653  1.0000
  C   C2565     1.0  0.78396  0.08850  0.39730  1.0000
  C   C2566     1.0  0.77070  0.07247  0.42913  1.0000
  H   H2555     1.0  0.76775  0.10766  0.48460  1.0000
  H   H2556     1.0  0.85880  0.18016  0.45476  1.0000
  N   N212      1.0  0.70599  0.06192  0.44838  1.0000
  C   C2567     1.0  0.70677  0.06350  0.43724  1.0000
  C   C2568     1.0  0.70981  0.05162  0.45441  1.0000
  C   C2569     1.0  0.71140  0.05460  0.43190  1.0000
  C   C2570     1.0  0.71482  0.04262  0.44925  1.0000
  C   C2571     1.0  0.71560  0.04414  0.43793  1.0000
  C   C2572     1.0  0.70169  0.07150  0.45365  1.0000
  H   H2557     1.0  0.70380  0.07167  0.43244  1.0000
  H   H2558     1.0  0.70922  0.05032  0.46323  1.0000
  H   H2559     1.0  0.71178  0.05578  0.42313  1.0000
  H   H2560     1.0  0.71821  0.03458  0.45401  1.0000
  H   H2561     1.0  0.71946  0.03723  0.43383  1.0000
  H   H2562     1.0  0.70832  0.07630  0.45172  1.0000
  H   H2563     1.0  0.69421  0.07701  0.45068  1.0000
  H   H2564     1.0  0.69926  0.06889  0.46283  1.0000
  N   N213      1.0  0.78968  0.16361  0.41362  1.0000
  C   C2573     1.0  0.79671  0.16671  0.41802  1.0000
  C   C2574     1.0  0.78565  0.15419  0.41876  1.0000
  C   C2575     1.0  0.80017  0.16010  0.42764  1.0000
  C   C2576     1.0  0.78893  0.14739  0.42838  1.0000
  C   C2577     1.0  0.79629  0.15035  0.43280  1.0000
  C   C2578     1.0  0.78603  0.17069  0.40362  1.0000
  H   H2565     1.0  0.80003  0.17411  0.41390  1.0000
  H   H2566     1.0  0.77995  0.15180  0.41539  1.0000
  H   H2567     1.0  0.80614  0.16236  0.43080  1.0000
  H   H2568     1.0  0.78579  0.13984  0.43231  1.0000
  H   H2569     1.0  0.79906  0.14505  0.44014  1.0000
  H   H2570     1.0  0.78447  0.16563  0.39864  1.0000
  H   H2571     1.0  0.77827  0.17688  0.40591  1.0000
  H   H2572     1.0  0.73226  0.14911  0.38900  1.0000
  Fe  Fe431     1.0  0.77041  0.13533  0.38785  1.0000
  C   C2579     1.0  0.79748  0.08784  0.57120  1.0000
  H   H2573     1.0  0.70432  0.09340  0.56932  1.0000
  C   C2580     1.0  0.73403  0.06810  0.39277  1.0000
  H   H2574     1.0  0.98878  0.19319  0.42401  1.0000
  C   C2581     1.0  0.73546  0.08878  0.39434  1.0000
  C   C2582     1.0  0.71617  0.07796  0.56750  1.0000
  H   H2575     1.0  0.94898  0.22306  0.44401  1.0000
  H   H2576     1.0  0.89576  0.23704  0.49399  1.0000
  H   H2577     1.0  0.72463  0.06648  0.40964  1.0000
  S   S871      1.0  0.94563  0.21997  0.57634  1.0000
  C   C2583     1.0  0.81603  0.16456  0.39086  1.0000
  H   H2578     1.0  0.72581  0.08513  0.41102  1.0000
  C   C2584     1.0  0.73224  0.14512  0.39762  1.0000
  H   H2579     1.0  0.73363  0.03505  0.38844  1.0000
  C   C2585     1.0  0.74626  0.09502  0.49114  1.0000
  H   H2580     1.0  0.74609  0.09442  0.48293  1.0000
  H   H2581     1.0  0.82453  0.23094  0.42719  1.0000
  H   H2582     1.0  0.75535  0.11464  0.47916  1.0000
  H   H2583     1.0  0.87573  0.22259  0.38890  1.0000
  H   H2584     1.0  0.71782  0.14817  0.55994  1.0000
  C   C2586     1.0  0.72971  0.08217  0.40343  1.0000
  H   H2585     1.0  0.75571  0.05521  0.46352  1.0000
  H   H2586     1.0  0.82496  0.17570  0.39316  1.0000
  C   C2587     1.0  0.88342  0.19281  0.45691  1.0000
  C   C2588     1.0  0.87587  0.22035  0.56404  1.0000
  C   C2589     1.0  0.82234  0.16787  0.39645  1.0000
  H   H2587     1.0  0.76913  0.10144  0.39637  1.0000
  C   C2590     1.0  0.73732  0.00940  0.40612  1.0000
  C   C2591     1.0  0.75642  0.14407  0.57074  1.0000
  N   N214      1.0  0.73253  0.13461  0.41959  1.0000
  H   H2588     1.0  0.83946  0.20956  0.46112  1.0000
  H   H2589     1.0  0.74913  0.15000  0.57378  1.0000
  H   H2590     1.0  0.72611  0.15658  0.57000  1.0000
  Fe  Fe432     1.0  0.93312  0.22918  0.42117  1.0000
  C   C2592     1.0  0.72402  0.13444  0.41509  1.0000
  C   C2593     1.0  0.85037  0.23402  0.41582  1.0000
  S   S872      1.0  0.94743  0.22724  0.40673  1.0000
  H   H2591     1.0  0.74490  0.00582  0.40970  1.0000
  H   H2592     1.0  0.73306  0.08603  0.49924  1.0000
  H   H2593     1.0  0.85436  0.20777  0.56764  1.0000
  Fe  Fe433     1.0  0.79219  0.13871  0.39246  1.0000
  C   C2594     1.0  0.73882  0.09128  0.51087  1.0000
  C   C2595     1.0  0.97849  0.20747  0.38984  1.0000
  C   C2596     1.0  0.85898  0.22165  0.38945  1.0000
  H   H2594     1.0  0.84248  0.22437  0.53335  1.0000
  C   C2597     1.0  0.74091  0.13990  0.41332  1.0000
  H   H2595     1.0  0.73290  0.08793  0.51802  1.0000
  C   C2598     1.0  0.96830  0.20642  0.38853  1.0000
  H   H2596     1.0  0.87315  0.20932  0.55552  1.0000
  C   C2599     1.0  0.86649  0.17814  0.44834  1.0000
  H   H2597     1.0  0.78635  0.06199  0.39472  1.0000
  H   H2598     1.0  0.71938  0.08105  0.55876  1.0000
  C   C2600     1.0  0.89148  0.23663  0.42537  1.0000
  H   H2599     1.0  0.85127  0.23145  0.40823  1.0000
  C   C2601     1.0  0.77521  0.05243  0.43374  1.0000
  H   H2600     1.0  0.77985  0.06221  0.41739  1.0000
  C   C2602     1.0  0.73307  0.12855  0.43097  1.0000
  C   C2603     1.0  0.73893  0.09019  0.50033  1.0000
  H   H2601     1.0  0.79945  0.07860  0.57270  1.0000
  S   S873      1.0  0.78879  0.13310  0.57405  1.0000
  H   H2602     1.0  0.86596  0.19308  0.45959  1.0000
  C   C2604     1.0  0.74598  0.09717  0.51211  1.0000
  H   H2603     1.0  0.73770  0.11983  0.43096  1.0000
  H   H2604     1.0  0.90435  0.17643  0.44194  1.0000
  H   H2605     1.0  0.88805  0.17046  0.44023  1.0000
  H   H2606     1.0  0.88199  0.19948  0.46117  1.0000
  H   H2607     1.0  0.90495  0.18907  0.39523  1.0000
  H   H2608     1.0  0.74753  0.14948  0.39735  1.0000
  N   N215      1.0  0.73369  0.00074  0.40337  1.0000
  H   H2609     1.0  0.75829  0.08964  0.39318  1.0000
  H   H2610     1.0  0.87303  0.23516  0.51955  1.0000
  H   H2611     1.0  0.85211  0.21971  0.46422  1.0000
  H   H2612     1.0  0.76945  0.04493  0.45075  1.0000
  H   H2613     1.0  0.76145  0.08034  0.44264  1.0000
  N   N216      1.0  0.96544  0.22583  0.43729  1.0000
  H   H2614     1.0  0.93315  0.22228  0.55995  1.0000
  H   H2615     1.0  0.73446  0.05355  0.57185  1.0000
  C   C2605     1.0  0.97477  0.21951  0.44106  1.0000
  H   H2616     1.0  0.73572  0.06515  0.56051  1.0000
  C   C2606     1.0  0.71019  0.06173  0.38621  1.0000
  C   C2607     1.0  0.72563  0.99496  0.39158  1.0000
  C   C2608     1.0  0.76626  0.14208  0.57465  1.0000
  H   H2617     1.0  0.77891  0.04452  0.43131  1.0000
  C   C2609     1.0  0.88670  0.17650  0.44521  1.0000
  C   C2610     1.0  0.76525  0.07246  0.44020  1.0000
  C   C2611     1.0  0.75924  0.06274  0.45942  1.0000
  C   C2612     1.0  0.70764  0.14022  0.57479  1.0000
  H   H2618     1.0  0.77111  0.08026  0.42309  1.0000
  H   H2619     1.0  0.73963  0.01585  0.39864  1.0000
  H   H2620     1.0  0.71736  0.13025  0.42001  1.0000
  C   C2613     1.0  0.77285  0.09282  0.39622  1.0000
  H   H2621     1.0  0.90133  0.19113  0.45228  1.0000
  C   C2614     1.0  0.76420  0.00341  0.39017  1.0000
  C   C2615     1.0  0.76393  0.99207  0.39319  1.0000
  C   C2616     1.0  0.72963  0.06029  0.56634  1.0000
  C   C2617     1.0  0.69987  0.11246  0.57974  1.0000
  H   H2622     1.0  0.73050  0.01355  0.41212  1.0000
  C   C2618     1.0  0.70770  0.08502  0.57345  1.0000
  C   C2619     1.0  0.71533  0.14683  0.56891  1.0000
  S   S874      1.0  0.75414  0.03979  0.39237  1.0000
  H   H2623     1.0  0.87618  0.23118  0.57407  1.0000
  C   C2620     1.0  0.87148  0.22603  0.57267  1.0000
  H   H2624     1.0  0.89181  0.21394  0.57908  1.0000
  N   N217      1.0  0.84143  0.23236  0.42442  1.0000
  H   H2625     1.0  0.97568  0.21060  0.44403  1.0000
  C   C2621     1.0  0.98405  0.22492  0.41221  1.0000
  S   S875      1.0  0.80395  0.15101  0.38774  1.0000
  H   H2626     1.0  0.72613  0.05650  0.56161  1.0000
  C   C2622     1.0  0.89220  0.22907  0.41902  1.0000
  H   H2627     1.0  0.73597  0.09694  0.39483  1.0000
  H   H2628     1.0  0.96851  0.22362  0.40972  1.0000
  C   C2623     1.0  0.73526  0.07767  0.58162  1.0000
  H   H2629     1.0  0.98270  0.23378  0.40883  1.0000
  C   C2624     1.0  0.72934  0.00309  0.39415  1.0000
  H   H2630     1.0  0.80786  0.11594  0.57928  1.0000
  C   C2625     1.0  0.80821  0.10709  0.58094  1.0000
  H   H2631     1.0  0.76651  0.14649  0.58062  1.0000
  N   N218      1.0  0.98167  0.21747  0.38612  1.0000
  C   C2626     1.0  0.91857  0.21226  0.58004  1.0000
  H   H2632     1.0  0.89038  0.23398  0.43432  1.0000
  C   C2627     1.0  0.86103  0.22507  0.57954  1.0000
  C   C2628     1.0  0.98263  0.23577  0.43648  1.0000
  H   H2633     1.0  0.83327  0.22738  0.41458  1.0000
  C   C2629     1.0  0.75086  0.06236  0.57813  1.0000
  C   C2630     1.0  0.84043  0.23537  0.43413  1.0000
  H   H2634     1.0  0.72256  0.99671  0.38406  1.0000
  H   H2635     1.0  0.76764  0.08915  0.57268  1.0000
  H   H2636     1.0  0.83353  0.23375  0.44107  1.0000
  C   C2631     1.0  0.99390  0.21935  0.41594  1.0000
  C   C2632     1.0  0.85481  0.21860  0.57764  1.0000
  H   H2637     1.0  0.99108  0.21931  0.44329  1.0000
  H   H2638     1.0  0.74227  0.12401  0.57835  1.0000
  C   C2633     1.0  0.75742  0.10378  0.57862  1.0000
  C   C2634     1.0  0.76101  0.09234  0.57913  1.0000
  H   H2639     1.0  0.75508  0.05382  0.58053  1.0000
  H   H2640     1.0  0.84338  0.23487  0.52074  1.0000
  C   C2635     1.0  0.74036  0.08487  0.38456  1.0000
  C   C2636     1.0  0.85132  0.23454  0.54392  1.0000
  Fe  Fe434     1.0  0.69776  0.09878  0.38445  1.0000
  C   C2637     1.0  0.96440  0.23705  0.43337  1.0000
  H   H2641     1.0  0.81394  0.16991  0.38326  1.0000
  C   C2638     1.0  0.99554  0.20789  0.42033  1.0000
  H   H2642     1.0  0.99224  0.22660  0.38855  1.0000
  H   H2643     1.0  0.73759  0.98866  0.41768  1.0000
  H   H2644     1.0  0.99533  0.21208  0.39437  1.0000
  C   C2639     1.0  0.89869  0.21534  0.58158  1.0000
  H   H2645     1.0  0.91214  0.23782  0.43637  1.0000
  Fe  Fe435     1.0  0.95478  0.21979  0.61274  1.0000
  S   S876      1.0  0.97059  0.21228  0.61948  1.0000
  Fe  Fe436     1.0  0.92928  0.22382  0.61472  1.0000
  C   C2640     1.0  0.88188  0.22773  0.65518  1.0000
  S   S877      1.0  0.91142  0.22279  0.62372  1.0000
  Fe  Fe437     1.0  0.94515  0.22397  0.59242  1.0000
  Fe  Fe438     1.0  0.58565  0.05814  0.76869  1.0000
  H   H2646     1.0  0.50369  0.08241  0.73721  1.0000
  S   S878      1.0  0.94390  0.21102  0.60827  1.0000
  H   H2647     1.0  0.74283  0.01715  0.61919  1.0000
  Fe  Fe439     1.0  0.75192  0.05219  0.60556  1.0000
  S   S879      1.0  0.76911  0.04778  0.59515  1.0000
  Fe  Fe440     1.0  0.76047  0.04748  0.62640  1.0000
  S   S880      1.0  0.77840  0.04256  0.61775  1.0000
  S   S881      1.0  0.75626  0.04789  0.64440  1.0000
  Fe  Fe441     1.0  0.77410  0.05757  0.60443  1.0000
  S   S882      1.0  0.78242  0.07206  0.59526  1.0000
  Fe  Fe442     1.0  0.77154  0.03323  0.60939  1.0000
  S   S883      1.0  0.77927  0.01533  0.60785  1.0000
  S   S884      1.0  0.75669  0.06300  0.61372  1.0000
  S   S885      1.0  0.75392  0.03708  0.61921  1.0000
  C   C2641     1.0  0.97517  0.23585  0.63268  1.0000
  N   N219      1.0  0.81359  0.19378  0.60377  1.0000
  H   H2648     1.0  0.85770  0.22948  0.58621  1.0000
  S   S886      1.0  0.59903  0.04303  0.77221  1.0000
  Fe  Fe443     1.0  0.52779  0.09768  0.76292  1.0000
  S   S887      1.0  0.52197  0.11045  0.74872  1.0000
  S   S888      1.0  0.52196  0.12901  0.76237  1.0000
  Fe  Fe444     1.0  0.51015  0.11863  0.76215  1.0000
  Fe  Fe445     1.0  0.53434  0.11946  0.75013  1.0000
  S   S889      1.0  0.54684  0.12813  0.73683  1.0000
  C   C2642     1.0  0.99335  0.22451  0.62680  1.0000
  N   N220      1.0  0.57825  0.14970  0.74353  1.0000
  Fe  Fe446     1.0  0.61853  0.12944  0.72590  1.0000
  S   S890      1.0  0.61486  0.12292  0.71295  1.0000
  S   S891      1.0  0.61277  0.14722  0.72764  1.0000
  Fe  Fe447     1.0  0.63084  0.10734  0.73639  1.0000
  S   S892      1.0  0.62826  0.09874  0.72469  1.0000
  S   S893      1.0  0.63989  0.09842  0.75007  1.0000
  Fe  Fe448     1.0  0.63278  0.11330  0.71128  1.0000
  S   S894      1.0  0.64429  0.10743  0.69600  1.0000
  Fe  Fe449     1.0  0.61076  0.10893  0.72721  1.0000
  S   S895      1.0  0.59675  0.10003  0.73096  1.0000
  S   S896      1.0  0.63682  0.12113  0.72296  1.0000
  S   S897      1.0  0.61297  0.11622  0.74021  1.0000
  C   C2643     1.0  0.74395  0.00047  0.61761  1.0000
  Fe  Fe450     1.0  0.71121  0.10116  0.64512  1.0000
  S   S898      1.0  0.69298  0.10278  0.64626  1.0000
  S   S899      1.0  0.71975  0.08919  0.65811  1.0000
  Fe  Fe451     1.0  0.71303  0.12119  0.62629  1.0000
  S   S900      1.0  0.69479  0.12498  0.62613  1.0000
  S   S901      1.0  0.72488  0.12972  0.61224  1.0000
  Fe  Fe452     1.0  0.69168  0.12087  0.64476  1.0000
  S   S902      1.0  0.67788  0.13094  0.65584  1.0000
  Fe  Fe453     1.0  0.69760  0.10666  0.62765  1.0000
  S   S903      1.0  0.68946  0.10102  0.61738  1.0000
  S   S904      1.0  0.70978  0.11909  0.64472  1.0000
  S   S905      1.0  0.71602  0.10303  0.62669  1.0000
  Fe  Fe454     1.0  0.79478  0.12049  0.61127  1.0000
  S   S906      1.0  0.77890  0.12772  0.60536  1.0000
  S   S907      1.0  0.79797  0.10177  0.61790  1.0000
  Fe  Fe455     1.0  0.80199  0.14326  0.60426  1.0000
  S   S908      1.0  0.78655  0.15174  0.59717  1.0000
  S   S909      1.0  0.81561  0.15325  0.60150  1.0000
  Fe  Fe456     1.0  0.77756  0.14196  0.61282  1.0000
  S   S910      1.0  0.76088  0.14800  0.62341  1.0000
  C   C2644     1.0  0.81346  0.09979  0.58918  1.0000
  S   S911      1.0  0.79269  0.13408  0.62026  1.0000
  Fe  Fe457     1.0  0.52870  0.11473  0.77514  1.0000
  Fe  Fe458     1.0  0.84586  0.21432  0.62618  1.0000
  S   S912      1.0  0.85393  0.19629  0.63155  1.0000
  S   S913      1.0  0.84001  0.22672  0.63743  1.0000
  Fe  Fe459     1.0  0.84656  0.21133  0.60335  1.0000
  S   S914      1.0  0.85555  0.19354  0.60661  1.0000
  C   C2645     1.0  0.70473  0.13840  0.58633  1.0000
  Fe  Fe460     1.0  0.84290  0.19216  0.62264  1.0000
  S   S915      1.0  0.83290  0.17829  0.62865  1.0000
  Fe  Fe461     1.0  0.86565  0.19939  0.61492  1.0000
  S   S916      1.0  0.88452  0.19384  0.61202  1.0000
  S   S917      1.0  0.83358  0.20993  0.61909  1.0000
  S   S918      1.0  0.85793  0.21743  0.60989  1.0000
  H   H2649     1.0  0.79187  0.17518  0.61326  1.0000
  H   H2650     1.0  0.89755  0.22271  0.64436  1.0000
  S   S919      1.0  0.51567  0.10538  0.77633  1.0000
  C   C2646     1.0  0.82076  0.15950  0.60946  1.0000
  C   C2647     1.0  0.81662  0.15882  0.62086  1.0000
  C   C2648     1.0  0.82058  0.16444  0.62660  1.0000
  C   C2649     1.0  0.82861  0.17095  0.62104  1.0000
  C   C2650     1.0  0.83291  0.17144  0.60969  1.0000
  C   C2651     1.0  0.82906  0.16572  0.60399  1.0000
  H   H2651     1.0  0.81030  0.15404  0.62525  1.0000
  H   H2652     1.0  0.81722  0.16387  0.63539  1.0000
  H   H2653     1.0  0.83918  0.17627  0.60527  1.0000
  H   H2654     1.0  0.83239  0.16627  0.59519  1.0000
  C   C2652     1.0  0.73452  0.13512  0.61555  1.0000
  C   C2653     1.0  0.74358  0.13807  0.60721  1.0000
  C   C2654     1.0  0.75151  0.14230  0.60956  1.0000
  C   C2655     1.0  0.75041  0.14364  0.62027  1.0000
  C   C2656     1.0  0.74121  0.14091  0.62859  1.0000
  C   C2657     1.0  0.73331  0.13655  0.62626  1.0000
  H   H2655     1.0  0.74459  0.13701  0.59891  1.0000
  H   H2656     1.0  0.75846  0.14461  0.60306  1.0000
  H   H2657     1.0  0.74035  0.14194  0.63689  1.0000
  H   H2658     1.0  0.72628  0.13437  0.63272  1.0000
  C   C2658     1.0  0.65374  0.11420  0.68524  1.0000
  C   C2659     1.0  0.65427  0.12522  0.68421  1.0000
  C   C2660     1.0  0.66181  0.13025  0.67522  1.0000
  C   C2661     1.0  0.66894  0.12426  0.66734  1.0000
  C   C2662     1.0  0.66852  0.11320  0.66854  1.0000
  C   C2663     1.0  0.66088  0.10825  0.67736  1.0000
  H   H2659     1.0  0.64877  0.12989  0.69022  1.0000
  H   H2660     1.0  0.66203  0.13884  0.67433  1.0000
  H   H2661     1.0  0.67387  0.10850  0.66255  1.0000
  H   H2662     1.0  0.66053  0.09972  0.67812  1.0000
  C   C2664     1.0  0.61095  0.15002  0.74077  1.0000
  C   C2665     1.0  0.60670  0.14298  0.75060  1.0000
  C   C2666     1.0  0.60470  0.14592  0.76088  1.0000
  C   C2667     1.0  0.60718  0.15578  0.76135  1.0000
  C   C2668     1.0  0.61150  0.16270  0.75152  1.0000
  C   C2669     1.0  0.61322  0.15991  0.74129  1.0000
  H   H2663     1.0  0.60466  0.13545  0.75028  1.0000
  H   H2664     1.0  0.60144  0.14048  0.76842  1.0000
  H   H2665     1.0  0.61344  0.17032  0.75180  1.0000
  H   H2666     1.0  0.61639  0.16545  0.73373  1.0000
  N   N221      1.0  0.86321  0.16593  0.62852  1.0000
  C   C2670     1.0  0.56071  0.12030  0.73488  1.0000
  C   C2671     1.0  0.56296  0.10870  0.73808  1.0000
  C   C2672     1.0  0.57406  0.10262  0.73660  1.0000
  C   C2673     1.0  0.58298  0.10805  0.73216  1.0000
  C   C2674     1.0  0.58078  0.11965  0.72888  1.0000
  C   C2675     1.0  0.56964  0.12574  0.73008  1.0000
  H   H2667     1.0  0.55615  0.10440  0.74145  1.0000
  H   H2668     1.0  0.57575  0.09367  0.73901  1.0000
  H   H2669     1.0  0.58764  0.12387  0.72520  1.0000
  H   H2670     1.0  0.56788  0.13466  0.72726  1.0000
  C   C2676     1.0  0.62760  0.06678  0.76938  1.0000
  C   C2677     1.0  0.63796  0.06820  0.76987  1.0000
  C   C2678     1.0  0.64157  0.07804  0.76415  1.0000
  C   C2679     1.0  0.63499  0.08640  0.75762  1.0000
  C   C2680     1.0  0.62465  0.08499  0.75704  1.0000
  C   C2681     1.0  0.62093  0.07523  0.76299  1.0000
  S   S920      1.0  0.56963  0.99698  0.76947  1.0000
  H   H2671     1.0  0.64962  0.07905  0.76453  1.0000
  H   H2672     1.0  0.61955  0.09137  0.75193  1.0000
  H   H2673     1.0  0.61313  0.07410  0.76220  1.0000
  H   H2674     1.0  0.80227  0.17856  0.59372  1.0000
  C   C2682     1.0  0.58170  0.15646  0.74792  1.0000
  H   H2675     1.0  0.70538  0.06759  0.59882  1.0000
  C   C2683     1.0  0.54752  0.01951  0.76825  1.0000
  C   C2684     1.0  0.87648  0.16969  0.61132  1.0000
  C   C2685     1.0  0.56095  0.07592  0.74784  1.0000
  C   C2686     1.0  0.54938  0.07979  0.75094  1.0000
  H   H2676     1.0  0.56578  0.08066  0.74078  1.0000
  H   H2677     1.0  0.54534  0.08757  0.74632  1.0000
  H   H2678     1.0  0.85053  0.15800  0.62841  1.0000
  C   C2687     1.0  0.70446  0.10757  0.59793  1.0000
  C   C2688     1.0  0.69368  0.10564  0.60296  1.0000
  H   H2679     1.0  0.84986  0.16970  0.64201  1.0000
  H   H2680     1.0  0.90390  0.22847  0.59834  1.0000
  C   C2689     1.0  0.56548  0.14481  0.76082  1.0000
  H   H2681     1.0  0.71042  0.10632  0.60298  1.0000
  H   H2682     1.0  0.77900  0.09568  0.59210  1.0000
  C   C2690     1.0  0.74554  0.05903  0.64815  1.0000
  C   C2691     1.0  0.74421  0.06152  0.65844  1.0000
  C   C2692     1.0  0.73620  0.07075  0.66141  1.0000
  C   C2693     1.0  0.72945  0.07754  0.65414  1.0000
  C   C2694     1.0  0.73060  0.07498  0.64392  1.0000
  C   C2695     1.0  0.73865  0.06570  0.64093  1.0000
  H   H2683     1.0  0.74948  0.05635  0.66406  1.0000
  H   H2684     1.0  0.73530  0.07267  0.66935  1.0000
  H   H2685     1.0  0.72521  0.08003  0.63839  1.0000
  H   H2686     1.0  0.73937  0.06360  0.63315  1.0000
  C   C2696     1.0  0.78485  0.08032  0.60297  1.0000
  C   C2697     1.0  0.79011  0.07550  0.61192  1.0000
  C   C2698     1.0  0.79393  0.08217  0.61655  1.0000
  C   C2699     1.0  0.79244  0.09370  0.61236  1.0000
  S   S921      1.0  0.54136  0.10567  0.76294  1.0000
  C   C2700     1.0  0.85789  0.16123  0.62366  1.0000
  H   H2687     1.0  0.79173  0.06657  0.61490  1.0000
  H   H2688     1.0  0.79832  0.07834  0.62323  1.0000
  C   C2701     1.0  0.86162  0.16082  0.61245  1.0000
  H   H2689     1.0  0.74258  0.08346  0.60249  1.0000
  C   C2702     1.0  0.77315  0.00852  0.60150  1.0000
  C   C2703     1.0  0.77710  0.99706  0.60190  1.0000
  H   H2690     1.0  0.64292  0.12826  0.66561  1.0000
  H   H2691     1.0  0.86182  0.23424  0.63021  1.0000
  C   C2704     1.0  0.56901  0.15164  0.76537  1.0000
  H   H2692     1.0  0.58677  0.10734  0.76394  1.0000
  C   C2705     1.0  0.58035  0.01992  0.77785  1.0000
  C   C2706     1.0  0.55998  0.06005  0.76322  1.0000
  N   N222      1.0  0.71709  0.14979  0.58597  1.0000
  C   C2707     1.0  0.90414  0.21450  0.62056  1.0000
  C   C2708     1.0  0.90976  0.20602  0.61484  1.0000
  C   C2709     1.0  0.90367  0.19969  0.61233  1.0000
  C   C2710     1.0  0.89193  0.20179  0.61549  1.0000
  C   C2711     1.0  0.88632  0.21024  0.62127  1.0000
  C   C2712     1.0  0.89240  0.21655  0.62381  1.0000
  H   H2693     1.0  0.91880  0.20432  0.61235  1.0000
  H   H2694     1.0  0.90808  0.19316  0.60787  1.0000
  H   H2695     1.0  0.87729  0.21191  0.62381  1.0000
  H   H2696     1.0  0.88796  0.22310  0.62823  1.0000
  H   H2697     1.0  0.55058  0.03844  0.77037  1.0000
  C   C2713     1.0  0.74692  0.08914  0.59588  1.0000
  H   H2698     1.0  0.75862  0.07610  0.58841  1.0000
  H   H2699     1.0  0.71924  0.15279  0.60084  1.0000
  S   S922      1.0  0.84211  0.21698  0.58676  1.0000
  H   H2700     1.0  0.87775  0.22234  0.65325  1.0000
  H   H2701     1.0  0.91433  0.23745  0.65182  1.0000
  C   C2714     1.0  0.97668  0.22082  0.62378  1.0000
  H   H2702     1.0  0.51479  0.08725  0.74779  1.0000
  C   C2715     1.0  0.64583  0.13147  0.65658  1.0000
  C   C2716     1.0  0.62460  0.13457  0.77768  1.0000
  H   H2703     1.0  0.58012  0.16269  0.76243  1.0000
  H   H2704     1.0  0.82626  0.20129  0.59148  1.0000
  C   C2717     1.0  0.87097  0.16510  0.60625  1.0000
  S   S923      1.0  0.93997  0.23116  0.62090  1.0000
  C   C2718     1.0  0.97014  0.22976  0.62854  1.0000
  Fe  Fe462     1.0  0.78931  0.13649  0.59033  1.0000
  S   S924      1.0  0.80550  0.12877  0.59597  1.0000
  C   C2719     1.0  0.76177  0.99426  0.62807  1.0000
  C   C2720     1.0  0.84620  0.23481  0.64234  1.0000
  C   C2721     1.0  0.79988  0.18538  0.61813  1.0000
  H   H2705     1.0  0.81703  0.10295  0.59415  1.0000
  C   C2722     1.0  0.81366  0.08846  0.59132  1.0000
  C   C2723     1.0  0.55110  0.03189  0.77776  1.0000
  C   C2724     1.0  0.57947  0.09507  0.76163  1.0000
  C   C2725     1.0  0.88518  0.22660  0.59409  1.0000
  C   C2726     1.0  0.62965  0.13561  0.76641  1.0000
  C   C2727     1.0  0.90543  0.22352  0.59225  1.0000
  H   H2706     1.0  0.87672  0.17380  0.62632  1.0000
  C   C2728     1.0  0.74112  0.06686  0.58510  1.0000
  C   C2729     1.0  0.79774  0.18066  0.61055  1.0000
  C   C2730     1.0  0.68606  0.10718  0.59637  1.0000
  H   H2707     1.0  0.80987  0.19521  0.62062  1.0000
  C   C2731     1.0  0.58011  0.10278  0.76714  1.0000
  H   H2708     1.0  0.73659  0.10378  0.60136  1.0000
  H   H2709     1.0  0.56751  0.13850  0.74636  1.0000
  H   H2710     1.0  0.76105  0.02304  0.59610  1.0000
  C   C2732     1.0  0.76413  0.01422  0.59650  1.0000
  C   C2733     1.0  0.57089  0.08918  0.76586  1.0000
  H   H2711     1.0  0.70727  0.14179  0.60080  1.0000
  H   H2712     1.0  0.98327  0.22357  0.65605  1.0000
  H   H2713     1.0  0.81852  0.20888  0.60203  1.0000
  C   C2734     1.0  0.66073  0.12453  0.64179  1.0000
  H   H2714     1.0  0.98293  0.20953  0.66389  1.0000
  H   H2715     1.0  0.54346  0.05908  0.77324  1.0000
  H   H2716     1.0  0.64376  0.11034  0.66229  1.0000
  C   C2735     1.0  0.58348  0.14822  0.73219  1.0000
  C   C2736     1.0  0.57724  0.01404  0.77182  1.0000
  C   C2737     1.0  0.74707  0.00849  0.62098  1.0000
  H   H2717     1.0  0.55908  0.14026  0.76578  1.0000
  H   H2718     1.0  0.61457  0.11151  0.78144  1.0000
  S   S925      1.0  0.95728  0.23151  0.59615  1.0000
  C   C2738     1.0  0.80852  0.08460  0.58522  1.0000
  H   H2719     1.0  0.73720  0.00306  0.61321  1.0000
  H   H2720     1.0  0.73137  0.15217  0.58974  1.0000
  C   C2739     1.0  0.80791  0.19193  0.61459  1.0000
  H   H2721     1.0  0.76901  0.99185  0.63179  1.0000
  C   C2740     1.0  0.82220  0.20039  0.60043  1.0000
  H   H2722     1.0  0.62370  0.11364  0.76151  1.0000
  H   H2723     1.0  0.63731  0.13725  0.74529  1.0000
  C   C2741     1.0  0.72212  0.15499  0.59168  1.0000
  H   H2724     1.0  0.98124  0.21374  0.64969  1.0000
  C   C2742     1.0  0.77192  0.99129  0.59754  1.0000
  N   N223      1.0  0.89671  0.22157  0.58931  1.0000
  C   C2743     1.0  0.70956  0.14329  0.59182  1.0000
  C   C2744     1.0  0.91648  0.21879  0.58776  1.0000
  H   H2725     1.0  0.78584  0.10728  0.60012  1.0000
  H   H2726     1.0  0.57706  0.14864  0.72765  1.0000
  S   S926      1.0  0.73664  0.05923  0.59835  1.0000
  S   S927      1.0  0.52914  0.07946  0.76510  1.0000
  H   H2727     1.0  0.56413  0.05249  0.76799  1.0000
  H   H2728     1.0  0.54510  0.01138  0.77002  1.0000
  C   C2745     1.0  0.57597  0.00303  0.77633  1.0000
  C   C2746     1.0  0.74548  0.11977  0.58599  1.0000
  C   C2747     1.0  0.66480  0.10544  0.64016  1.0000
  H   H2729     1.0  0.79565  0.18364  0.62679  1.0000
  C   C2748     1.0  0.63460  0.12923  0.74893  1.0000
  N   N224      1.0  0.62930  0.12814  0.76074  1.0000
  H   H2730     1.0  0.86079  0.15776  0.64547  1.0000
  H   H2731     1.0  0.65472  0.09508  0.65278  1.0000
  N   N225      1.0  0.69010  0.11235  0.68095  1.0000
  C   C2749     1.0  0.69678  0.10386  0.67609  1.0000
  C   C2750     1.0  0.68128  0.11046  0.68962  1.0000
  C   C2751     1.0  0.69449  0.09321  0.67965  1.0000
  C   C2752     1.0  0.67873  0.09992  0.69339  1.0000
  C   C2753     1.0  0.68536  0.09126  0.68832  1.0000
  C   C2754     1.0  0.69273  0.12342  0.67718  1.0000
  H   H2732     1.0  0.70393  0.10528  0.66938  1.0000
  H   H2733     1.0  0.67596  0.11719  0.69349  1.0000
  H   H2734     1.0  0.69978  0.08654  0.67566  1.0000
  H   H2735     1.0  0.67148  0.09856  0.70001  1.0000
  H   H2736     1.0  0.68342  0.08308  0.69107  1.0000
  H   H2737     1.0  0.69663  0.12504  0.66817  1.0000
  H   H2738     1.0  0.68501  0.13004  0.67824  1.0000
  H   H2739     1.0  0.69856  0.12413  0.68186  1.0000
  C   C2755     1.0  0.85905  0.16626  0.64029  1.0000
  H   H2740     1.0  0.58949  0.14007  0.73239  1.0000
  H   H2741     1.0  0.86299  0.17168  0.64279  1.0000
  N   N226      1.0  0.74888  0.10776  0.58664  1.0000
  H   H2742     1.0  0.82888  0.19635  0.60518  1.0000
  H   H2743     1.0  0.67340  0.11777  0.62882  1.0000
  C   C2756     1.0  0.50598  0.08719  0.75114  1.0000
  S   S928      1.0  0.59295  0.06932  0.77405  1.0000
  N   N227      1.0  0.65254  0.12242  0.65106  1.0000
  C   C2757     1.0  0.65024  0.11203  0.65492  1.0000
  C   C2758     1.0  0.49979  0.08439  0.74527  1.0000
  C   C2759     1.0  0.80356  0.18260  0.59954  1.0000
  H   H2744     1.0  0.50558  0.09226  0.76584  1.0000
  H   H2745     1.0  0.58100  0.02848  0.77438  1.0000
  H   H2746     1.0  0.75892  0.01154  0.62842  1.0000
  H   H2747     1.0  0.58811  0.16100  0.74298  1.0000
  H   H2748     1.0  0.88245  0.23481  0.58878  1.0000
  N   N228      1.0  0.54958  0.02163  0.77809  1.0000
  N   N229      1.0  0.60849  0.06730  0.73455  1.0000
  C   C2760     1.0  0.61632  0.07333  0.73321  1.0000
  C   C2761     1.0  0.60914  0.05699  0.74143  1.0000
  C   C2762     1.0  0.62522  0.06897  0.73865  1.0000
  C   C2763     1.0  0.61791  0.05240  0.74704  1.0000
  C   C2764     1.0  0.62597  0.05845  0.74564  1.0000
  C   C2765     1.0  0.59905  0.07225  0.72905  1.0000
  H   H2749     1.0  0.61562  0.08160  0.72797  1.0000
  H   H2750     1.0  0.60279  0.05230  0.74274  1.0000
  H   H2751     1.0  0.63134  0.07383  0.73767  1.0000
  H   H2752     1.0  0.61836  0.04427  0.75258  1.0000
  H   H2753     1.0  0.63264  0.05509  0.75018  1.0000
  H   H2754     1.0  0.59256  0.07786  0.73397  1.0000
  H   H2755     1.0  0.60174  0.07723  0.72062  1.0000
  H   H2756     1.0  0.59512  0.06582  0.72828  1.0000
  N   N230      1.0  0.76259  0.08795  0.63324  1.0000
  C   C2766     1.0  0.77016  0.09389  0.63295  1.0000
  C   C2767     1.0  0.75234  0.09333  0.63091  1.0000
  C   C2768     1.0  0.76779  0.10548  0.62972  1.0000
  C   C2769     1.0  0.74966  0.10494  0.62771  1.0000
  C   C2770     1.0  0.75750  0.11101  0.62703  1.0000
  C   C2771     1.0  0.76523  0.07579  0.63661  1.0000
  H   H2757     1.0  0.77818  0.08969  0.63508  1.0000
  H   H2758     1.0  0.74619  0.08863  0.63154  1.0000
  H   H2759     1.0  0.77394  0.11013  0.62924  1.0000
  H   H2760     1.0  0.74154  0.10923  0.62583  1.0000
  H   H2761     1.0  0.75563  0.12000  0.62449  1.0000
  H   H2762     1.0  0.76142  0.07196  0.63217  1.0000
  H   H2763     1.0  0.77440  0.07237  0.63464  1.0000
  H   H2764     1.0  0.76199  0.07315  0.64566  1.0000
  H   H2765     1.0  0.66263  0.13274  0.63878  1.0000
  H   H2766     1.0  0.72770  0.08118  0.58698  1.0000
  H   H2767     1.0  0.67773  0.10570  0.60018  1.0000
  H   H2768     1.0  0.57051  0.08317  0.76155  1.0000
  H   H2769     1.0  0.62857  0.12900  0.74423  1.0000
  C   C2772     1.0  0.65641  0.10336  0.64960  1.0000
  C   C2773     1.0  0.57026  0.14388  0.74983  1.0000
  H   H2770     1.0  0.54073  0.02613  0.76510  1.0000
  S   S929      1.0  0.58085  0.06331  0.75224  1.0000
  C   C2774     1.0  0.54313  0.07375  0.76015  1.0000
  C   C2775     1.0  0.54834  0.06368  0.76608  1.0000
  C   C2776     1.0  0.55475  0.08406  0.78022  1.0000
  C   C2777     1.0  0.98830  0.21823  0.62295  1.0000
  S   S930      1.0  0.60549  0.15965  0.77395  1.0000
  C   C2778     1.0  0.75584  0.08500  0.58791  1.0000
  H   H2771     1.0  0.57553  0.01814  0.76371  1.0000
  H   H2772     1.0  0.53088  0.13835  0.78120  1.0000
  C   C2779     1.0  0.90974  0.23571  0.64648  1.0000
  H   H2773     1.0  0.63843  0.13573  0.65288  1.0000
  C   C2780     1.0  0.87247  0.17004  0.62253  1.0000
  C   C2781     1.0  0.85671  0.23757  0.63730  1.0000
  C   C2782     1.0  0.98681  0.23327  0.63181  1.0000
  C   C2783     1.0  0.76283  0.99699  0.59262  1.0000
  N   N231      1.0  0.74964  0.98963  0.61941  1.0000
  H   H2774     1.0  0.80828  0.07585  0.58728  1.0000
  C   C2784     1.0  0.68909  0.11070  0.58485  1.0000
  C   C2785     1.0  0.66693  0.11610  0.63619  1.0000
  C   C2786     1.0  0.98574  0.21464  0.65559  1.0000
  H   H2775     1.0  0.85717  0.15733  0.60859  1.0000
  C   C2787     1.0  0.78301  0.09187  0.59904  1.0000
  H   H2776     1.0  0.64197  0.12227  0.74774  1.0000
  H   H2777     1.0  0.75206  0.01296  0.58818  1.0000
  H   H2778     1.0  0.83159  0.23726  0.65540  1.0000
  H   H2779     1.0  0.73878  0.12191  0.59316  1.0000
  C   C2788     1.0  0.62403  0.11952  0.76603  1.0000
  H   H2780     1.0  0.65086  0.13762  0.65579  1.0000
  H   H2781     1.0  0.87387  0.16498  0.59750  1.0000
  C   C2789     1.0  0.70762  0.11083  0.58628  1.0000
  H   H2782     1.0  0.58566  0.09352  0.75420  1.0000
  C   C2790     1.0  0.56629  0.06635  0.75429  1.0000
  C   C2791     1.0  0.78681  0.09851  0.60367  1.0000
  H   H2783     1.0  0.71992  0.16418  0.58899  1.0000
  H   H2784     1.0  0.78412  0.99261  0.60570  1.0000
  H   H2785     1.0  0.91451  0.22782  0.64390  1.0000
  H   H2786     1.0  0.57279  0.11022  0.78137  1.0000
  H   H2787     1.0  0.66968  0.09881  0.63592  1.0000
  H   H2788     1.0  0.58823  0.15477  0.72738  1.0000
  H   H2789     1.0  0.56544  0.15243  0.77388  1.0000
  C   C2792     1.0  0.81149  0.18925  0.59626  1.0000
  H   H2790     1.0  0.96117  0.23177  0.62934  1.0000
  C   C2793     1.0  0.57719  0.15749  0.75891  1.0000
  H   H2791     1.0  0.63353  0.14264  0.76219  1.0000
  C   C2794     1.0  0.89305  0.22806  0.65010  1.0000
  H   H2792     1.0  0.88367  0.17320  0.60656  1.0000
  H   H2793     1.0  0.55532  0.01917  0.76166  1.0000
  C   C2795     1.0  0.75608  0.00534  0.62620  1.0000
  H   H2794     1.0  0.81618  0.19044  0.58775  1.0000
  N   N232      1.0  0.56323  0.09083  0.77540  1.0000
  H   H2795     1.0  0.55302  0.08082  0.77383  1.0000
  H   H2796     1.0  0.69882  0.13318  0.59097  1.0000
  Fe  Fe463     1.0  0.60531  0.05385  0.77917  1.0000
  H   H2797     1.0  0.62454  0.14074  0.78206  1.0000
  C   C2796     1.0  0.75904  0.00848  0.59203  1.0000
  C   C2797     1.0  0.74353  0.10062  0.59513  1.0000
  S   S931      1.0  0.93009  0.23629  0.59866  1.0000
  H   H2798     1.0  0.81735  0.08279  0.59800  1.0000
  S   S932      1.0  0.75560  0.99016  0.58748  1.0000
  H   H2799     1.0  0.75275  0.12309  0.58582  1.0000
  H   H2800     1.0  0.64325  0.06163  0.77465  1.0000
  C   C2798     1.0  0.56386  0.09830  0.78091  1.0000
  H   H2801     1.0  0.87943  0.22114  0.59489  1.0000
  C   C2799     1.0  0.50072  0.09001  0.76138  1.0000
  H   H2802     1.0  0.72012  0.05533  0.58792  1.0000
  C   C2800     1.0  0.57225  0.10444  0.77685  1.0000
  C   C2801     1.0  0.87599  0.23458  0.66259  1.0000
  H   H2803     1.0  0.86724  0.23461  0.66643  1.0000
  N   N233      1.0  0.89822  0.23503  0.65233  1.0000
  C   C2802     1.0  0.70819  0.07051  0.58997  1.0000
  S   S933      1.0  0.62347  0.05423  0.77657  1.0000
  H   H2804     1.0  0.49933  0.11674  0.74209  1.0000
  H   H2805     1.0  0.88441  0.22779  0.60253  1.0000
  H   H2806     1.0  0.99340  0.21130  0.61933  1.0000
  C   C2803     1.0  0.61890  0.11824  0.77728  1.0000
  H   H2807     1.0  0.92339  0.22008  0.59029  1.0000
  C   C2804     1.0  0.70377  0.08129  0.58477  1.0000
  H   H2808     1.0  0.69740  0.08677  0.58955  1.0000
  C   C2805     1.0  0.71653  0.06360  0.58374  1.0000
  H   H2809     1.0  0.99667  0.19934  0.64364  1.0000
  H   H2810     1.0  0.71597  0.11216  0.58241  1.0000
  Fe  Fe464     1.0  0.60273  0.22082  0.97095  1.0000
  Fe  Fe465     1.0  0.60271  0.22677  0.94584  1.0000
  H   H2811     1.0  0.57532  0.22814  0.93979  1.0000
  S   S934      1.0  0.60991  0.22690  0.92748  1.0000
  Fe  Fe466     1.0  0.58114  0.22665  0.96307  1.0000
  S   S935      1.0  0.56443  0.22308  0.96482  1.0000
  H   H2812     1.0  0.56807  0.22653  0.90375  1.0000
  S   S936      1.0  0.59670  0.21345  0.96006  1.0000
  S   S937      1.0  0.54267  0.22043  0.91443  1.0000
  H   H2813     1.0  0.55751  0.02680  0.80293  1.0000
  H   H2814     1.0  0.61521  0.12495  0.79183  1.0000
  S   S938      1.0  0.58552  0.13931  0.78950  1.0000
  H   H2815     1.0  0.57291  0.20725  0.88595  1.0000
  H   H2816     1.0  0.51967  0.12807  0.80517  1.0000
  S   S939      1.0  0.57320  0.07766  0.80064  1.0000
  H   H2817     1.0  0.56518  0.17974  0.83985  1.0000
  S   S940      1.0  0.58425  0.02266  0.79695  1.0000
  H   H2818     1.0  0.56286  0.12845  0.79975  1.0000
  H   H2819     1.0  0.55520  0.04203  0.78642  1.0000
  N   N234      1.0  0.63724  0.23487  0.96888  1.0000
  C   C2806     1.0  0.57651  0.22603  0.92337  1.0000
  C   C2807     1.0  0.57341  0.20472  0.93363  1.0000
  Fe  Fe467     1.0  0.60566  0.19787  0.85820  1.0000
  S   S941      1.0  0.59883  0.21601  0.85165  1.0000
  S   S942      1.0  0.61086  0.18676  0.84529  1.0000
  Fe  Fe468     1.0  0.60104  0.20226  0.88192  1.0000
  S   S943      1.0  0.59310  0.22019  0.87678  1.0000
  S   S944      1.0  0.60161  0.19640  0.90020  1.0000
  Fe  Fe469     1.0  0.58510  0.21414  0.86672  1.0000
  S   S945      1.0  0.56714  0.22053  0.86551  1.0000
  Fe  Fe470     1.0  0.60779  0.22013  0.86246  1.0000
  H   H2820     1.0  0.63454  0.08723  0.79509  1.0000
  S   S946      1.0  0.59158  0.19605  0.87311  1.0000
  S   S947      1.0  0.61613  0.20220  0.86770  1.0000
  Fe  Fe471     1.0  0.59133  0.12990  0.80503  1.0000
  C   C2808     1.0  0.57667  0.22309  0.90525  1.0000
  S   S948      1.0  0.59913  0.11177  0.80462  1.0000
  Fe  Fe472     1.0  0.58645  0.15106  0.81456  1.0000
  S   S949      1.0  0.58012  0.16179  0.79946  1.0000
  S   S950      1.0  0.58508  0.15874  0.82945  1.0000
  Fe  Fe473     1.0  0.57136  0.14831  0.80063  1.0000
  H   H2821     1.0  0.60791  0.05661  0.80975  1.0000
  H   H2822     1.0  0.63144  0.21147  0.91667  1.0000
  S   S951      1.0  0.57640  0.13809  0.81645  1.0000
  S   S952      1.0  0.60185  0.14179  0.80446  1.0000
  C   C2809     1.0  0.60382  0.17849  0.84133  1.0000
  C   C2810     1.0  0.60839  0.17488  0.83126  1.0000
  C   C2811     1.0  0.60293  0.16875  0.82754  1.0000
  C   C2812     1.0  0.59284  0.16591  0.83394  1.0000
  C   C2813     1.0  0.58843  0.16927  0.84415  1.0000
  C   C2814     1.0  0.59378  0.17558  0.84776  1.0000
  H   H2823     1.0  0.61618  0.17695  0.82621  1.0000
  H   H2824     1.0  0.60653  0.16623  0.81971  1.0000
  H   H2825     1.0  0.58076  0.16702  0.84931  1.0000
  H   H2826     1.0  0.59017  0.17813  0.85558  1.0000
  N   N235      1.0  0.50032  0.22289  0.90251  1.0000
  C   C2815     1.0  0.57997  0.20347  0.84101  1.0000
  N   N236      1.0  0.57445  0.19234  0.83197  1.0000
  C   C2816     1.0  0.61135  0.08446  0.81558  1.0000
  N   N237      1.0  0.63472  0.21961  0.89961  1.0000
  H   H2827     1.0  0.62854  0.19407  0.89376  1.0000
  C   C2817     1.0  0.58119  0.00377  0.79292  1.0000
  C   C2818     1.0  0.55604  0.13066  0.79551  1.0000
  H   H2828     1.0  0.61098  0.23606  0.98026  1.0000
  H   H2829     1.0  0.63998  0.22781  0.90907  1.0000
  H   H2830     1.0  0.55465  0.00824  0.80343  1.0000
  S   S953      1.0  0.57365  0.05456  0.78497  1.0000
  C   C2819     1.0  0.58017  0.08787  0.80062  1.0000
  C   C2820     1.0  0.59135  0.08757  0.79514  1.0000
  N   N238      1.0  0.53019  0.12914  0.81507  1.0000
  C   C2821     1.0  0.59134  0.10353  0.80209  1.0000
  C   C2822     1.0  0.57999  0.10422  0.80706  1.0000
  C   C2823     1.0  0.57445  0.09636  0.80639  1.0000
  H   H2831     1.0  0.63359  0.22072  0.96598  1.0000
  C   C2824     1.0  0.59691  0.09534  0.79591  1.0000
  H   H2832     1.0  0.57562  0.11049  0.81185  1.0000
  H   H2833     1.0  0.56578  0.09669  0.81057  1.0000
  C   C2825     1.0  0.54903  0.12077  0.82425  1.0000
  C   C2826     1.0  0.54976  0.23339  0.95121  1.0000
  H   H2834     1.0  0.54670  0.08909  0.78401  1.0000
  H   H2835     1.0  0.62801  0.19482  0.91301  1.0000
  C   C2827     1.0  0.57249  0.19745  0.84059  1.0000
  C   C2828     1.0  0.62749  0.08381  0.80041  1.0000
  C   C2829     1.0  0.63032  0.20151  0.90617  1.0000
  C   C2830     1.0  0.63061  0.20109  0.89535  1.0000
  H   H2836     1.0  0.54390  0.22894  0.87492  1.0000
  S   S954      1.0  0.55433  0.15225  0.79652  1.0000
  H   H2837     1.0  0.57262  0.20908  0.94894  1.0000
  C   C2831     1.0  0.54786  0.21766  0.90117  1.0000
  H   H2838     1.0  0.53032  0.11226  0.81582  1.0000
  Fe  Fe474     1.0  0.58750  0.03989  0.78887  1.0000
  C   C2832     1.0  0.55919  0.21831  0.87909  1.0000
  C   C2833     1.0  0.56434  0.21167  0.88770  1.0000
  C   C2834     1.0  0.55857  0.21114  0.89872  1.0000
  C   C2835     1.0  0.57821  0.99782  0.78682  1.0000
  H   H2839     1.0  0.60565  0.09480  0.79193  1.0000
  C   C2836     1.0  0.62515  0.07449  0.79857  1.0000
  C   C2837     1.0  0.54371  0.11355  0.82224  1.0000
  C   C2838     1.0  0.55647  0.23476  0.95751  1.0000
  H   H2840     1.0  0.54897  0.13795  0.82299  1.0000
  C   C2839     1.0  0.53523  0.13627  0.81722  1.0000
  H   H2841     1.0  0.55847  0.19151  0.83056  1.0000
  H   H2842     1.0  0.62746  0.23518  0.90409  1.0000
  C   C2840     1.0  0.60591  0.21905  0.92038  1.0000
  C   C2841     1.0  0.60363  0.20855  0.92557  1.0000
  C   C2842     1.0  0.60216  0.20178  0.91932  1.0000
  C   C2843     1.0  0.60278  0.20549  0.90785  1.0000
  C   C2844     1.0  0.60468  0.21617  0.90273  1.0000
  C   C2845     1.0  0.60626  0.22289  0.90896  1.0000
  H   H2843     1.0  0.60343  0.20545  0.93434  1.0000
  H   H2844     1.0  0.60070  0.19354  0.92336  1.0000
  H   H2845     1.0  0.60530  0.21912  0.89390  1.0000
  H   H2846     1.0  0.60807  0.23099  0.90484  1.0000
  H   H2847     1.0  0.58253  0.99982  0.80119  1.0000
  H   H2848     1.0  0.55515  0.11371  0.79743  1.0000
  H   H2849     1.0  0.56273  0.20632  0.90533  1.0000
  H   H2850     1.0  0.52323  0.21267  0.91371  1.0000
  C   C2846     1.0  0.58208  0.01490  0.78854  1.0000
  N   N239      1.0  0.57614  0.21904  0.91717  1.0000
  H   H2851     1.0  0.62136  0.05454  0.80049  1.0000
  C   C2847     1.0  0.59130  0.19921  0.82365  1.0000
  H   H2852     1.0  0.63902  0.23614  0.85180  1.0000
  H   H2853     1.0  0.58540  0.18894  0.81682  1.0000
  C   C2848     1.0  0.55083  0.14180  0.79243  1.0000
  H   H2854     1.0  0.54705  0.10465  0.82399  1.0000
  C   C2849     1.0  0.55172  0.12229  0.79406  1.0000
  H   H2855     1.0  0.51149  0.20704  0.90458  1.0000
  H   H2856     1.0  0.51600  0.23717  0.87601  1.0000
  H   H2857     1.0  0.56525  0.19667  0.84735  1.0000
  C   C2850     1.0  0.55329  0.01504  0.79640  1.0000
  H   H2858     1.0  0.60957  0.06387  0.79541  1.0000
  C   C2851     1.0  0.58946  0.20430  0.83249  1.0000
  H   H2859     1.0  0.53794  0.15318  0.78451  1.0000
  H   H2860     1.0  0.59559  0.20853  0.83291  1.0000
  H   H2861     1.0  0.56987  0.18101  0.82527  1.0000
  H   H2862     1.0  0.60563  0.08859  0.82196  1.0000
  C   C2852     1.0  0.57368  0.21183  0.94000  1.0000
  H   H2863     1.0  0.57220  0.19636  0.93754  1.0000
  C   C2853     1.0  0.62053  0.08881  0.80898  1.0000
  C   C2854     1.0  0.55062  0.01325  0.78726  1.0000
  H   H2864     1.0  0.57858  0.20723  0.84803  1.0000
  C   C2855     1.0  0.63587  0.22977  0.90197  1.0000
  H   H2865     1.0  0.58075  0.21623  0.90076  1.0000
  C   C2856     1.0  0.52021  0.13355  0.81032  1.0000
  C   C2857     1.0  0.63956  0.21678  0.98096  1.0000
  C   C2858     1.0  0.55372  0.03398  0.78679  1.0000
  Fe  Fe475     1.0  0.59481  0.15170  0.78960  1.0000
  C   C2859     1.0  0.53422  0.11790  0.81766  1.0000
  H   H2866     1.0  0.53410  0.22885  0.89445  1.0000
  H   H2867     1.0  0.59577  0.08122  0.79049  1.0000
  H   H2868     1.0  0.60180  0.07212  0.81835  1.0000
  C   C2860     1.0  0.61361  0.06085  0.80263  1.0000
  H   H2869     1.0  0.64102  0.23454  0.89474  1.0000
  S   S955      1.0  0.61609  0.23503  0.85705  1.0000
  C   C2861     1.0  0.51602  0.21856  0.91105  1.0000
  C   C2862     1.0  0.50436  0.23702  0.90894  1.0000
  H   H2870     1.0  0.59887  0.19948  0.81721  1.0000
  H   H2871     1.0  0.57453  0.20288  0.91724  1.0000
  C   C2863     1.0  0.54257  0.12499  0.78899  1.0000
  C   C2864     1.0  0.54475  0.13221  0.82176  1.0000
  C   C2865     1.0  0.60922  0.07516  0.81348  1.0000
  H   H2872     1.0  0.53218  0.14520  0.81500  1.0000
  H   H2873     1.0  0.63045  0.07074  0.79178  1.0000
  S   S956      1.0  0.53575  0.11445  0.78969  1.0000
  H   H2874     1.0  0.54903  0.22514  0.95131  1.0000
  N   N240      1.0  0.61618  0.07024  0.80514  1.0000
  C   C2866     1.0  0.54240  0.22375  0.89259  1.0000
  H   H2875     1.0  0.63714  0.22601  0.88217  1.0000
  H   H2876     1.0  0.55655  0.11754  0.82756  1.0000
  C   C2867     1.0  0.54802  0.22394  0.88152  1.0000
  H   H2877     1.0  0.51257  0.13424  0.81704  1.0000
  C   C2868     1.0  0.57525  0.22255  0.93486  1.0000
  S   S957      1.0  0.59509  0.04928  0.79638  1.0000
  C   C2869     1.0  0.50936  0.21544  0.90590  1.0000
  C   C2870     1.0  0.63523  0.21917  0.88896  1.0000
  C   C2871     1.0  0.57464  0.20849  0.92215  1.0000
  C   C2872     1.0  0.63231  0.21094  0.90817  1.0000
  C   C2873     1.0  0.58366  0.19323  0.82351  1.0000
  C   C2874     1.0  0.56657  0.18589  0.83188  1.0000
  H   H2878     1.0  0.63319  0.20982  0.87823  1.0000
  C   C2875     1.0  0.63312  0.20996  0.88667  1.0000
  C   C2876     1.0  0.51349  0.22942  0.91257  1.0000
  Fe  Fe476     1.0  0.58235  0.06435  0.79078  1.0000
  H   H2879     1.0  0.58160  0.22968  0.90166  1.0000
  C   C2877     1.0  0.53800  0.13617  0.78504  1.0000
  S   S958      1.0  0.58651  0.23278  0.97510  1.0000
  H   H2880     1.0  0.57769  0.23439  0.91944  1.0000
  C   C2878     1.0  0.54197  0.14456  0.78696  1.0000
  C   C2879     1.0  0.55490  0.02546  0.79612  1.0000
  H   H2881     1.0  0.54997  0.00495  0.78732  1.0000
  H   H2882     1.0  0.52050  0.14185  0.80473  1.0000
  H   H2883     1.0  0.62200  0.09625  0.81033  1.0000
  C   C2880     1.0  0.63668  0.22392  0.97130  1.0000
  H   H2884     1.0  0.51871  0.23194  0.91642  1.0000
  C   C2881     1.0  0.61923  0.12581  0.78312  1.0000
  S   S959      1.0  0.61051  0.23260  0.95643  1.0000
  H   H2885     1.0  0.55766  0.07698  0.78674  1.0000
  H   H2886     1.0  0.55800  0.09927  0.78866  1.0000
  H   H2887     1.0  0.57715  0.98938  0.79042  1.0000
  H   H2888     1.0  0.63455  0.23791  0.95246  1.0000
  H   H2889     1.0  0.49814  0.21959  0.88803  1.0000
  C   C2882     1.0  0.49780  0.23358  0.90391  1.0000
  Fe  Fe477     1.0  0.53744  0.26997  0.10580  1.0000
  N   N241      1.0  0.73442  0.33768  0.99226  1.0000
  S   S960      1.0  0.51981  0.27807  0.10327  1.0000
  Fe  Fe478     1.0  0.56263  0.26958  0.09961  1.0000
  S   S961      1.0  0.56665  0.25268  0.11034  1.0000
  S   S962      1.0  0.57760  0.27709  0.09005  1.0000
  Fe  Fe479     1.0  0.55390  0.24842  0.10424  1.0000
  C   C2883     1.0  0.82420  0.39895  0.14875  1.0000
  Fe  Fe480     1.0  0.55209  0.25948  0.12278  1.0000
  S   S963      1.0  0.55127  0.26457  0.09196  1.0000
  S   S964      1.0  0.54853  0.27669  0.11233  1.0000
  S   S965      1.0  0.55621  0.25530  0.13945  1.0000
  H   H2890     1.0  0.72049  0.42169  0.14790  1.0000
  H   H2891     1.0  0.72868  0.38447  0.02873  1.0000
  H   H2892     1.0  0.62323  0.25247  0.09048  1.0000
  S   S966      1.0  0.61497  0.26587  0.05604  1.0000
  H   H2893     1.0  0.68580  0.32258  0.07910  1.0000
  H   H2894     1.0  0.83516  0.39712  0.15951  1.0000
  C   C2884     1.0  0.80939  0.39419  0.17541  1.0000
  S   S967      1.0  0.60565  0.25312  0.03655  1.0000
  H   H2895     1.0  0.59375  0.25792  0.99649  1.0000
  H   H2896     1.0  0.60347  0.25721  0.08861  1.0000
  Fe  Fe481     1.0  0.78446  0.38045  0.13103  1.0000
  S   S968      1.0  0.76680  0.38949  0.13565  1.0000
  S   S969      1.0  0.79045  0.38092  0.11260  1.0000
  Fe  Fe482     1.0  0.78806  0.37564  0.15499  1.0000
  S   S970      1.0  0.77008  0.38358  0.16119  1.0000
  S   S971      1.0  0.80056  0.36957  0.16666  1.0000
  Fe  Fe483     1.0  0.76534  0.37523  0.15022  1.0000
  S   S972      1.0  0.74824  0.37084  0.15387  1.0000
  Fe  Fe484     1.0  0.77310  0.39682  0.14598  1.0000
  S   S973      1.0  0.76859  0.41475  0.14661  1.0000
  S   S974      1.0  0.78308  0.36573  0.14538  1.0000
  S   S975      1.0  0.79107  0.38931  0.13998  1.0000
  Fe  Fe485     1.0  0.71430  0.34692  0.12494  1.0000
  S   S976      1.0  0.69632  0.35271  0.13337  1.0000
  S   S977      1.0  0.73099  0.34271  0.13027  1.0000
  Fe  Fe486     1.0  0.70761  0.34918  0.10322  1.0000
  S   S978      1.0  0.68959  0.35619  0.10952  1.0000
  S   S979      1.0  0.71218  0.34583  0.08622  1.0000
  Fe  Fe487     1.0  0.69603  0.36602  0.11767  1.0000
  S   S980      1.0  0.69048  0.38479  0.11548  1.0000
  Fe  Fe488     1.0  0.69149  0.34218  0.12427  1.0000
  S   S981      1.0  0.67993  0.32953  0.12988  1.0000
  S   S982      1.0  0.71391  0.36037  0.10959  1.0000
  S   S983      1.0  0.70963  0.33507  0.11765  1.0000
  Fe  Fe489     1.0  0.62345  0.28908  0.11150  1.0000
  S   S984      1.0  0.63161  0.27127  0.11165  1.0000
  S   S985      1.0  0.60450  0.29293  0.11583  1.0000
  Fe  Fe490     1.0  0.64593  0.29637  0.10687  1.0000
  S   S986      1.0  0.65563  0.27886  0.10619  1.0000
  S   S987      1.0  0.65456  0.31116  0.10361  1.0000
  Fe  Fe491     1.0  0.64362  0.27790  0.09658  1.0000
  S   S988      1.0  0.64899  0.26734  0.08364  1.0000
  Fe  Fe492     1.0  0.64267  0.27367  0.12120  1.0000
  S   S989      1.0  0.64788  0.26122  0.13598  1.0000
  S   S990      1.0  0.63486  0.29588  0.09576  1.0000
  S   S991      1.0  0.63355  0.29110  0.12249  1.0000
  Fe  Fe493     1.0  0.76130  0.38420  0.04388  1.0000
  S   S992      1.0  0.74876  0.40042  0.04241  1.0000
  S   S993      1.0  0.76930  0.37865  0.02754  1.0000
  Fe  Fe494     1.0  0.75717  0.38090  0.06937  1.0000
  S   S994      1.0  0.74375  0.39642  0.06956  1.0000
  S   S995      1.0  0.75909  0.37134  0.08675  1.0000
  Fe  Fe495     1.0  0.73822  0.39130  0.05701  1.0000
  S   S996      1.0  0.72073  0.39179  0.05648  1.0000
  Fe  Fe496     1.0  0.75573  0.40393  0.05498  1.0000
  S   S997      1.0  0.75800  0.42052  0.05541  1.0000
  S   S998      1.0  0.75036  0.37487  0.05810  1.0000
  S   S999      1.0  0.76956  0.38863  0.05523  1.0000
  Fe  Fe497     1.0  0.73616  0.44318  0.10630  1.0000
  S   S1000     1.0  0.72621  0.44153  0.12379  1.0000
  S   S1001     1.0  0.75413  0.44395  0.10293  1.0000
  Fe  Fe498     1.0  0.71635  0.44479  0.09695  1.0000
  S   S1002     1.0  0.70448  0.44384  0.11357  1.0000
  S   S1003     1.0  0.71203  0.44402  0.08145  1.0000
  Fe  Fe499     1.0  0.71358  0.45549  0.11636  1.0000
  S   S1004     1.0  0.70590  0.47168  0.12231  1.0000
  Fe  Fe500     1.0  0.71828  0.43002  0.11934  1.0000
  S   S1005     1.0  0.71718  0.41256  0.12935  1.0000
  S   S1006     1.0  0.72405  0.45765  0.09903  1.0000
  S   S1007     1.0  0.72963  0.43045  0.10258  1.0000
  C   C2885     1.0  0.73546  0.39167  0.00747  1.0000
  H   H2897     1.0  0.74858  0.34694  0.07610  1.0000
  S   S1008     1.0  0.74496  0.35927  0.00183  1.0000
  C   C2886     1.0  0.75177  0.36472  0.00889  1.0000
  C   C2887     1.0  0.76074  0.36987  0.00327  1.0000
  C   C2888     1.0  0.76614  0.37387  0.00913  1.0000
  C   C2889     1.0  0.76247  0.37305  0.02064  1.0000
  C   C2890     1.0  0.75348  0.36792  0.02627  1.0000
  C   C2891     1.0  0.74822  0.36370  0.02043  1.0000
  H   H2898     1.0  0.76369  0.37060  0.99443  1.0000
  H   H2899     1.0  0.77315  0.37772  0.00470  1.0000
  H   H2900     1.0  0.75066  0.36706  0.03515  1.0000
  H   H2901     1.0  0.74136  0.35965  0.02490  1.0000
  C   C2892     1.0  0.74510  0.42824  0.06129  1.0000
  C   C2893     1.0  0.73504  0.42642  0.06043  1.0000
  C   C2894     1.0  0.72478  0.43196  0.06597  1.0000
  C   C2895     1.0  0.72463  0.43881  0.07286  1.0000
  C   C2896     1.0  0.73468  0.44081  0.07351  1.0000
  C   C2897     1.0  0.74487  0.43576  0.06749  1.0000
  H   H2902     1.0  0.73516  0.42079  0.05546  1.0000
  H   H2903     1.0  0.71701  0.43070  0.06517  1.0000
  H   H2904     1.0  0.73459  0.44627  0.07864  1.0000
  H   H2905     1.0  0.75259  0.43744  0.06789  1.0000
  H   H2906     1.0  0.69707  0.33290  0.08408  1.0000
  Fe  Fe501     1.0  0.61931  0.23990  0.02962  1.0000
  H   H2907     1.0  0.73771  0.39288  0.98990  1.0000
  C   C2898     1.0  0.71281  0.47797  0.12843  1.0000
  C   C2899     1.0  0.75146  0.47733  0.12057  1.0000
  C   C2900     1.0  0.81896  0.39343  0.14434  1.0000
  C   C2901     1.0  0.65986  0.24615  0.10596  1.0000
  H   H2908     1.0  0.59194  0.24954  0.13352  1.0000
  C   C2902     1.0  0.74844  0.39834  0.01278  1.0000
  C   C2903     1.0  0.64049  0.25053  0.14241  1.0000
  H   H2909     1.0  0.74552  0.42681  0.15402  1.0000
  C   C2904     1.0  0.72620  0.47699  0.13923  1.0000
  Fe  Fe502     1.0  0.61563  0.25102  0.04930  1.0000
  C   C2905     1.0  0.69487  0.32537  0.08965  1.0000
  H   H2910     1.0  0.61585  0.24758  0.99021  1.0000
  C   C2906     1.0  0.67233  0.32495  0.12265  1.0000
  C   C2907     1.0  0.66806  0.31525  0.12768  1.0000
  C   C2908     1.0  0.66247  0.31100  0.12213  1.0000
  C   C2909     1.0  0.66089  0.31647  0.11145  1.0000
  C   C2910     1.0  0.66488  0.32634  0.10654  1.0000
  C   C2911     1.0  0.67064  0.33049  0.11201  1.0000
  H   H2911     1.0  0.66919  0.31090  0.13593  1.0000
  H   H2912     1.0  0.65945  0.30344  0.12613  1.0000
  H   H2913     1.0  0.66371  0.33074  0.09832  1.0000
  H   H2914     1.0  0.67374  0.33799  0.10800  1.0000
  C   C2912     1.0  0.71495  0.35825  0.07744  1.0000
  C   C2913     1.0  0.70976  0.36316  0.06845  1.0000
  C   C2914     1.0  0.71136  0.37361  0.06202  1.0000
  C   C2915     1.0  0.71839  0.37891  0.06443  1.0000
  C   C2916     1.0  0.72371  0.37387  0.07329  1.0000
  C   C2917     1.0  0.72184  0.36365  0.07989  1.0000
  H   H2915     1.0  0.70432  0.35903  0.06664  1.0000
  H   H2916     1.0  0.70728  0.37752  0.05514  1.0000
  H   H2917     1.0  0.72916  0.37793  0.07517  1.0000
  H   H2918     1.0  0.72581  0.35993  0.08684  1.0000
  C   C2918     1.0  0.69817  0.39227  0.11930  1.0000
  C   C2919     1.0  0.69644  0.40386  0.11552  1.0000
  C   C2920     1.0  0.70242  0.41009  0.11830  1.0000
  C   C2921     1.0  0.70981  0.40486  0.12539  1.0000
  C   C2922     1.0  0.71134  0.39328  0.12943  1.0000
  C   C2923     1.0  0.70577  0.38698  0.12619  1.0000
  H   H2919     1.0  0.69030  0.40808  0.11059  1.0000
  H   H2920     1.0  0.70102  0.41900  0.11526  1.0000
  H   H2921     1.0  0.71681  0.38914  0.13512  1.0000
  H   H2922     1.0  0.70707  0.37808  0.12931  1.0000
  C   C2924     1.0  0.80577  0.37707  0.17345  1.0000
  H   H2923     1.0  0.74500  0.38912  0.16662  1.0000
  C   C2925     1.0  0.58777  0.23893  0.00273  1.0000
  H   H2924     1.0  0.75049  0.33834  0.99347  1.0000
  H   H2925     1.0  0.82237  0.40796  0.14704  1.0000
  C   C2926     1.0  0.74090  0.47303  0.10990  1.0000
  C   C2927     1.0  0.76495  0.42258  0.13422  1.0000
  C   C2928     1.0  0.75737  0.41965  0.13003  1.0000
  C   C2929     1.0  0.75414  0.42619  0.12030  1.0000
  C   C2930     1.0  0.75876  0.43544  0.11461  1.0000
  C   C2931     1.0  0.76665  0.43814  0.11856  1.0000
  C   C2932     1.0  0.76958  0.43182  0.12851  1.0000
  H   H2926     1.0  0.75371  0.41256  0.13449  1.0000
  H   H2927     1.0  0.74806  0.42409  0.11721  1.0000
  H   H2928     1.0  0.77024  0.44528  0.11412  1.0000
  H   H2929     1.0  0.77548  0.43404  0.13176  1.0000
  C   C2933     1.0  0.78175  0.37810  0.10550  1.0000
  C   C2934     1.0  0.77285  0.37289  0.11123  1.0000
  C   C2935     1.0  0.76599  0.37088  0.10537  1.0000
  C   C2936     1.0  0.76771  0.37439  0.09378  1.0000
  C   C2937     1.0  0.77646  0.37982  0.08807  1.0000
  C   C2938     1.0  0.78353  0.38153  0.09390  1.0000
  H   H2930     1.0  0.77139  0.37018  0.12016  1.0000
  H   H2931     1.0  0.75940  0.36649  0.10984  1.0000
  H   H2932     1.0  0.77794  0.38249  0.07914  1.0000
  H   H2933     1.0  0.79036  0.38562  0.08940  1.0000
  C   C2939     1.0  0.74371  0.36356  0.14650  1.0000
  C   C2940     1.0  0.73218  0.36515  0.14710  1.0000
  C   C2941     1.0  0.72817  0.35913  0.14186  1.0000
  C   C2942     1.0  0.73565  0.35120  0.13621  1.0000
  C   C2943     1.0  0.74720  0.34972  0.13548  1.0000
  C   C2944     1.0  0.75122  0.35599  0.14044  1.0000
  H   H2934     1.0  0.72627  0.37095  0.15178  1.0000
  H   H2935     1.0  0.71927  0.36035  0.14254  1.0000
  H   H2936     1.0  0.75307  0.34357  0.13123  1.0000
  S   S1009     1.0  0.53965  0.25350  0.11775  1.0000
  C   C2945     1.0  0.62429  0.26575  0.06412  1.0000
  C   C2946     1.0  0.63391  0.25736  0.06500  1.0000
  C   C2947     1.0  0.64143  0.25793  0.07100  1.0000
  C   C2948     1.0  0.63922  0.26670  0.07643  1.0000
  C   C2949     1.0  0.62942  0.27489  0.07584  1.0000
  C   C2950     1.0  0.62209  0.27450  0.06956  1.0000
  H   H2937     1.0  0.63575  0.25063  0.06076  1.0000
  H   H2938     1.0  0.64904  0.25161  0.07129  1.0000
  H   H2939     1.0  0.62769  0.28174  0.07988  1.0000
  H   H2940     1.0  0.61479  0.28112  0.06875  1.0000
  H   H2941     1.0  0.75209  0.33584  0.11519  1.0000
  H   H2942     1.0  0.73767  0.43094  0.14342  1.0000
  H   H2943     1.0  0.63424  0.25106  0.12827  1.0000
  C   C2951     1.0  0.58490  0.28157  0.09734  1.0000
  C   C2952     1.0  0.58015  0.28336  0.10806  1.0000
  C   C2953     1.0  0.58624  0.28685  0.11365  1.0000
  C   C2954     1.0  0.59724  0.28817  0.10874  1.0000
  C   C2955     1.0  0.60208  0.28611  0.09813  1.0000
  C   C2956     1.0  0.59585  0.28302  0.09239  1.0000
  H   H2944     1.0  0.57173  0.28225  0.11199  1.0000
  H   H2945     1.0  0.58241  0.28846  0.12185  1.0000
  H   H2946     1.0  0.61054  0.28712  0.09424  1.0000
  H   H2947     1.0  0.59958  0.28156  0.08414  1.0000
  C   C2957     1.0  0.51356  0.27230  0.09604  1.0000
  C   C2958     1.0  0.51986  0.26414  0.09011  1.0000
  H   H2948     1.0  0.66532  0.25310  0.11662  1.0000
  C   C2959     1.0  0.50300  0.26258  0.08551  1.0000
  C   C2960     1.0  0.72121  0.47174  0.13413  1.0000
  H   H2949     1.0  0.59934  0.25616  0.00834  1.0000
  H   H2950     1.0  0.52876  0.26141  0.08970  1.0000
  C   C2961     1.0  0.68860  0.31956  0.08684  1.0000
  S   S1010     1.0  0.62276  0.24259  0.01082  1.0000
  C   C2962     1.0  0.83145  0.39277  0.15577  1.0000
  H   H2951     1.0  0.74921  0.40784  0.16213  1.0000
  C   C2963     1.0  0.50198  0.25083  0.11548  1.0000
  H   H2952     1.0  0.61190  0.25089  0.12547  1.0000
  C   C2964     1.0  0.51334  0.24837  0.11568  1.0000
  H   H2953     1.0  0.51954  0.25299  0.08035  1.0000
  C   C2965     1.0  0.74111  0.33978  0.09284  1.0000
  H   H2954     1.0  0.73388  0.33872  0.09064  1.0000
  C   C2966     1.0  0.74347  0.33422  0.99831  1.0000
  N   N242      1.0  0.69515  0.31223  0.10704  1.0000
  C   C2967     1.0  0.69813  0.32153  0.09981  1.0000
  C   C2968     1.0  0.68914  0.30640  0.10429  1.0000
  C   C2969     1.0  0.68575  0.30998  0.09417  1.0000
  C   C2970     1.0  0.69874  0.30820  0.11761  1.0000
  H   H2955     1.0  0.70289  0.32619  0.10194  1.0000
  H   H2956     1.0  0.68659  0.29914  0.11008  1.0000
  H   H2957     1.0  0.68056  0.30560  0.09225  1.0000
  H   H2958     1.0  0.69207  0.30488  0.12430  1.0000
  H   H2959     1.0  0.70650  0.30164  0.11683  1.0000
  H   H2960     1.0  0.70028  0.31506  0.12035  1.0000
  C   C2971     1.0  0.59114  0.23845  0.02016  1.0000
  C   C2972     1.0  0.74209  0.33675  0.10387  1.0000
  H   H2961     1.0  0.73561  0.33337  0.11033  1.0000
  C   C2973     1.0  0.81275  0.37112  0.18093  1.0000
  N   N243      1.0  0.49816  0.24573  0.10962  1.0000
  C   C2974     1.0  0.74188  0.40689  0.16001  1.0000
  N   N244      1.0  0.56561  0.27029  0.05939  1.0000
  C   C2975     1.0  0.57663  0.26741  0.05428  1.0000
  C   C2976     1.0  0.56218  0.27848  0.06530  1.0000
  C   C2977     1.0  0.58456  0.27261  0.05524  1.0000
  C   C2978     1.0  0.56988  0.28393  0.06631  1.0000
  C   C2979     1.0  0.58117  0.28083  0.06139  1.0000
  C   C2980     1.0  0.55749  0.26421  0.05910  1.0000
  H   H2962     1.0  0.57940  0.26090  0.04963  1.0000
  H   H2963     1.0  0.55349  0.28068  0.06948  1.0000
  H   H2964     1.0  0.59333  0.27014  0.05143  1.0000
  H   H2965     1.0  0.56720  0.29017  0.07131  1.0000
  C   C2981     1.0  0.56354  0.24144  0.14121  1.0000
  H   H2966     1.0  0.54968  0.27006  0.05720  1.0000
  H   H2967     1.0  0.56084  0.25907  0.05272  1.0000
  H   H2968     1.0  0.55541  0.25854  0.06729  1.0000
  C   C2982     1.0  0.60541  0.25543  0.09673  1.0000
  H   H2969     1.0  0.75330  0.46092  0.11796  1.0000
  H   H2970     1.0  0.58883  0.26431  0.12769  1.0000
  H   H2971     1.0  0.75168  0.39970  0.01916  1.0000
  C   C2983     1.0  0.63466  0.24694  0.13671  1.0000
  H   H2972     1.0  0.58442  0.26119  0.00915  1.0000
  C   C2984     1.0  0.75396  0.40116  0.00171  1.0000
  C   C2985     1.0  0.64126  0.24492  0.15325  1.0000
  C   C2986     1.0  0.61650  0.25287  0.09777  1.0000
  C   C2987     1.0  0.72586  0.41461  0.15213  1.0000
  H   H2973     1.0  0.72366  0.46284  0.13483  1.0000
  H   H2974     1.0  0.81673  0.37747  0.14390  1.0000
  H   H2975     1.0  0.72638  0.35178  0.99951  1.0000
  H   H2976     1.0  0.73067  0.43233  0.15743  1.0000
  C   C2988     1.0  0.73734  0.42703  0.15233  1.0000
  H   H2977     1.0  0.81301  0.39811  0.13920  1.0000
  C   C2989     1.0  0.51461  0.25938  0.08482  1.0000
  H   H2978     1.0  0.58822  0.25840  0.10525  1.0000
  N   N245      1.0  0.59915  0.25445  0.11636  1.0000
  C   C2990     1.0  0.59004  0.25593  0.12607  1.0000
  H   H2979     1.0  0.57543  0.24391  0.14895  1.0000
  H   H2980     1.0  0.73905  0.46693  0.10664  1.0000
  C   C2991     1.0  0.82838  0.37593  0.15396  1.0000
  N   N246      1.0  0.75955  0.34264  0.09852  1.0000
  C   C2992     1.0  0.75869  0.34557  0.08766  1.0000
  C   C2993     1.0  0.76949  0.34365  0.10153  1.0000
  H   H2981     1.0  0.76508  0.34917  0.08126  1.0000
  H   H2982     1.0  0.77561  0.33557  0.10216  1.0000
  H   H2983     1.0  0.77359  0.35008  0.09528  1.0000
  H   H2984     1.0  0.76719  0.34625  0.10958  1.0000
  N   N247      1.0  0.77348  0.41280  0.10150  1.0000
  C   C2994     1.0  0.77301  0.42186  0.09289  1.0000
  C   C2995     1.0  0.76789  0.40472  0.10254  1.0000
  C   C2996     1.0  0.76692  0.42292  0.08496  1.0000
  C   C2997     1.0  0.76186  0.40544  0.09467  1.0000
  C   C2998     1.0  0.76140  0.41460  0.08581  1.0000
  C   C2999     1.0  0.78071  0.41126  0.10918  1.0000
  H   H2985     1.0  0.77729  0.42837  0.09212  1.0000
  H   H2986     1.0  0.76831  0.39755  0.10936  1.0000
  H   H2987     1.0  0.76659  0.43012  0.07815  1.0000
  H   H2988     1.0  0.75784  0.39878  0.09524  1.0000
  H   H2989     1.0  0.75689  0.41521  0.07955  1.0000
  H   H2990     1.0  0.78192  0.41933  0.10976  1.0000
  H   H2991     1.0  0.77700  0.40712  0.11767  1.0000
  H   H2992     1.0  0.78899  0.40595  0.10636  1.0000
  N   N248      1.0  0.69693  0.39752  0.08684  1.0000
  C   C3000     1.0  0.68771  0.40536  0.09009  1.0000
  C   C3001     1.0  0.70714  0.40028  0.08247  1.0000
  C   C3002     1.0  0.68863  0.41626  0.08908  1.0000
  C   C3003     1.0  0.70840  0.41102  0.08153  1.0000
  C   C3004     1.0  0.69908  0.41906  0.08486  1.0000
  C   C3005     1.0  0.69587  0.38622  0.08756  1.0000
  H   H2993     1.0  0.67964  0.40315  0.09369  1.0000
  H   H2994     1.0  0.71437  0.39419  0.07962  1.0000
  H   H2995     1.0  0.68136  0.42244  0.09179  1.0000
  H   H2996     1.0  0.71655  0.41311  0.07815  1.0000
  H   H2997     1.0  0.69994  0.42745  0.08417  1.0000
  H   H2998     1.0  0.69612  0.38510  0.07923  1.0000
  H   H2999     1.0  0.70278  0.38001  0.09096  1.0000
  H   H3000     1.0  0.68796  0.38437  0.09327  1.0000
  N   N249      1.0  0.60996  0.31982  0.10447  1.0000
  C   C3006     1.0  0.60878  0.31736  0.11574  1.0000
  C   C3007     1.0  0.61926  0.32331  0.09767  1.0000
  C   C3008     1.0  0.61703  0.31839  0.12046  1.0000
  C   C3009     1.0  0.62764  0.32450  0.10211  1.0000
  C   C3010     1.0  0.62653  0.32197  0.11358  1.0000
  C   C3011     1.0  0.60151  0.31835  0.09951  1.0000
  H   H3001     1.0  0.60157  0.31427  0.12115  1.0000
  H   H3002     1.0  0.62035  0.32500  0.08874  1.0000
  H   H3003     1.0  0.61621  0.31614  0.12938  1.0000
  H   H3004     1.0  0.63513  0.32706  0.09671  1.0000
  H   H3005     1.0  0.63315  0.32255  0.11709  1.0000
  H   H3006     1.0  0.60503  0.31125  0.09528  1.0000
  H   H3007     1.0  0.59397  0.31639  0.10587  1.0000
  H   H3008     1.0  0.59878  0.32600  0.09345  1.0000
  N   N250      1.0  0.83334  0.38141  0.15840  1.0000
  H   H3009     1.0  0.72832  0.38784  0.00962  1.0000
  C   C3012     1.0  0.73955  0.39629  0.16261  1.0000
  C   C3013     1.0  0.72628  0.34699  0.99376  1.0000
  C   C3014     1.0  0.80392  0.38870  0.17095  1.0000
  N   N251      1.0  0.73937  0.39357  0.01555  1.0000
  H   H3010     1.0  0.66115  0.25301  0.09895  1.0000
  C   C3015     1.0  0.84099  0.37507  0.16574  1.0000
  H   H3011     1.0  0.58731  0.28462  0.06255  1.0000
  H   H3012     1.0  0.72199  0.48065  0.10297  1.0000
  H   H3013     1.0  0.75756  0.47475  0.12575  1.0000
  N   N252      1.0  0.73506  0.41588  0.15482  1.0000
  H   H3014     1.0  0.72783  0.39852  0.02971  1.0000
  H   H3015     1.0  0.76131  0.40468  0.99960  1.0000
  C   C3016     1.0  0.73356  0.39093  0.02720  1.0000
  N   N253      1.0  0.73849  0.38917  0.11762  1.0000
  C   C3017     1.0  0.73794  0.37896  0.11671  1.0000
  C   C3018     1.0  0.73526  0.39846  0.10995  1.0000
  C   C3019     1.0  0.73445  0.37779  0.10777  1.0000
  C   C3020     1.0  0.73162  0.39764  0.10093  1.0000
  C   C3021     1.0  0.73130  0.38719  0.09982  1.0000
  C   C3022     1.0  0.74218  0.39009  0.12711  1.0000
  H   H3016     1.0  0.74037  0.37163  0.12285  1.0000
  H   H3017     1.0  0.73532  0.40659  0.11088  1.0000
  H   H3018     1.0  0.73430  0.36961  0.10699  1.0000
  H   H3019     1.0  0.72902  0.40506  0.09491  1.0000
  H   H3020     1.0  0.72864  0.38635  0.09283  1.0000
  H   H3021     1.0  0.74952  0.38330  0.12877  1.0000
  H   H3022     1.0  0.74458  0.39816  0.12571  1.0000
  H   H3023     1.0  0.73535  0.38942  0.13464  1.0000
  C   C3023     1.0  0.73017  0.39493  0.15994  1.0000
  H   H3024     1.0  0.62743  0.24905  0.10910  1.0000
  H   H3025     1.0  0.51634  0.25279  0.11998  1.0000
  C   C3024     1.0  0.75006  0.39920  0.99343  1.0000
  H   H3026     1.0  0.73252  0.47207  0.14381  1.0000
  C   C3025     1.0  0.72325  0.40413  0.15470  1.0000
  H   H3027     1.0  0.65908  0.24129  0.08748  1.0000
  C   C3026     1.0  0.75143  0.33821  0.10657  1.0000
  C   C3027     1.0  0.74940  0.34431  0.08467  1.0000
  H   H3028     1.0  0.84081  0.37981  0.17190  1.0000
  C   C3028     1.0  0.59680  0.25614  0.10618  1.0000
  H   H3029     1.0  0.72833  0.38673  0.16186  1.0000
  H   H3030     1.0  0.73965  0.38755  0.03268  1.0000
  C   C3029     1.0  0.66235  0.24621  0.11589  1.0000
  H   H3031     1.0  0.74661  0.32507  0.99990  1.0000
  H   H3032     1.0  0.82962  0.36694  0.15625  1.0000
  H   H3033     1.0  0.57263  0.24419  0.08729  1.0000
  H   H3034     1.0  0.76011  0.35462  0.13996  1.0000
  C   C3030     1.0  0.74075  0.39445  0.99630  1.0000
  N   N254      1.0  0.73522  0.48387  0.10800  1.0000
  C   C3031     1.0  0.50199  0.27574  0.09648  1.0000
  H   H3035     1.0  0.79855  0.39348  0.16529  1.0000
  H   H3036     1.0  0.80814  0.40315  0.17306  1.0000
  C   C3032     1.0  0.59200  0.25539  0.00569  1.0000
  C   C3033     1.0  0.82109  0.38185  0.14692  1.0000
  H   H3037     1.0  0.71596  0.40315  0.15252  1.0000
  C   C3034     1.0  0.61002  0.25200  0.11744  1.0000
  C   C3035     1.0  0.61571  0.23895  0.99399  1.0000
  H   H3038     1.0  0.84966  0.37316  0.16081  1.0000
  C   C3036     1.0  0.74904  0.46958  0.11627  1.0000
  C   C3037     1.0  0.61884  0.25104  0.10820  1.0000
  H   H3039     1.0  0.74057  0.33664  0.00649  1.0000
  C   C3038     1.0  0.72670  0.48730  0.10132  1.0000
  H   H3040     1.0  0.59308  0.24245  0.02562  1.0000
  H   H3041     1.0  0.64580  0.24761  0.15768  1.0000
  H   H3042     1.0  0.58197  0.25516  0.12486  1.0000
  H   H3043     1.0  0.83845  0.36719  0.17062  1.0000
  H   H3044     1.0  0.74133  0.32490  0.98304  1.0000
  H   H3045     1.0  0.58300  0.24619  0.06778  1.0000
  H   H3046     1.0  0.75427  0.40130  0.98479  1.0000
  H   H3047     1.0  0.64453  0.24346  0.09433  1.0000
  C   C3039     1.0  0.71785  0.35064  0.98771  1.0000
  S   S1011     1.0  0.58083  0.23835  0.04961  1.0000
  C   C3040     1.0  0.57656  0.24142  0.07073  1.0000
  Fe  Fe503     1.0  0.74596  0.36532  0.98325  1.0000
  H   H3048     1.0  0.71154  0.35818  0.98868  1.0000
  S   S1012     1.0  0.63020  0.23913  0.04130  1.0000
  N   N255      1.0  0.59035  0.24395  0.00957  1.0000
  Fe  Fe504     1.0  0.59863  0.23892  0.04789  1.0000
  C   C3041     1.0  0.57067  0.24030  0.08177  1.0000
  C   C3042     1.0  0.73462  0.33201  0.98456  1.0000
  H   H3049     1.0  0.58712  0.24328  0.99433  1.0000
  C   C3043     1.0  0.52081  0.24059  0.10989  1.0000
  H   H3050     1.0  0.52971  0.23881  0.10972  1.0000
  C   C3044     1.0  0.89699  0.31059  0.31875  1.0000
  Fe  Fe505     1.0  0.94335  0.39799  0.22599  1.0000
  S   S1013     1.0  0.94183  0.38634  0.24259  1.0000
  S   S1014     1.0  0.95967  0.40369  0.21764  1.0000
  Fe  Fe506     1.0  0.91852  0.40067  0.22588  1.0000
  S   S1015     1.0  0.91523  0.38973  0.24273  1.0000
  S   S1016     1.0  0.90289  0.40840  0.21904  1.0000
  Fe  Fe507     1.0  0.92587  0.39842  0.24715  1.0000
  S   S1017     1.0  0.92276  0.40383  0.26306  1.0000
  Fe  Fe508     1.0  0.93141  0.37878  0.23648  1.0000
  S   S1018     1.0  0.93370  0.36032  0.23905  1.0000
  S   S1019     1.0  0.92779  0.41055  0.23085  1.0000
  S   S1020     1.0  0.93432  0.38923  0.21920  1.0000
  Fe  Fe509     1.0  0.86216  0.44546  0.27115  1.0000
  S   S1021     1.0  0.87625  0.43945  0.25798  1.0000
  S   S1022     1.0  0.85705  0.43277  0.28644  1.0000
  Fe  Fe510     1.0  0.85995  0.46956  0.25864  1.0000
  S   S1023     1.0  0.87332  0.46516  0.24398  1.0000
  Fe  Fe511     1.0  0.86556  0.45055  0.24628  1.0000
  S   S1024     1.0  0.86606  0.44261  0.23227  1.0000
  Fe  Fe512     1.0  0.88254  0.45442  0.25692  1.0000
  S   S1025     1.0  0.90003  0.45465  0.25684  1.0000
  S   S1026     1.0  0.85102  0.45610  0.25962  1.0000
  S   S1027     1.0  0.86962  0.45928  0.27143  1.0000
  Fe  Fe513     1.0  0.86713  0.36994  0.28400  1.0000
  S   S1028     1.0  0.87105  0.35791  0.27291  1.0000
  S   S1029     1.0  0.86407  0.38697  0.27287  1.0000
  Fe  Fe514     1.0  0.86700  0.35118  0.30482  1.0000
  S   S1030     1.0  0.87025  0.33819  0.29509  1.0000
  S   S1031     1.0  0.86529  0.34584  0.32350  1.0000
  Fe  Fe515     1.0  0.88296  0.34735  0.28342  1.0000
  S   S1032     1.0  0.89913  0.33642  0.27704  1.0000
  Fe  Fe516     1.0  0.85799  0.35012  0.28564  1.0000
  S   S1033     1.0  0.84464  0.34421  0.28208  1.0000
  S   S1034     1.0  0.88050  0.35995  0.29348  1.0000
  S   S1035     1.0  0.85337  0.36251  0.29634  1.0000
  Fe  Fe517     1.0  0.85768  0.38737  0.20655  1.0000
  S   S1036     1.0  0.85018  0.38707  0.22454  1.0000
  S   S1037     1.0  0.87660  0.38433  0.20092  1.0000
  Fe  Fe518     1.0  0.83468  0.39200  0.20017  1.0000
  S   S1038     1.0  0.82570  0.39267  0.21783  1.0000
  H   H3051     1.0  0.85054  0.45096  0.19849  1.0000
  Fe  Fe519     1.0  0.83801  0.40226  0.21823  1.0000
  S   S1039     1.0  0.83265  0.41661  0.22714  1.0000
  Fe  Fe520     1.0  0.83880  0.37757  0.22249  1.0000
  S   S1040     1.0  0.83328  0.36276  0.23465  1.0000
  S   S1041     1.0  0.84599  0.40310  0.20016  1.0000
  S   S1042     1.0  0.84732  0.37636  0.20493  1.0000
  H   H3052     1.0  0.95349  0.36599  0.22252  1.0000
  N   N256      1.0  0.83975  0.48095  0.28825  1.0000
  H   H3053     1.0  0.88999  0.42879  0.20210  1.0000
  H   H3054     1.0  0.84103  0.45542  0.28447  1.0000
  N   N257      1.0  0.89512  0.32167  0.31863  1.0000
  Fe  Fe521     1.0  0.87216  0.26406  0.38127  1.0000
  H   H3055     1.0  0.85339  0.44868  0.21208  1.0000
  Fe  Fe522     1.0  0.86970  0.28725  0.36596  1.0000
  S   S1043     1.0  0.86865  0.29502  0.34801  1.0000
  C   C3045     1.0  0.81807  0.37662  0.18554  1.0000
  S   S1044     1.0  0.88437  0.27302  0.36838  1.0000
  H   H3056     1.0  0.97946  0.38394  0.21552  1.0000
  H   H3057     1.0  0.85486  0.46437  0.30692  1.0000
  C   C3046     1.0  0.86598  0.33173  0.33040  1.0000
  C   C3047     1.0  0.86453  0.32874  0.34200  1.0000
  C   C3048     1.0  0.86527  0.31752  0.34763  1.0000
  C   C3049     1.0  0.86742  0.30924  0.34165  1.0000
  C   C3050     1.0  0.86878  0.31226  0.33011  1.0000
  C   C3051     1.0  0.86808  0.32341  0.32453  1.0000
  H   H3058     1.0  0.86290  0.33511  0.34666  1.0000
  H   H3059     1.0  0.86418  0.31527  0.35656  1.0000
  H   H3060     1.0  0.87045  0.30591  0.32543  1.0000
  H   H3061     1.0  0.86921  0.32547  0.31568  1.0000
  C   C3052     1.0  0.84238  0.34915  0.26851  1.0000
  C   C3053     1.0  0.84757  0.35738  0.26087  1.0000
  C   C3054     1.0  0.84505  0.36155  0.25029  1.0000
  C   C3055     1.0  0.83736  0.35744  0.24739  1.0000
  C   C3056     1.0  0.83237  0.34910  0.25497  1.0000
  C   C3057     1.0  0.83483  0.34501  0.26550  1.0000
  H   H3062     1.0  0.85317  0.36085  0.26320  1.0000
  H   H3063     1.0  0.84880  0.36811  0.24453  1.0000
  H   H3064     1.0  0.82643  0.34590  0.25275  1.0000
  H   H3065     1.0  0.83079  0.33866  0.27134  1.0000
  C   C3058     1.0  0.84231  0.46174  0.28790  1.0000
  C   C3059     1.0  0.86103  0.42745  0.19915  1.0000
  C   C3060     1.0  0.84145  0.33475  0.31313  1.0000
  H   H3066     1.0  0.97195  0.36245  0.24710  1.0000
  C   C3061     1.0  0.83809  0.47302  0.28394  1.0000
  N   N258      1.0  0.84015  0.33486  0.32404  1.0000
  H   H3067     1.0  0.87325  0.44330  0.20710  1.0000
  H   H3068     1.0  0.84476  0.44086  0.21004  1.0000
  C   C3062     1.0  0.91151  0.26213  0.37592  1.0000
  H   H3069     1.0  0.98056  0.41089  0.21220  1.0000
  C   C3063     1.0  0.97474  0.37798  0.22118  1.0000
  H   H3070     1.0  0.82357  0.37184  0.19107  1.0000
  C   C3064     1.0  0.85684  0.43407  0.23322  1.0000
  C   C3065     1.0  0.86100  0.42484  0.22825  1.0000
  C   C3066     1.0  0.85371  0.41916  0.22669  1.0000
  C   C3067     1.0  0.84214  0.42272  0.23004  1.0000
  C   C3068     1.0  0.83799  0.43160  0.23553  1.0000
  C   C3069     1.0  0.84530  0.43724  0.23715  1.0000
  H   H3071     1.0  0.86989  0.42243  0.22512  1.0000
  H   H3072     1.0  0.85700  0.41233  0.22249  1.0000
  H   H3073     1.0  0.82904  0.43438  0.23821  1.0000
  H   H3074     1.0  0.84196  0.44442  0.24088  1.0000
  C   C3070     1.0  0.85889  0.41993  0.28292  1.0000
  C   C3071     1.0  0.85917  0.41962  0.27206  1.0000
  C   C3072     1.0  0.86074  0.40943  0.26917  1.0000
  C   C3073     1.0  0.86211  0.39945  0.27708  1.0000
  C   C3074     1.0  0.86185  0.39969  0.28797  1.0000
  C   C3075     1.0  0.86017  0.40995  0.29090  1.0000
  H   H3075     1.0  0.85794  0.42726  0.26590  1.0000
  H   H3076     1.0  0.86087  0.40932  0.26075  1.0000
  H   H3077     1.0  0.86288  0.39202  0.29413  1.0000
  H   H3078     1.0  0.85995  0.41015  0.29932  1.0000
  C   C3076     1.0  0.92405  0.35399  0.24990  1.0000
  C   C3077     1.0  0.91524  0.36015  0.25655  1.0000
  C   C3078     1.0  0.90747  0.35484  0.26491  1.0000
  C   C3079     1.0  0.90868  0.34333  0.26677  1.0000
  C   C3080     1.0  0.91755  0.33717  0.26024  1.0000
  C   C3081     1.0  0.92515  0.34250  0.25178  1.0000
  H   H3079     1.0  0.91445  0.36893  0.25538  1.0000
  H   H3080     1.0  0.90067  0.35960  0.27002  1.0000
  H   H3081     1.0  0.91850  0.32827  0.26167  1.0000
  H   H3082     1.0  0.93194  0.33768  0.24671  1.0000
  C   C3082     1.0  0.89626  0.39983  0.21550  1.0000
  C   C3083     1.0  0.90178  0.39390  0.20716  1.0000
  C   C3084     1.0  0.89573  0.38893  0.20291  1.0000
  C   C3085     1.0  0.88417  0.38983  0.20700  1.0000
  C   C3086     1.0  0.87880  0.39524  0.21573  1.0000
  C   C3087     1.0  0.88481  0.40025  0.21992  1.0000
  H   H3083     1.0  0.91058  0.39365  0.20357  1.0000
  H   H3084     1.0  0.89996  0.38471  0.19618  1.0000
  C   C3088     1.0  0.84557  0.47794  0.29651  1.0000
  H   H3085     1.0  0.88048  0.40474  0.22639  1.0000
  C   C3089     1.0  0.91667  0.41801  0.26119  1.0000
  C   C3090     1.0  0.91789  0.42429  0.26797  1.0000
  C   C3091     1.0  0.91325  0.43573  0.26628  1.0000
  C   C3092     1.0  0.90712  0.44078  0.25802  1.0000
  C   C3093     1.0  0.90588  0.43449  0.25127  1.0000
  C   C3094     1.0  0.91079  0.42314  0.25276  1.0000
  H   H3086     1.0  0.92239  0.42032  0.27454  1.0000
  H   H3087     1.0  0.91405  0.44057  0.27161  1.0000
  H   H3088     1.0  0.90110  0.43839  0.24490  1.0000
  H   H3089     1.0  0.90970  0.41830  0.24759  1.0000
  C   C3095     1.0  0.98271  0.40476  0.23920  1.0000
  C   C3096     1.0  0.97279  0.40087  0.24405  1.0000
  C   C3097     1.0  0.96563  0.40072  0.23753  1.0000
  C   C3098     1.0  0.96838  0.40427  0.22602  1.0000
  C   C3099     1.0  0.97835  0.40810  0.22111  1.0000
  C   C3100     1.0  0.98549  0.40840  0.22768  1.0000
  H   H3090     1.0  0.97057  0.39805  0.25295  1.0000
  H   H3091     1.0  0.95798  0.39788  0.24146  1.0000
  H   H3092     1.0  0.91885  0.24809  0.36815  1.0000
  C   C3101     1.0  0.85007  0.46674  0.30053  1.0000
  C   C3102     1.0  0.97048  0.36608  0.23881  1.0000
  H   H3093     1.0  0.89769  0.29397  0.32893  1.0000
  N   N259      1.0  0.83526  0.39176  0.25671  1.0000
  C   C3103     1.0  0.82876  0.39090  0.25021  1.0000
  C   C3104     1.0  0.83538  0.38483  0.26692  1.0000
  C   C3105     1.0  0.82233  0.38280  0.25377  1.0000
  C   C3106     1.0  0.82891  0.37673  0.27081  1.0000
  C   C3107     1.0  0.82239  0.37570  0.26415  1.0000
  C   C3108     1.0  0.84196  0.40029  0.25270  1.0000
  H   H3094     1.0  0.82863  0.39641  0.24213  1.0000
  H   H3095     1.0  0.84060  0.38544  0.27205  1.0000
  H   H3096     1.0  0.81756  0.38185  0.24837  1.0000
  H   H3097     1.0  0.82928  0.37101  0.27875  1.0000
  H   H3098     1.0  0.81770  0.36916  0.26686  1.0000
  H   H3099     1.0  0.84697  0.39988  0.24419  1.0000
  H   H3100     1.0  0.83637  0.40867  0.25248  1.0000
  H   H3101     1.0  0.84789  0.39922  0.25804  1.0000
  C   C3109     1.0  0.83749  0.34548  0.32744  1.0000
  H   H3102     1.0  0.84406  0.30720  0.33499  1.0000
  H   H3103     1.0  0.84497  0.32469  0.30106  1.0000
  H   H3104     1.0  0.84104  0.34460  0.33473  1.0000
  H   H3105     1.0  0.88864  0.47332  0.26997  1.0000
  S   S1045     1.0  0.85320  0.48789  0.25875  1.0000
  N   N260      1.0  0.97660  0.37343  0.23164  1.0000
  C   C3110     1.0  0.84083  0.32513  0.33186  1.0000
  H   H3106     1.0  0.83986  0.32518  0.34050  1.0000
  H   H3107     1.0  0.85285  0.42683  0.19863  1.0000
  S   S1046     1.0  0.87169  0.29518  0.37872  1.0000
  C   C3111     1.0  0.84383  0.32470  0.30976  1.0000
  H   H3108     1.0  0.84072  0.34246  0.30692  1.0000
  H   H3109     1.0  0.84129  0.35182  0.32076  1.0000
  C   C3112     1.0  0.84317  0.31492  0.32879  1.0000
  H   H3110     1.0  0.89848  0.30783  0.31111  1.0000
  H   H3111     1.0  0.86995  0.39587  0.21902  1.0000
  C   C3113     1.0  0.89667  0.30270  0.32876  1.0000
  S   S1047     1.0  0.99094  0.40514  0.24811  1.0000
  C   C3114     1.0  0.88087  0.41981  0.19705  1.0000
  C   C3115     1.0  0.87037  0.41920  0.19618  1.0000
  H   H3112     1.0  0.88816  0.41340  0.19490  1.0000
  H   H3113     1.0  0.81422  0.36214  0.18305  1.0000
  H   H3114     1.0  0.95713  0.35756  0.24135  1.0000
  C   C3116     1.0  0.84838  0.45860  0.29620  1.0000
  C   C3117     1.0  0.98547  0.37606  0.23510  1.0000
  C   C3118     1.0  0.89532  0.32988  0.30811  1.0000
  C   C3119     1.0  0.88581  0.48738  0.25121  1.0000
  H   H3115     1.0  0.88505  0.47913  0.25127  1.0000
  C   C3120     1.0  0.81668  0.38822  0.18258  1.0000
  S   S1048     1.0  0.85721  0.27751  0.37772  1.0000
  N   N261      1.0  0.86212  0.43599  0.20298  1.0000
  H   H3116     1.0  0.86450  0.47961  0.27725  1.0000
  H   H3117     1.0  0.99297  0.36914  0.23473  1.0000
  C   C3121     1.0  0.96639  0.37542  0.21776  1.0000
  C   C3122     1.0  0.89413  0.47941  0.26747  1.0000
  H   H3118     1.0  0.85185  0.44987  0.29918  1.0000
  C   C3123     1.0  0.87241  0.43667  0.20382  1.0000
  H   H3119     1.0  0.96464  0.37942  0.20962  1.0000
  H   H3120     1.0  0.98798  0.38380  0.22973  1.0000
  H   H3121     1.0  0.89113  0.32028  0.34608  1.0000
  C   C3124     1.0  0.88191  0.42851  0.20100  1.0000
  H   H3122     1.0  0.86947  0.41226  0.19340  1.0000
  C   C3125     1.0  0.84473  0.31473  0.31765  1.0000
  C   C3126     1.0  0.96009  0.36797  0.22502  1.0000
  N   N262      1.0  0.95062  0.42505  0.24493  1.0000
  C   C3127     1.0  0.94853  0.41930  0.25570  1.0000
  C   C3128     1.0  0.96017  0.42910  0.24058  1.0000
  C   C3129     1.0  0.95598  0.41775  0.26250  1.0000
  C   C3130     1.0  0.96780  0.42770  0.24715  1.0000
  C   C3131     1.0  0.96567  0.42198  0.25817  1.0000
  C   C3132     1.0  0.94292  0.42642  0.23778  1.0000
  H   H3123     1.0  0.94117  0.41572  0.25904  1.0000
  H   H3124     1.0  0.96207  0.43322  0.23192  1.0000
  H   H3125     1.0  0.95437  0.41308  0.27098  1.0000
  H   H3126     1.0  0.97556  0.43058  0.24362  1.0000
  H   H3127     1.0  0.97176  0.42049  0.26320  1.0000
  H   H3128     1.0  0.94137  0.43508  0.23285  1.0000
  H   H3129     1.0  0.94655  0.42062  0.23203  1.0000
  H   H3130     1.0  0.93465  0.42473  0.24268  1.0000
  N   N263      1.0  0.89290  0.36116  0.23310  1.0000
  C   C3133     1.0  0.88328  0.36320  0.22938  1.0000
  C   C3134     1.0  0.89428  0.35360  0.24274  1.0000
  C   C3135     1.0  0.87475  0.35752  0.23532  1.0000
  C   C3136     1.0  0.88594  0.34777  0.24889  1.0000
  C   C3137     1.0  0.87610  0.34978  0.24515  1.0000
  C   C3138     1.0  0.90155  0.36749  0.22693  1.0000
  H   H3131     1.0  0.88215  0.36920  0.22175  1.0000
  H   H3132     1.0  0.90188  0.35199  0.24571  1.0000
  H   H3133     1.0  0.86716  0.35911  0.23230  1.0000
  H   H3134     1.0  0.88709  0.34179  0.25655  1.0000
  H   H3135     1.0  0.86953  0.34535  0.24986  1.0000
  H   H3136     1.0  0.90971  0.36359  0.22943  1.0000
  H   H3137     1.0  0.90302  0.36794  0.21789  1.0000
  H   H3138     1.0  0.89887  0.37607  0.22841  1.0000
  H   H3139     1.0  0.82828  0.34854  0.32956  1.0000
  H   H3140     1.0  0.83359  0.47541  0.27730  1.0000
  H   H3141     1.0  0.89355  0.32668  0.30168  1.0000
  C   C3139     1.0  0.96214  0.36323  0.23561  1.0000
  H   H3142     1.0  0.84667  0.30686  0.31514  1.0000
  C   C3140     1.0  0.85223  0.44457  0.20599  1.0000
  H   H3143     1.0  0.90643  0.26639  0.36993  1.0000
  H   H3144     1.0  0.89166  0.33394  0.32818  1.0000
  N   N264      1.0  0.88736  0.40766  0.25363  1.0000
  C   C3141     1.0  0.89021  0.40911  0.26258  1.0000
  C   C3142     1.0  0.88709  0.39728  0.25291  1.0000
  C   C3143     1.0  0.89342  0.39999  0.27082  1.0000
  C   C3144     1.0  0.89019  0.38797  0.26105  1.0000
  C   C3145     1.0  0.89341  0.38935  0.27003  1.0000
  C   C3146     1.0  0.88406  0.41733  0.24506  1.0000
  H   H3145     1.0  0.89011  0.41734  0.26337  1.0000
  H   H3146     1.0  0.88448  0.39616  0.24601  1.0000
  H   H3147     1.0  0.89593  0.40121  0.27775  1.0000
  H   H3148     1.0  0.88985  0.37977  0.26052  1.0000
  H   H3149     1.0  0.89578  0.38222  0.27643  1.0000
  H   H3150     1.0  0.88530  0.41503  0.23703  1.0000
  H   H3151     1.0  0.87510  0.42128  0.24766  1.0000
  H   H3152     1.0  0.88924  0.42355  0.24345  1.0000
  C   C3147     1.0  0.89461  0.30619  0.33865  1.0000
  H   H3153     1.0  0.88880  0.33754  0.30921  1.0000
  H   H3154     1.0  0.89395  0.30019  0.34651  1.0000
  H   H3155     1.0  0.89408  0.48196  0.27509  1.0000
  H   H3156     1.0  0.84693  0.48423  0.29990  1.0000
  C   C3148     1.0  0.89300  0.31747  0.33841  1.0000
  H   H3157     1.0  0.90365  0.33208  0.30492  1.0000
  C   C3149     1.0  0.89330  0.32514  0.32826  1.0000
  H   H3158     1.0  0.98256  0.37750  0.24369  1.0000
  H   H3159     1.0  0.99310  0.41144  0.22385  1.0000
  H   H3160     1.0  0.90275  0.47513  0.26402  1.0000
  S   S1049     1.0  0.82495  0.39551  0.18625  1.0000
  C   C3150     1.0  0.91868  0.25182  0.37481  1.0000
  Fe  Fe523     1.0  0.88534  0.28010  0.38207  1.0000
  H   H3161     1.0  0.85624  0.29290  0.42968  1.0000
  S   S1050     1.0  0.88565  0.27102  0.55308  1.0000
  H   H3162     1.0  0.90333  0.28524  0.40714  1.0000
  C   C3151     1.0  0.89252  0.24748  0.42010  1.0000
  S   S1051     1.0  0.87232  0.25139  0.55748  1.0000
  Fe  Fe524     1.0  0.88015  0.26276  0.54256  1.0000
  S   S1052     1.0  0.87140  0.27084  0.52820  1.0000
  Fe  Fe525     1.0  0.87962  0.25812  0.56774  1.0000
  H   H3163     1.0  0.85903  0.26457  0.49785  1.0000
  C   C3152     1.0  0.85202  0.24183  0.54992  1.0000
  N   N265      1.0  0.88804  0.28323  0.41884  1.0000
  S   S1053     1.0  0.83895  0.27050  0.45505  1.0000
  S   S1054     1.0  0.84623  0.29168  0.40350  1.0000
  Fe  Fe526     1.0  0.85326  0.25890  0.46217  1.0000
  C   C3153     1.0  0.84101  0.27568  0.44058  1.0000
  C   C3154     1.0  0.83395  0.28557  0.43655  1.0000
  C   C3155     1.0  0.83554  0.29020  0.42515  1.0000
  C   C3156     1.0  0.84412  0.28494  0.41762  1.0000
  C   C3157     1.0  0.85101  0.27483  0.42156  1.0000
  C   C3158     1.0  0.84948  0.27024  0.43304  1.0000
  H   H3164     1.0  0.82732  0.28977  0.44228  1.0000
  H   H3165     1.0  0.83013  0.29797  0.42218  1.0000
  H   H3166     1.0  0.85756  0.27062  0.41582  1.0000
  H   H3167     1.0  0.85473  0.26246  0.43603  1.0000
  H   H3168     1.0  0.94331  0.24343  0.57442  1.0000
  C   C3159     1.0  0.86955  0.26230  0.52038  1.0000
  H   H3169     1.0  0.91819  0.26536  0.39854  1.0000
  C   C3160     1.0  0.87264  0.25070  0.52331  1.0000
  S   S1055     1.0  0.87405  0.27027  0.39515  1.0000
  C   C3161     1.0  0.90008  0.27937  0.41476  1.0000
  H   H3170     1.0  0.89500  0.24707  0.44810  1.0000
  H   H3171     1.0  0.98953  0.23955  0.43581  1.0000
  C   C3162     1.0  0.84525  0.25727  0.53604  1.0000
  C   C3163     1.0  0.92639  0.25047  0.55602  1.0000
  H   H3172     1.0  0.89070  0.27403  0.50176  1.0000
  C   C3164     1.0  0.86475  0.26723  0.51109  1.0000
  Fe  Fe527     1.0  0.86023  0.28447  0.39068  1.0000
  S   S1056     1.0  0.86242  0.24052  0.50108  1.0000
  H   H3173     1.0  0.90493  0.27866  0.42102  1.0000
  H   H3174     1.0  0.86447  0.29694  0.40947  1.0000
  C   C3165     1.0  0.88395  0.27496  0.48346  1.0000
  C   C3166     1.0  0.90248  0.25039  0.44561  1.0000
  H   H3175     1.0  0.97229  0.25102  0.42947  1.0000
  C   C3167     1.0  0.84902  0.25327  0.54590  1.0000
  C   C3168     1.0  0.92525  0.25120  0.39098  1.0000
  C   C3169     1.0  0.90958  0.27176  0.57562  1.0000
  H   H3176     1.0  0.90867  0.25548  0.57484  1.0000
  C   C3170     1.0  0.84581  0.23920  0.38623  1.0000
  C   C3171     1.0  0.89498  0.24285  0.40246  1.0000
  C   C3172     1.0  0.88351  0.28071  0.42995  1.0000
  C   C3173     1.0  0.84457  0.24973  0.53028  1.0000
  H   H3177     1.0  0.88001  0.28198  0.48775  1.0000
  C   C3174     1.0  0.86517  0.29018  0.42664  1.0000
  H   H3178     1.0  0.89057  0.27744  0.47619  1.0000
  H   H3179     1.0  0.89525  0.25899  0.40432  1.0000
  C   C3175     1.0  0.91824  0.26161  0.39194  1.0000
  C   C3176     1.0  0.89033  0.25478  0.48864  1.0000
  H   H3180     1.0  0.86540  0.24055  0.40974  1.0000
  S   S1057     1.0  0.89077  0.26633  0.45754  1.0000
  H   H3181     1.0  0.91242  0.27124  0.44871  1.0000
  C   C3177     1.0  0.86297  0.26066  0.50482  1.0000
  S   S1058     1.0  0.89569  0.24541  0.56598  1.0000
  H   H3182     1.0  0.89215  0.25334  0.42495  1.0000
  H   H3183     1.0  0.92951  0.26192  0.43720  1.0000
  H   H3184     1.0  0.86845  0.28211  0.44285  1.0000
  C   C3178     1.0  0.89489  0.24514  0.49564  1.0000
  Fe  Fe528     1.0  0.87735  0.25678  0.46228  1.0000
  C   C3179     1.0  0.91215  0.24517  0.43898  1.0000
  S   S1059     1.0  0.89656  0.25077  0.53920  1.0000
  H   H3185     1.0  0.93058  0.24705  0.39681  1.0000
  Fe  Fe529     1.0  0.90142  0.25788  0.55089  1.0000
  C   C3180     1.0  0.87203  0.28415  0.43403  1.0000
  C   C3181     1.0  0.86585  0.24906  0.50787  1.0000
  H   H3186     1.0  0.88879  0.27607  0.43574  1.0000
  Fe  Fe530     1.0  0.86283  0.24571  0.48257  1.0000
  S   S1060     1.0  0.86922  0.25390  0.45034  1.0000
  C   C3182     1.0  0.88132  0.28885  0.41150  1.0000
  S   S1061     1.0  0.93433  0.24271  0.42840  1.0000
  H   H3187     1.0  0.87731  0.27333  0.48040  1.0000
  S   S1062     1.0  0.90139  0.27936  0.38667  1.0000
  S   S1063     1.0  0.91778  0.26212  0.54940  1.0000
  H   H3188     1.0  0.85257  0.25387  0.38269  1.0000
  H   H3189     1.0  0.84327  0.26615  0.53267  1.0000
  H   H3190     1.0  0.88484  0.29060  0.40266  1.0000
  H   H3191     1.0  0.86229  0.27619  0.50880  1.0000
  C   C3183     1.0  0.92192  0.24929  0.43606  1.0000
  C   C3184     1.0  0.86981  0.29248  0.41529  1.0000
  H   H3192     1.0  0.91073  0.27490  0.56672  1.0000
  S   S1064     1.0  0.86144  0.26342  0.47329  1.0000
  C   C3185     1.0  0.93269  0.25177  0.56278  1.0000
  C   C3186     1.0  0.89428  0.25063  0.40857  1.0000
  C   C3187     1.0  0.91231  0.26399  0.44600  1.0000
  C   C3188     1.0  0.90263  0.25974  0.44919  1.0000
  C   C3189     1.0  0.92196  0.25873  0.43949  1.0000
  H   H3193     1.0  0.89654  0.24534  0.39347  1.0000
  C   C3190     1.0  0.85437  0.24489  0.38459  1.0000
  H   H3194     1.0  0.93268  0.26000  0.56348  1.0000
  H   H3195     1.0  0.90170  0.27113  0.41271  1.0000
  C   C3191     1.0  0.89201  0.26596  0.49986  1.0000
  H   H3196     1.0  0.87965  0.27960  0.57823  1.0000
  C   C3192     1.0  0.87075  0.24412  0.51711  1.0000
  N   N266      1.0  0.88876  0.26499  0.49092  1.0000
  H   H3197     1.0  0.84985  0.25905  0.55028  1.0000
  H   H3198     1.0  0.88788  0.25404  0.48147  1.0000
  C   C3193     1.0  0.84834  0.24048  0.43530  1.0000
  S   S1065     1.0  0.85272  0.24172  0.47265  1.0000
  H   H3199     1.0  0.87633  0.24678  0.53046  1.0000
  C   C3194     1.0  0.90837  0.26084  0.58019  1.0000
  N   N267      1.0  0.84759  0.23852  0.53425  1.0000
  H   H3200     1.0  0.84200  0.25292  0.52241  1.0000
  C   C3195     1.0  0.89671  0.25650  0.50697  1.0000
  H   H3201     1.0  0.86365  0.24615  0.42738  1.0000
  H   H3202     1.0  0.95696  0.24205  0.43044  1.0000
  H   H3203     1.0  0.91025  0.28707  0.57908  1.0000
  H   H3204     1.0  0.83739  0.24382  0.38573  1.0000
  C   C3196     1.0  0.92647  0.23982  0.55511  1.0000
  C   C3197     1.0  0.93868  0.24240  0.56899  1.0000
  C   C3198     1.0  0.97300  0.24217  0.43284  1.0000
  H   H3205     1.0  0.89895  0.25731  0.51423  1.0000
  C   C3199     1.0  0.85741  0.24231  0.42652  1.0000
  H   H3206     1.0  0.84751  0.24286  0.44303  1.0000
  C   C3200     1.0  0.89807  0.24603  0.50488  1.0000
  Fe  Fe531     1.0  0.88901  0.23976  0.55461  1.0000
  S   S1066     1.0  0.87933  0.23925  0.47191  1.0000
  S   S1067     1.0  0.87608  0.24542  0.38398  1.0000
  C   C3201     1.0  0.91114  0.26698  0.38457  1.0000
  H   H3207     1.0  0.85507  0.23863  0.55754  1.0000
  C   C3202     1.0  0.85844  0.23910  0.41669  1.0000
  C   C3203     1.0  0.92542  0.24625  0.38245  1.0000
  C   C3204     1.0  0.86516  0.23888  0.38558  1.0000
  H   H3208     1.0  0.90142  0.23862  0.51051  1.0000
  H   H3209     1.0  0.92165  0.23879  0.54985  1.0000
  H   H3210     1.0  0.92237  0.37741  0.73589  1.0000
  C   C3205     1.0  0.88951  0.37142  0.74052  1.0000
  S   S1068     1.0  0.94080  0.26055  0.60270  1.0000
  H   H3211     1.0  0.92671  0.39474  0.70141  1.0000
  Fe  Fe532     1.0  0.97330  0.36321  0.75106  1.0000
  S   S1069     1.0  0.96920  0.37692  0.73666  1.0000
  N   N268      1.0  0.89833  0.32229  0.75898  1.0000
  Fe  Fe533     1.0  0.94875  0.36257  0.76096  1.0000
  S   S1070     1.0  0.94279  0.37670  0.74781  1.0000
  S   S1071     1.0  0.84077  0.38627  0.76681  1.0000
  Fe  Fe534     1.0  0.95655  0.36783  0.73618  1.0000
  S   S1072     1.0  0.95157  0.36780  0.72061  1.0000
  Fe  Fe535     1.0  0.95588  0.38436  0.74960  1.0000
  S   S1073     1.0  0.95497  0.40182  0.75038  1.0000
  S   S1074     1.0  0.96204  0.35318  0.74926  1.0000
  S   S1075     1.0  0.96047  0.37112  0.76405  1.0000
  Fe  Fe536     1.0  0.89755  0.42647  0.75015  1.0000
  S   S1076     1.0  0.90922  0.42769  0.73355  1.0000
  S   S1077     1.0  0.90461  0.42552  0.76458  1.0000
  Fe  Fe537     1.0  0.87760  0.42897  0.74059  1.0000
  S   S1078     1.0  0.88768  0.43102  0.72306  1.0000
  S   S1079     1.0  0.85906  0.43009  0.74415  1.0000
  Fe  Fe538     1.0  0.90001  0.41654  0.73040  1.0000
  S   S1080     1.0  0.90921  0.40085  0.72406  1.0000
  Fe  Fe539     1.0  0.89575  0.44202  0.72816  1.0000
  S   S1081     1.0  0.90111  0.45814  0.71843  1.0000
  S   S1082     1.0  0.88961  0.41404  0.74767  1.0000
  S   S1083     1.0  0.88445  0.44119  0.74498  1.0000
  Fe  Fe540     1.0  0.87586  0.29071  0.65332  1.0000
  S   S1084     1.0  0.87932  0.27266  0.66194  1.0000
  S   S1085     1.0  0.87097  0.30492  0.66281  1.0000
  Fe  Fe541     1.0  0.88109  0.28417  0.63038  1.0000
  S   S1086     1.0  0.88557  0.26599  0.63761  1.0000
  S   S1087     1.0  0.88239  0.28914  0.61175  1.0000
  Fe  Fe542     1.0  0.87020  0.26945  0.65069  1.0000
  S   S1088     1.0  0.85735  0.25859  0.65642  1.0000
  Fe  Fe543     1.0  0.89416  0.27117  0.64779  1.0000
  S   S1089     1.0  0.91121  0.26167  0.65012  1.0000
  S   S1090     1.0  0.86524  0.28767  0.64320  1.0000
  S   S1091     1.0  0.89112  0.28923  0.63950  1.0000
  Fe  Fe544     1.0  0.90822  0.33767  0.71526  1.0000
  S   S1092     1.0  0.90612  0.34679  0.69806  1.0000
  S   S1093     1.0  0.92299  0.33311  0.72342  1.0000
  Fe  Fe545     1.0  0.88370  0.33637  0.72315  1.0000
  S   S1094     1.0  0.87948  0.34557  0.70675  1.0000
  S   S1095     1.0  0.87088  0.32977  0.73762  1.0000
  Fe  Fe546     1.0  0.89539  0.33463  0.69927  1.0000
  S   S1096     1.0  0.89818  0.32461  0.68579  1.0000
  Fe  Fe547     1.0  0.89041  0.35674  0.70702  1.0000
  S   S1097     1.0  0.88431  0.37536  0.70539  1.0000
  S   S1098     1.0  0.89892  0.32480  0.71591  1.0000
  S   S1099     1.0  0.89322  0.34826  0.72397  1.0000
  H   H3212     1.0  0.84403  0.24836  0.61904  1.0000
  H   H3213     1.0  0.87443  0.38203  0.74765  1.0000
  H   H3214     1.0  0.94457  0.41810  0.76381  1.0000
  C   C3206     1.0  0.98125  0.39834  0.76138  1.0000
  Fe  Fe548     1.0  0.94205  0.24247  0.60411  1.0000
  H   H3215     1.0  0.91414  0.25501  0.61207  1.0000
  C   C3207     1.0  0.87038  0.33198  0.75064  1.0000
  C   C3208     1.0  0.86575  0.32486  0.76013  1.0000
  C   C3209     1.0  0.86536  0.32626  0.77067  1.0000
  C   C3210     1.0  0.86925  0.33501  0.77180  1.0000
  C   C3211     1.0  0.87364  0.34232  0.76230  1.0000
  C   C3212     1.0  0.87428  0.34076  0.75172  1.0000
  H   H3216     1.0  0.86265  0.31810  0.75934  1.0000
  H   H3217     1.0  0.90031  0.25287  0.61339  1.0000
  H   H3218     1.0  0.87702  0.34886  0.76307  1.0000
  H   H3219     1.0  0.87768  0.34640  0.74445  1.0000
  C   C3213     1.0  0.87836  0.30930  0.67039  1.0000
  C   C3214     1.0  0.87286  0.31817  0.67580  1.0000
  C   C3215     1.0  0.87856  0.32251  0.68116  1.0000
  C   C3216     1.0  0.88994  0.31812  0.68113  1.0000
  C   C3217     1.0  0.89536  0.30910  0.67591  1.0000
  C   C3218     1.0  0.88964  0.30469  0.67065  1.0000
  H   H3220     1.0  0.86414  0.32183  0.67573  1.0000
  H   H3221     1.0  0.87422  0.32948  0.68501  1.0000
  H   H3222     1.0  0.90415  0.30561  0.67576  1.0000
  H   H3223     1.0  0.89404  0.29786  0.66661  1.0000
  H   H3224     1.0  0.96051  0.34044  0.77380  1.0000
  H   H3225     1.0  0.85108  0.27365  0.59868  1.0000
  C   C3219     1.0  0.88267  0.32410  0.64219  1.0000
  H   H3226     1.0  0.98110  0.36902  0.77035  1.0000
  H   H3227     1.0  0.92378  0.41807  0.71256  1.0000
  H   H3228     1.0  0.90184  0.26576  0.61505  1.0000
  H   H3229     1.0  0.89066  0.31999  0.77624  1.0000
  C   C3220     1.0  0.85449  0.41753  0.74970  1.0000
  C   C3221     1.0  0.84376  0.41711  0.74921  1.0000
  C   C3222     1.0  0.92683  0.42096  0.76486  1.0000
  C   C3223     1.0  0.90698  0.25685  0.59165  1.0000
  H   H3230     1.0  0.89712  0.33528  0.77909  1.0000
  C   C3224     1.0  0.86109  0.40818  0.75522  1.0000
  H   H3231     1.0  0.83859  0.42434  0.74499  1.0000
  H   H3232     1.0  0.93151  0.46286  0.71878  1.0000
  C   C3225     1.0  0.84414  0.26535  0.62637  1.0000
  H   H3233     1.0  0.86919  0.40852  0.75596  1.0000
  C   C3226     1.0  0.90211  0.39391  0.71891  1.0000
  C   C3227     1.0  0.89100  0.39822  0.71791  1.0000
  C   C3228     1.0  0.88565  0.39252  0.71367  1.0000
  C   C3229     1.0  0.89127  0.38235  0.71065  1.0000
  C   C3230     1.0  0.90235  0.37797  0.71179  1.0000
  C   C3231     1.0  0.90779  0.38381  0.71575  1.0000
  H   H3234     1.0  0.88655  0.40602  0.72026  1.0000
  H   H3235     1.0  0.87714  0.39606  0.71268  1.0000
  H   H3236     1.0  0.90679  0.37019  0.70940  1.0000
  H   H3237     1.0  0.91640  0.38042  0.71647  1.0000
  C   C3232     1.0  0.94311  0.35847  0.72182  1.0000
  C   C3233     1.0  0.93624  0.36069  0.71425  1.0000
  C   C3234     1.0  0.92972  0.35316  0.71486  1.0000
  C   C3235     1.0  0.93030  0.34323  0.72287  1.0000
  C   C3236     1.0  0.93703  0.34111  0.73054  1.0000
  C   C3237     1.0  0.94330  0.34876  0.73012  1.0000
  H   H3238     1.0  0.93605  0.36818  0.70780  1.0000
  H   H3239     1.0  0.92461  0.35483  0.70887  1.0000
  H   H3240     1.0  0.93755  0.33342  0.73673  1.0000
  H   H3241     1.0  0.94859  0.34695  0.73596  1.0000
  C   C3238     1.0  0.92259  0.36171  0.77547  1.0000
  C   C3239     1.0  0.90072  0.38131  0.74953  1.0000
  C   C3240     1.0  0.85690  0.39855  0.76045  1.0000
  S   S1100     1.0  0.88695  0.38285  0.78011  1.0000
  H   H3242     1.0  0.89645  0.24752  0.66116  1.0000
  C   C3241     1.0  0.86043  0.24494  0.64134  1.0000
  H   H3243     1.0  0.96382  0.24890  0.60207  1.0000
  C   C3242     1.0  0.94094  0.40816  0.75470  1.0000
  C   C3243     1.0  0.93255  0.40539  0.75154  1.0000
  C   C3244     1.0  0.92134  0.41051  0.75488  1.0000
  C   C3245     1.0  0.91848  0.41830  0.76151  1.0000
  H   H3244     1.0  0.89269  0.40614  0.77557  1.0000
  C   C3246     1.0  0.93809  0.41599  0.76131  1.0000
  H   H3245     1.0  0.93468  0.39951  0.74630  1.0000
  H   H3246     1.0  0.91491  0.40839  0.75232  1.0000
  H   H3247     1.0  0.88445  0.39064  0.75600  1.0000
  H   H3248     1.0  0.90694  0.32618  0.74213  1.0000
  H   H3249     1.0  0.85468  0.38383  0.74344  1.0000
  C   C3247     1.0  0.84653  0.27390  0.62957  1.0000
  H   H3250     1.0  0.90505  0.38543  0.75286  1.0000
  C   C3248     1.0  0.85187  0.28257  0.61029  1.0000
  C   C3249     1.0  0.95039  0.39549  0.71643  1.0000
  C   C3250     1.0  0.86128  0.36622  0.72594  1.0000
  C   C3251     1.0  0.89862  0.47376  0.74299  1.0000
  C   C3252     1.0  0.89760  0.46632  0.73725  1.0000
  C   C3253     1.0  0.90099  0.46817  0.72571  1.0000
  H   H3251     1.0  0.84619  0.36843  0.75594  1.0000
  H   H3252     1.0  0.88405  0.31530  0.64159  1.0000
  H   H3253     1.0  0.89623  0.47205  0.75194  1.0000
  H   H3254     1.0  0.89449  0.45898  0.74183  1.0000
  C   C3254     1.0  0.93400  0.26278  0.61594  1.0000
  C   C3255     1.0  0.93783  0.25581  0.62522  1.0000
  C   C3256     1.0  0.93105  0.25587  0.63585  1.0000
  C   C3257     1.0  0.92039  0.26280  0.63713  1.0000
  C   C3258     1.0  0.91683  0.27014  0.62787  1.0000
  C   C3259     1.0  0.92374  0.27031  0.61731  1.0000
  H   H3255     1.0  0.83820  0.24959  0.66264  1.0000
  N   N269      1.0  0.90660  0.37332  0.74367  1.0000
  H   H3256     1.0  0.90863  0.27545  0.62873  1.0000
  H   H3257     1.0  0.92086  0.27579  0.61015  1.0000
  H   H3258     1.0  0.89388  0.34151  0.66302  1.0000
  C   C3260     1.0  0.99003  0.36834  0.76859  1.0000
  C   C3261     1.0  0.84345  0.24632  0.65554  1.0000
  C   C3262     1.0  0.88120  0.28351  0.59301  1.0000
  C   C3263     1.0  0.88033  0.28014  0.60452  1.0000
  C   C3264     1.0  0.87770  0.26981  0.60999  1.0000
  C   C3265     1.0  0.87564  0.26310  0.60405  1.0000
  C   C3266     1.0  0.87624  0.26662  0.59258  1.0000
  H   H3259     1.0  0.86843  0.24718  0.63738  1.0000
  H   H3260     1.0  0.87684  0.26714  0.61885  1.0000
  H   H3261     1.0  0.88309  0.32952  0.63378  1.0000
  H   H3262     1.0  0.91278  0.32929  0.66111  1.0000
  C   C3267     1.0  0.90954  0.32018  0.65086  1.0000
  C   C3268     1.0  0.88345  0.37949  0.74658  1.0000
  H   H3263     1.0  0.97000  0.24255  0.63661  1.0000
  H   H3264     1.0  0.86545  0.36555  0.71748  1.0000
  C   C3269     1.0  0.97034  0.25085  0.60468  1.0000
  H   H3265     1.0  0.88323  0.29148  0.58870  1.0000
  N   N270      1.0  0.84607  0.26516  0.61540  1.0000
  H   H3266     1.0  0.89156  0.31570  0.74936  1.0000
  H   H3267     1.0  0.98124  0.38904  0.74528  1.0000
  H   H3268     1.0  0.86195  0.39150  0.76496  1.0000
  H   H3269     1.0  0.93313  0.40542  0.69124  1.0000
  H   H3270     1.0  0.95163  0.40382  0.72838  1.0000
  H   H3271     1.0  0.90902  0.34598  0.76332  1.0000
  H   H3272     1.0  0.84544  0.27375  0.63830  1.0000
  N   N271      1.0  0.93468  0.40345  0.70774  1.0000
  C   C3270     1.0  0.85052  0.28250  0.62145  1.0000
  C   C3271     1.0  0.92012  0.44823  0.74374  1.0000
  H   H3273     1.0  0.92004  0.40899  0.70084  1.0000
  S   S1101     1.0  0.86883  0.36711  0.77328  1.0000
  H   H3274     1.0  0.93449  0.41837  0.72589  1.0000
  C   C3272     1.0  0.85048  0.36774  0.74753  1.0000
  H   H3275     1.0  0.90355  0.31221  0.64164  1.0000
  H   H3276     1.0  0.84816  0.34720  0.75933  1.0000
  C   C3273     1.0  0.90148  0.31884  0.64608  1.0000
  H   H3277     1.0  0.86462  0.38231  0.72405  1.0000
  H   H3278     1.0  0.92248  0.36286  0.73843  1.0000
  C   C3274     1.0  0.93134  0.41177  0.71350  1.0000
  C   C3275     1.0  0.88906  0.38441  0.75120  1.0000
  C   C3276     1.0  0.93735  0.41200  0.72105  1.0000
  C   C3277     1.0  0.90504  0.47783  0.71994  1.0000
  C   C3278     1.0  0.92837  0.40318  0.69987  1.0000
  C   C3279     1.0  0.90116  0.36837  0.73918  1.0000
  C   C3280     1.0  0.91883  0.37046  0.74186  1.0000
  H   H3279     1.0  0.90584  0.36233  0.73415  1.0000
  H   H3280     1.0  0.88526  0.36774  0.73664  1.0000
  H   H3281     1.0  0.92149  0.36890  0.74980  1.0000
  C   C3281     1.0  0.94695  0.40380  0.72249  1.0000
  H   H3282     1.0  0.85269  0.28905  0.62380  1.0000
  C   C3282     1.0  0.98712  0.25566  0.61132  1.0000
  C   C3283     1.0  0.85533  0.37645  0.74050  1.0000
  S   S1102     1.0  0.99151  0.35734  0.75227  1.0000
  C   C3284     1.0  0.85371  0.24936  0.65051  1.0000
  N   N272      1.0  0.85100  0.35853  0.74382  1.0000
  C   C3285     1.0  0.90973  0.37971  0.77419  1.0000
  H   H3283     1.0  0.83133  0.40715  0.75385  1.0000
  C   C3286     1.0  0.90607  0.48532  0.72570  1.0000
  H   H3284     1.0  0.93386  0.25021  0.64300  1.0000
  H   H3285     1.0  0.85513  0.28913  0.60391  1.0000
  C   C3287     1.0  0.90878  0.33673  0.75167  1.0000
  C   C3288     1.0  0.90604  0.33933  0.76209  1.0000
  C   C3289     1.0  0.84959  0.27377  0.60739  1.0000
  H   H3286     1.0  0.90617  0.24832  0.59511  1.0000
  C   C3290     1.0  0.84616  0.39817  0.75998  1.0000
  C   C3291     1.0  0.90683  0.32848  0.65686  1.0000
  H   H3287     1.0  0.84093  0.25875  0.63273  1.0000
  H   H3288     1.0  0.95777  0.38898  0.71754  1.0000
  H   H3289     1.0  0.91771  0.31460  0.65023  1.0000
  H   H3290     1.0  0.90147  0.30577  0.75693  1.0000
  C   C3292     1.0  0.90793  0.27430  0.59397  1.0000
  S   S1103     1.0  0.87169  0.25892  0.58578  1.0000
  C   C3293     1.0  0.89451  0.31320  0.75727  1.0000
  C   C3294     1.0  0.85559  0.42411  0.77317  1.0000
  C   C3295     1.0  0.86421  0.42987  0.76973  1.0000
  C   C3296     1.0  0.90571  0.25907  0.61031  1.0000
  H   H3291     1.0  0.90755  0.27970  0.59930  1.0000
  C   C3297     1.0  0.84412  0.25585  0.61214  1.0000
  H   H3292     1.0  0.84786  0.42774  0.77026  1.0000
  H   H3293     1.0  0.86203  0.32054  0.77798  1.0000
  H   H3294     1.0  0.92462  0.42696  0.77001  1.0000
  C   C3298     1.0  0.85625  0.35772  0.73315  1.0000
  Fe  Fe549     1.0  0.85121  0.37582  0.77887  1.0000
  C   C3299     1.0  0.96767  0.25916  0.61064  1.0000
  C   C3300     1.0  0.94410  0.39541  0.70908  1.0000
  H   H3295     1.0  0.87408  0.32610  0.64732  1.0000
  H   H3296     1.0  0.87993  0.33892  0.65432  1.0000
  H   H3297     1.0  0.90765  0.47938  0.71100  1.0000
  H   H3298     1.0  0.91401  0.34123  0.74471  1.0000
  H   H3299     1.0  0.88101  0.42941  0.77035  1.0000
  H   H3300     1.0  0.94671  0.38874  0.70461  1.0000
  H   H3301     1.0  0.84769  0.34217  0.74781  1.0000
  H   H3302     1.0  0.90878  0.44722  0.76406  1.0000
  N   N273      1.0  0.91991  0.45509  0.75033  1.0000
  C   C3301     1.0  0.92440  0.46433  0.74591  1.0000
  H   H3303     1.0  0.86316  0.43800  0.76420  1.0000
  C   C3302     1.0  0.92879  0.46718  0.73453  1.0000
  C   C3303     1.0  0.92441  0.45085  0.73232  1.0000
  C   C3304     1.0  0.92868  0.46044  0.72769  1.0000
  C   C3305     1.0  0.84548  0.34974  0.75129  1.0000
  H   H3304     1.0  0.92404  0.46991  0.75108  1.0000
  C   C3306     1.0  0.90480  0.32816  0.75026  1.0000
  H   H3305     1.0  0.88735  0.31094  0.76399  1.0000
  C   C3307     1.0  0.90307  0.48316  0.73730  1.0000
  C   C3308     1.0  0.87431  0.42491  0.77314  1.0000
  C   C3309     1.0  0.83965  0.40740  0.75422  1.0000
  H   H3306     1.0  0.83626  0.35276  0.75281  1.0000
  H   H3307     1.0  0.94586  0.25008  0.62420  1.0000
  C   C3310     1.0  0.89582  0.32460  0.76929  1.0000
  C   C3311     1.0  0.89948  0.33326  0.77096  1.0000
  H   H3308     1.0  0.87664  0.24730  0.67028  1.0000
  H   H3309     1.0  0.90837  0.38869  0.77217  1.0000
  H   H3310     1.0  0.85661  0.35047  0.73013  1.0000
  C   C3312     1.0  0.88831  0.33378  0.65310  1.0000
  H   H3311     1.0  0.87320  0.25533  0.60843  1.0000
  C   C3313     1.0  0.89618  0.33538  0.65794  1.0000
  C   C3314     1.0  0.92070  0.37332  0.77268  1.0000
  N   N274      1.0  0.89098  0.32552  0.64736  1.0000
  C   C3315     1.0  0.86081  0.37563  0.72965  1.0000
  H   H3312     1.0  0.95906  0.26367  0.61265  1.0000
  H   H3313     1.0  0.92160  0.44814  0.76691  1.0000
  N   N275      1.0  0.90670  0.26358  0.59838  1.0000
  H   H3314     1.0  0.91653  0.44093  0.74722  1.0000
  C   C3316     1.0  0.91495  0.45253  0.76221  1.0000
  H   H3315     1.0  0.91034  0.46029  0.76515  1.0000
  C   C3317     1.0  0.97609  0.26157  0.61404  1.0000
  C   C3318     1.0  0.87925  0.27675  0.58704  1.0000
  C   C3319     1.0  0.90058  0.37455  0.77837  1.0000
  H   H3316     1.0  0.97480  0.39327  0.76360  1.0000
  S   S1104     1.0  0.93633  0.35360  0.77377  1.0000
  C   C3320     1.0  0.88128  0.24171  0.66477  1.0000
  H   H3317     1.0  0.93169  0.47489  0.73100  1.0000
  H   H3318     1.0  0.83597  0.25824  0.60961  1.0000
  H   H3319     1.0  0.98356  0.39808  0.76921  1.0000
  H   H3320     1.0  0.97744  0.40703  0.75778  1.0000
  H   H3321     1.0  0.90968  0.24253  0.63895  1.0000
  H   H3322     1.0  0.92769  0.37740  0.76965  1.0000
  H   H3323     1.0  0.85092  0.25339  0.60511  1.0000
  H   H3324     1.0  0.92391  0.44579  0.72701  1.0000
  H   H3325     1.0  0.97408  0.26788  0.61886  1.0000
  H   H3326     1.0  0.98125  0.33535  0.76865  1.0000
  N   N276      1.0  0.98965  0.24744  0.60554  1.0000
  C   C3321     1.0  0.91344  0.35653  0.77968  1.0000
  C   C3322     1.0  0.96555  0.34271  0.77808  1.0000
  C   C3323     1.0  0.98143  0.24502  0.60218  1.0000
  C   C3324     1.0  0.89245  0.24185  0.65951  1.0000
  N   N277      1.0  0.87579  0.41448  0.77975  1.0000
  C   C3325     1.0  0.99467  0.37229  0.77513  1.0000
  H   H3327     1.0  0.98925  0.37606  0.78185  1.0000
  C   C3326     1.0  0.85715  0.41348  0.77991  1.0000
  S   S1105     1.0  0.99277  0.24070  0.63767  1.0000
  C   C3327     1.0  0.97725  0.33983  0.77525  1.0000
  N   N278      1.0  0.99103  0.39402  0.75335  1.0000
  C   C3328     1.0  0.98956  0.38957  0.74544  1.0000
  C   C3329     1.0  0.99698  0.36324  0.76005  1.0000
  C   C3330     1.0  0.99579  0.33901  0.77811  1.0000
  H   H3328     1.0  0.99360  0.25750  0.61409  1.0000
  C   C3331     1.0  0.83970  0.23926  0.65144  1.0000
  N   N279      1.0  0.98356  0.34275  0.78064  1.0000
  C   C3332     1.0  0.90244  0.36294  0.78102  1.0000
  H   H3329     1.0  0.98337  0.23847  0.59766  1.0000
  H   H3330     1.0  0.91487  0.34756  0.78195  1.0000
  C   C3333     1.0  0.90937  0.27855  0.58253  1.0000
  C   C3334     1.0  0.57379  0.26035  0.92545  1.0000
  C   C3335     1.0  0.72024  0.39026  0.88569  1.0000
  S   S1106     1.0  0.59442  0.26139  0.96063  1.0000
  Fe  Fe550     1.0  0.53958  0.25907  0.91997  1.0000
  S   S1107     1.0  0.54217  0.27003  0.90295  1.0000
  S   S1108     1.0  0.53935  0.26484  0.93496  1.0000
  C   C3336     1.0  0.54393  0.27003  0.87039  1.0000
  C   C3337     1.0  0.97851  0.34856  0.78884  1.0000
  Fe  Fe551     1.0  0.55635  0.25589  0.89882  1.0000
  S   S1109     1.0  0.57434  0.25648  0.88999  1.0000
  Fe  Fe552     1.0  0.53108  0.26071  0.89962  1.0000
  S   S1110     1.0  0.51672  0.26858  0.89083  1.0000
  H   H3331     1.0  0.56254  0.24654  0.96225  1.0000
  S   S1111     1.0  0.52716  0.25115  0.91717  1.0000
  H   H3332     1.0  0.79130  0.38630  0.83275  1.0000
  Fe  Fe553     1.0  0.75767  0.36671  0.95882  1.0000
  S   S1112     1.0  0.74389  0.38010  0.95280  1.0000
  S   S1113     1.0  0.77275  0.36166  0.94577  1.0000
  Fe  Fe554     1.0  0.73262  0.36960  0.96517  1.0000
  S   S1114     1.0  0.71699  0.36812  0.96088  1.0000
  Fe  Fe555     1.0  0.74360  0.38722  0.96696  1.0000
  S   S1115     1.0  0.74337  0.40490  0.96614  1.0000
  S   S1116     1.0  0.74648  0.35568  0.97062  1.0000
  S   S1117     1.0  0.75854  0.37489  0.97188  1.0000
  Fe  Fe556     1.0  0.71357  0.44567  0.90654  1.0000
  S   S1118     1.0  0.73067  0.44260  0.89568  1.0000
  S   S1119     1.0  0.70561  0.46365  0.90722  1.0000
  Fe  Fe557     1.0  0.71348  0.42084  0.91427  1.0000
  S   S1120     1.0  0.73087  0.41584  0.90461  1.0000
  S   S1121     1.0  0.70501  0.40690  0.92486  1.0000
  Fe  Fe558     1.0  0.73481  0.42917  0.91012  1.0000
  S   S1122     1.0  0.75030  0.42815  0.91565  1.0000
  Fe  Fe559     1.0  0.72508  0.42969  0.89107  1.0000
  S   S1123     1.0  0.73030  0.42546  0.87437  1.0000
  S   S1124     1.0  0.71801  0.43287  0.92137  1.0000
  S   S1125     1.0  0.70732  0.43402  0.90039  1.0000
  Fe  Fe560     1.0  0.61863  0.28298  0.89901  1.0000
  S   S1126     1.0  0.62617  0.26491  0.90403  1.0000
  S   S1127     1.0  0.59984  0.28770  0.90017  1.0000
  Fe  Fe561     1.0  0.64153  0.29013  0.89287  1.0000
  S   S1128     1.0  0.65057  0.27219  0.89630  1.0000
  S   S1129     1.0  0.65255  0.30321  0.88772  1.0000
  Fe  Fe562     1.0  0.63884  0.26820  0.88825  1.0000
  S   S1130     1.0  0.64416  0.25608  0.87671  1.0000
  Fe  Fe563     1.0  0.63695  0.27073  0.91152  1.0000
  S   S1131     1.0  0.64092  0.26426  0.92830  1.0000
  S   S1132     1.0  0.63118  0.28634  0.88296  1.0000
  S   S1133     1.0  0.62802  0.28858  0.90834  1.0000
  C   C3338     1.0  0.64036  0.23906  0.97602  1.0000
  H   H3333     1.0  0.58945  0.24939  0.92000  1.0000
  Fe  Fe564     1.0  0.85180  0.36879  0.80339  1.0000
  S   S1134     1.0  0.84095  0.37436  0.81897  1.0000
  C   C3339     1.0  0.55113  0.25027  0.86308  1.0000
  S   S1135     1.0  0.85541  0.38374  0.79015  1.0000
  Fe  Fe565     1.0  0.70455  0.34201  0.91825  1.0000
  S   S1136     1.0  0.68594  0.34896  0.92123  1.0000
  S   S1137     1.0  0.71715  0.33747  0.92924  1.0000
  Fe  Fe566     1.0  0.70641  0.34430  0.89368  1.0000
  S   S1138     1.0  0.68816  0.35176  0.89450  1.0000
  S   S1139     1.0  0.71788  0.34163  0.87748  1.0000
  Fe  Fe567     1.0  0.69026  0.36165  0.90558  1.0000
  S   S1140     1.0  0.68550  0.38045  0.90196  1.0000
  Fe  Fe568     1.0  0.68535  0.33828  0.90983  1.0000
  S   S1141     1.0  0.67210  0.32753  0.91387  1.0000
  S   S1142     1.0  0.70873  0.35523  0.90331  1.0000
  S   S1143     1.0  0.70374  0.33027  0.90832  1.0000
  Fe  Fe569     1.0  0.77178  0.36099  0.88647  1.0000
  S   S1144     1.0  0.76213  0.37735  0.87883  1.0000
  S   S1145     1.0  0.76197  0.35424  0.90338  1.0000
  Fe  Fe570     1.0  0.79010  0.36019  0.86519  1.0000
  S   S1146     1.0  0.78167  0.37654  0.85610  1.0000
  S   S1147     1.0  0.80533  0.34999  0.85570  1.0000
  Fe  Fe571     1.0  0.77880  0.38193  0.87200  1.0000
  S   S1148     1.0  0.77973  0.39864  0.87339  1.0000
  Fe  Fe572     1.0  0.76590  0.37026  0.86389  1.0000
  S   S1149     1.0  0.75285  0.37224  0.85444  1.0000
  S   S1150     1.0  0.78839  0.36606  0.88078  1.0000
  S   S1151     1.0  0.77436  0.35344  0.87186  1.0000
  C   C3340     1.0  0.72763  0.35016  0.87146  1.0000
  C   C3341     1.0  0.73091  0.35285  0.85992  1.0000
  C   C3342     1.0  0.73864  0.35964  0.85479  1.0000
  C   C3343     1.0  0.74353  0.36339  0.86117  1.0000
  C   C3344     1.0  0.74047  0.36054  0.87276  1.0000
  C   C3345     1.0  0.73233  0.35411  0.87792  1.0000
  H   H3334     1.0  0.72732  0.34980  0.85490  1.0000
  H   H3335     1.0  0.74097  0.36185  0.84583  1.0000
  H   H3336     1.0  0.74421  0.36348  0.87771  1.0000
  H   H3337     1.0  0.72995  0.35194  0.88684  1.0000
  C   C3346     1.0  0.83143  0.36721  0.82930  1.0000
  C   C3347     1.0  0.82346  0.37297  0.83693  1.0000
  C   C3348     1.0  0.81546  0.36776  0.84508  1.0000
  C   C3349     1.0  0.81548  0.35667  0.84577  1.0000
  C   C3350     1.0  0.82357  0.35084  0.83825  1.0000
  C   C3351     1.0  0.83146  0.35612  0.82996  1.0000
  H   H3338     1.0  0.82343  0.38153  0.83652  1.0000
  H   H3339     1.0  0.80934  0.37231  0.85086  1.0000
  H   H3340     1.0  0.82366  0.34224  0.83879  1.0000
  H   H3341     1.0  0.83761  0.35158  0.82419  1.0000
  C   C3352     1.0  0.65704  0.31089  0.89493  1.0000
  C   C3353     1.0  0.66558  0.31676  0.88922  1.0000
  C   C3354     1.0  0.67003  0.32221  0.89472  1.0000
  C   C3355     1.0  0.66598  0.32195  0.90607  1.0000
  C   C3356     1.0  0.65716  0.31641  0.91169  1.0000
  C   C3357     1.0  0.65273  0.31093  0.90621  1.0000
  H   H3342     1.0  0.66894  0.31694  0.88049  1.0000
  H   H3343     1.0  0.67674  0.32646  0.89019  1.0000
  H   H3344     1.0  0.65382  0.31622  0.92043  1.0000
  H   H3345     1.0  0.64601  0.30671  0.91074  1.0000
  C   C3358     1.0  0.72630  0.33542  0.97839  1.0000
  S   S1152     1.0  0.54559  0.24767  0.89376  1.0000
  H   H3346     1.0  0.71859  0.39229  0.89372  1.0000
  C   C3359     1.0  0.63361  0.24240  0.95905  1.0000
  H   H3347     1.0  0.56035  0.26649  0.87366  1.0000
  H   H3348     1.0  0.62977  0.27394  0.94738  1.0000
  C   C3360     1.0  0.71781  0.34473  0.98008  1.0000
  C   C3361     1.0  0.54432  0.24266  0.94442  1.0000
  H   H3349     1.0  0.67193  0.28447  0.89593  1.0000
  N   N280      1.0  0.68159  0.43074  0.92490  1.0000
  C   C3362     1.0  0.74463  0.41940  0.87253  1.0000
  C   C3363     1.0  0.75113  0.42155  0.87858  1.0000
  C   C3364     1.0  0.76225  0.41575  0.87815  1.0000
  C   C3365     1.0  0.76672  0.40742  0.87207  1.0000
  C   C3366     1.0  0.76037  0.40550  0.86572  1.0000
  C   C3367     1.0  0.74941  0.41169  0.86575  1.0000
  H   H3350     1.0  0.74759  0.42764  0.88366  1.0000
  H   H3351     1.0  0.76722  0.41744  0.88286  1.0000
  H   H3352     1.0  0.76387  0.39920  0.86085  1.0000
  H   H3353     1.0  0.74450  0.41021  0.86086  1.0000
  C   C3368     1.0  0.70024  0.39931  0.91816  1.0000
  C   C3369     1.0  0.69768  0.38898  0.92390  1.0000
  C   C3370     1.0  0.69356  0.38292  0.91885  1.0000
  C   C3371     1.0  0.69138  0.38746  0.90826  1.0000
  C   C3372     1.0  0.69377  0.39788  0.90259  1.0000
  C   C3373     1.0  0.69845  0.40366  0.90741  1.0000
  H   H3354     1.0  0.69876  0.38564  0.93232  1.0000
  H   H3355     1.0  0.69164  0.37495  0.92334  1.0000
  H   H3356     1.0  0.69207  0.40146  0.89440  1.0000
  H   H3357     1.0  0.70034  0.41163  0.90291  1.0000
  C   C3374     1.0  0.71737  0.35987  0.95169  1.0000
  C   C3375     1.0  0.70759  0.36076  0.94813  1.0000
  C   C3376     1.0  0.70749  0.35415  0.94103  1.0000
  C   C3377     1.0  0.71712  0.34642  0.93760  1.0000
  C   C3378     1.0  0.72692  0.34555  0.94114  1.0000
  C   C3379     1.0  0.72708  0.35232  0.94806  1.0000
  H   H3358     1.0  0.70003  0.36658  0.95090  1.0000
  H   H3359     1.0  0.69988  0.35488  0.93841  1.0000
  H   H3360     1.0  0.73441  0.33959  0.93855  1.0000
  H   H3361     1.0  0.73466  0.35155  0.95074  1.0000
  C   C3380     1.0  0.76963  0.35960  0.93404  1.0000
  C   C3381     1.0  0.77822  0.35806  0.92470  1.0000
  C   C3382     1.0  0.77587  0.35686  0.91509  1.0000
  C   C3383     1.0  0.76498  0.35667  0.91496  1.0000
  C   C3384     1.0  0.75641  0.35791  0.92441  1.0000
  C   C3385     1.0  0.75869  0.35957  0.93386  1.0000
  H   H3362     1.0  0.78674  0.35779  0.92491  1.0000
  H   H3363     1.0  0.78255  0.35569  0.90791  1.0000
  H   H3364     1.0  0.74800  0.35758  0.92443  1.0000
  H   H3365     1.0  0.75204  0.36057  0.94109  1.0000
  C   C3386     1.0  0.74484  0.41183  0.95227  1.0000
  C   C3387     1.0  0.75252  0.41874  0.94770  1.0000
  C   C3388     1.0  0.75432  0.42366  0.93637  1.0000
  C   C3389     1.0  0.74820  0.42190  0.92972  1.0000
  C   C3390     1.0  0.74042  0.41510  0.93431  1.0000
  C   C3391     1.0  0.73880  0.40999  0.94558  1.0000
  H   H3366     1.0  0.75724  0.42008  0.95287  1.0000
  H   H3367     1.0  0.76038  0.42887  0.93281  1.0000
  H   H3368     1.0  0.73575  0.41366  0.92917  1.0000
  H   H3369     1.0  0.73280  0.40471  0.94914  1.0000
  C   C3392     1.0  0.53659  0.26630  0.86666  1.0000
  C   C3393     1.0  0.72040  0.46918  0.92902  1.0000
  C   C3394     1.0  0.71627  0.46387  0.92322  1.0000
  C   C3395     1.0  0.71108  0.47010  0.91450  1.0000
  H   H3370     1.0  0.72430  0.46431  0.93582  1.0000
  H   H3371     1.0  0.71699  0.45498  0.92562  1.0000
  C   C3396     1.0  0.58118  0.26461  0.89399  1.0000
  C   C3397     1.0  0.59286  0.26166  0.89274  1.0000
  C   C3398     1.0  0.59864  0.26853  0.89488  1.0000
  C   C3399     1.0  0.59280  0.27850  0.89811  1.0000
  C   C3400     1.0  0.58109  0.28131  0.89959  1.0000
  C   C3401     1.0  0.57529  0.27436  0.89763  1.0000
  H   H3372     1.0  0.59747  0.25410  0.89001  1.0000
  H   H3373     1.0  0.60763  0.26625  0.89373  1.0000
  H   H3374     1.0  0.57649  0.28897  0.90216  1.0000
  H   H3375     1.0  0.56629  0.27675  0.89862  1.0000
  C   C3402     1.0  0.51025  0.26035  0.88651  1.0000
  H   H3376     1.0  0.74142  0.45236  0.90681  1.0000
  C   C3403     1.0  0.60682  0.26342  0.95116  1.0000
  C   C3404     1.0  0.61029  0.25820  0.94220  1.0000
  C   C3405     1.0  0.62074  0.25862  0.93512  1.0000
  C   C3406     1.0  0.62782  0.26411  0.93711  1.0000
  C   C3407     1.0  0.62432  0.26954  0.94597  1.0000
  C   C3408     1.0  0.61372  0.26929  0.95296  1.0000
  H   H3377     1.0  0.60497  0.25366  0.94081  1.0000
  H   H3378     1.0  0.62345  0.25437  0.92832  1.0000
  C   C3409     1.0  0.59652  0.26409  0.86158  1.0000
  C   C3410     1.0  0.79760  0.38168  0.82710  1.0000
  H   H3379     1.0  0.55978  0.27292  0.93099  1.0000
  H   H3380     1.0  0.53444  0.25329  0.86030  1.0000
  C   C3411     1.0  0.49899  0.26418  0.88570  1.0000
  H   H3381     1.0  0.50251  0.24558  0.90979  1.0000
  C   C3412     1.0  0.58545  0.25708  0.92279  1.0000
  H   H3382     1.0  0.68387  0.45743  0.91356  1.0000
  C   C3413     1.0  0.74867  0.45472  0.92328  1.0000
  H   H3383     1.0  0.63867  0.24887  0.95537  1.0000
  N   N281      1.0  0.66907  0.28696  0.91231  1.0000
  C   C3414     1.0  0.65950  0.28157  0.91631  1.0000
  H   H3384     1.0  0.66742  0.29137  0.92764  1.0000
  H   H3385     1.0  0.65570  0.28135  0.92523  1.0000
  H   H3386     1.0  0.65287  0.28617  0.91161  1.0000
  H   H3387     1.0  0.66208  0.27286  0.91518  1.0000
  C   C3415     1.0  0.55484  0.26374  0.87036  1.0000
  H   H3388     1.0  0.72542  0.38346  0.85701  1.0000
  C   C3416     1.0  0.67209  0.29160  0.91917  1.0000
  H   H3389     1.0  0.56847  0.24029  0.87548  1.0000
  H   H3390     1.0  0.70768  0.38053  0.89059  1.0000
  C   C3417     1.0  0.51627  0.25043  0.88325  1.0000
  C   C3418     1.0  0.68084  0.29728  0.91518  1.0000
  C   C3419     1.0  0.68652  0.29817  0.90413  1.0000
  H   H3391     1.0  0.74161  0.34307  0.91488  1.0000
  H   H3392     1.0  0.68278  0.30153  0.92045  1.0000
  H   H3393     1.0  0.68010  0.41378  0.92832  1.0000
  H   H3394     1.0  0.60101  0.26127  0.92160  1.0000
  N   N282      1.0  0.77231  0.39146  0.92387  1.0000
  C   C3420     1.0  0.76748  0.39797  0.91531  1.0000
  C   C3421     1.0  0.78168  0.38331  0.92196  1.0000
  C   C3422     1.0  0.77183  0.39614  0.90455  1.0000
  C   C3423     1.0  0.78632  0.38133  0.91128  1.0000
  C   C3424     1.0  0.78130  0.38775  0.90255  1.0000
  C   C3425     1.0  0.76767  0.39361  0.93505  1.0000
  H   H3395     1.0  0.76024  0.40465  0.91675  1.0000
  H   H3396     1.0  0.78553  0.37814  0.92875  1.0000
  H   H3397     1.0  0.76798  0.40124  0.89776  1.0000
  H   H3398     1.0  0.79366  0.37476  0.90980  1.0000
  H   H3399     1.0  0.78478  0.38628  0.89423  1.0000
  H   H3400     1.0  0.77032  0.38627  0.94151  1.0000
  H   H3401     1.0  0.77042  0.40083  0.93581  1.0000
  H   H3402     1.0  0.75840  0.39542  0.93684  1.0000
  Fe  Fe573     1.0  0.59392  0.24426  0.96010  1.0000
  C   C3426     1.0  0.68445  0.44944  0.91937  1.0000
  C   C3427     1.0  0.73805  0.46917  0.89749  1.0000
  H   H3403     1.0  0.71140  0.34758  0.97522  1.0000
  H   H3404     1.0  0.69273  0.45402  0.92946  1.0000
  N   N283      1.0  0.55828  0.25396  0.86678  1.0000
  N   N284      1.0  0.74526  0.46355  0.91407  1.0000
  H   H3405     1.0  0.74842  0.47645  0.91961  1.0000
  H   H3406     1.0  0.73524  0.48672  0.89021  1.0000
  H   H3407     1.0  0.70014  0.38017  0.87188  1.0000
  H   H3408     1.0  0.70813  0.36747  0.87867  1.0000
  H   H3409     1.0  0.57312  0.24279  0.86062  1.0000
  N   N285      1.0  0.81354  0.38105  0.81183  1.0000
  S   S1153     1.0  0.72590  0.48681  0.93291  1.0000
  H   H3410     1.0  0.71211  0.37212  0.86400  1.0000
  C   C3428     1.0  0.75362  0.33366  0.89502  1.0000
  C   C3429     1.0  0.71970  0.48071  0.92595  1.0000
  C   C3430     1.0  0.54020  0.25638  0.86295  1.0000
  S   S1154     1.0  0.73096  0.37816  0.97887  1.0000
  H   H3411     1.0  0.68751  0.29435  0.88851  1.0000
  H   H3412     1.0  0.73327  0.39948  0.87832  1.0000
  H   H3413     1.0  0.61041  0.24271  0.87795  1.0000
  C   C3431     1.0  0.63608  0.24915  0.87265  1.0000
  C   C3432     1.0  0.82149  0.38680  0.80313  1.0000
  C   C3433     1.0  0.62495  0.27039  0.85497  1.0000
  N   N286      1.0  0.58702  0.27354  0.92730  1.0000
  C   C3434     1.0  0.57561  0.27678  0.92994  1.0000
  C   C3435     1.0  0.59385  0.28048  0.92855  1.0000
  H   H3414     1.0  0.57169  0.28444  0.93279  1.0000
  H   H3415     1.0  0.59297  0.28014  0.93747  1.0000
  H   H3416     1.0  0.60286  0.27775  0.92483  1.0000
  H   H3417     1.0  0.59119  0.28923  0.92419  1.0000
  N   N287      1.0  0.72914  0.38138  0.92306  1.0000
  C   C3436     1.0  0.72457  0.37397  0.92081  1.0000
  C   C3437     1.0  0.73810  0.38509  0.91575  1.0000
  C   C3438     1.0  0.72890  0.37012  0.91098  1.0000
  C   C3439     1.0  0.74261  0.38148  0.90579  1.0000
  C   C3440     1.0  0.73798  0.37391  0.90343  1.0000
  C   C3441     1.0  0.72506  0.38461  0.93379  1.0000
  H   H3418     1.0  0.71758  0.37092  0.92667  1.0000
  H   H3419     1.0  0.74187  0.39078  0.91766  1.0000
  H   H3420     1.0  0.72536  0.36408  0.90936  1.0000
  H   H3421     1.0  0.74981  0.38431  0.90008  1.0000
  H   H3422     1.0  0.74161  0.37079  0.89589  1.0000
  H   H3423     1.0  0.72966  0.37859  0.93988  1.0000
  H   H3424     1.0  0.72606  0.39313  0.93317  1.0000
  H   H3425     1.0  0.71601  0.38466  0.93703  1.0000
  H   H3426     1.0  0.74312  0.32655  0.87691  1.0000
  H   H3427     1.0  0.72833  0.32326  0.89387  1.0000
  C   C3442     1.0  0.74578  0.47428  0.91327  1.0000
  H   H3428     1.0  0.61744  0.26003  0.84989  1.0000
  C   C3443     1.0  0.74393  0.32778  0.88467  1.0000
  H   H3429     1.0  0.80725  0.35565  0.82215  1.0000
  C   C3444     1.0  0.55167  0.25475  0.95083  1.0000
  C   C3445     1.0  0.68943  0.44752  0.92832  1.0000
  H   H3430     1.0  0.68739  0.42070  0.93932  1.0000
  H   H3431     1.0  0.62466  0.24653  0.96136  1.0000
  H   H3432     1.0  0.55380  0.24243  0.86043  1.0000
  H   H3433     1.0  0.58994  0.26443  0.86931  1.0000
  C   C3446     1.0  0.56933  0.24689  0.86778  1.0000
  C   C3447     1.0  0.56884  0.27029  0.92898  1.0000
  H   H3434     1.0  0.75718  0.44985  0.92045  1.0000
  H   H3435     1.0  0.70602  0.48657  0.90494  1.0000
  C   C3448     1.0  0.59197  0.26382  0.92378  1.0000
  C   C3449     1.0  0.61904  0.24297  0.87402  1.0000
  C   C3450     1.0  0.71009  0.48167  0.91162  1.0000
  H   H3436     1.0  0.66793  0.42412  0.92511  1.0000
  H   H3437     1.0  0.55237  0.26299  0.95076  1.0000
  C   C3451     1.0  0.67466  0.28772  0.90148  1.0000
  C   C3452     1.0  0.69040  0.43715  0.93559  1.0000
  H   H3438     1.0  0.74279  0.44897  0.92641  1.0000
  H   H3439     1.0  0.61123  0.28678  0.87350  1.0000
  C   C3453     1.0  0.70872  0.37501  0.87191  1.0000
  N   N288      1.0  0.74544  0.33178  0.90436  1.0000
  H   H3440     1.0  0.74189  0.32880  0.92204  1.0000
  C   C3454     1.0  0.68639  0.42881  0.93376  1.0000
  H   H3441     1.0  0.80496  0.39564  0.81806  1.0000
  H   H3442     1.0  0.73692  0.39466  0.85994  1.0000
  H   H3443     1.0  0.82894  0.38085  0.79971  1.0000
  S   S1155     1.0  0.84621  0.36159  0.79224  1.0000
  H   H3444     1.0  0.69293  0.30304  0.90082  1.0000
  C   C3455     1.0  0.63513  0.23923  0.85931  1.0000
  H   H3445     1.0  0.56856  0.25525  0.92480  1.0000
  H   H3446     1.0  0.89541  0.35891  0.78431  1.0000
  C   C3456     1.0  0.61265  0.28103  0.86816  1.0000
  H   H3447     1.0  0.63027  0.28093  0.86207  1.0000
  C   C3457     1.0  0.68347  0.29332  0.89723  1.0000
  H   H3448     1.0  0.69446  0.43551  0.94245  1.0000
  C   C3458     1.0  0.51119  0.24467  0.87880  1.0000
  H   H3449     1.0  0.59564  0.27915  0.87287  1.0000
  C   C3459     1.0  0.72846  0.39431  0.87703  1.0000
  C   C3460     1.0  0.62502  0.24834  0.87806  1.0000
  C   C3461     1.0  0.62328  0.27781  0.86173  1.0000
  C   C3462     1.0  0.80537  0.38691  0.81879  1.0000
  C   C3463     1.0  0.73831  0.48018  0.89675  1.0000
  H   H3450     1.0  0.59961  0.25515  0.86124  1.0000
  C   C3464     1.0  0.60387  0.27660  0.86784  1.0000
  H   H3451     1.0  0.82471  0.39207  0.80660  1.0000
  H   H3452     1.0  0.81741  0.39201  0.79626  1.0000
  H   H3453     1.0  0.67681  0.44244  0.91072  1.0000
  H   H3454     1.0  0.75477  0.33322  0.91525  1.0000
  C   C3465     1.0  0.74596  0.33432  0.91463  1.0000
  C   C3466     1.0  0.79822  0.37039  0.82827  1.0000
  N   N289      1.0  0.60570  0.26895  0.86155  1.0000
  H   H3455     1.0  0.72651  0.33103  0.97218  1.0000
  H   H3456     1.0  0.79252  0.36611  0.83495  1.0000
  C   C3467     1.0  0.81411  0.37001  0.81281  1.0000
  H   H3457     1.0  0.76068  0.33676  0.89521  1.0000
  H   H3458     1.0  0.63323  0.26770  0.85009  1.0000
  C   C3468     1.0  0.72385  0.38537  0.86510  1.0000
  H   H3459     1.0  0.62104  0.25196  0.88522  1.0000
  C   C3469     1.0  0.86740  0.40872  0.78308  1.0000
  C   C3470     1.0  0.80649  0.36451  0.82106  1.0000
  C   C3471     1.0  0.61600  0.26605  0.85494  1.0000
  H   H3460     1.0  0.82070  0.36529  0.80745  1.0000
  N   N290      1.0  0.71582  0.38139  0.87366  1.0000
  H   H3461     1.0  0.61102  0.27331  0.95992  1.0000
  C   C3472     1.0  0.73642  0.32813  0.90401  1.0000
  H   H3462     1.0  0.72975  0.32694  0.91130  1.0000
  C   C3473     1.0  0.71403  0.38370  0.88386  1.0000
  C   C3474     1.0  0.75300  0.33170  0.88504  1.0000
  H   H3463     1.0  0.75937  0.33346  0.87760  1.0000
  H   H3464     1.0  0.59275  0.26858  0.85433  1.0000
  C   C3475     1.0  0.73559  0.32597  0.89420  1.0000
  S   S1156     1.0  0.86978  0.35938  0.79998  1.0000
  C   C3476     1.0  0.73038  0.39176  0.86669  1.0000
  H   H3465     1.0  0.68026  0.42118  0.91435  1.0000
  H   H3466     1.0  0.57521  0.25170  0.86817  1.0000
  C   C3477     1.0  0.74171  0.46089  0.90619  1.0000
  C   C3478     1.0  0.67722  0.42205  0.92311  1.0000
  C   C3479     1.0  0.96032  0.34868  0.78639  1.0000
  C   C3480     1.0  0.68053  0.44092  0.91778  1.0000
  H   H3467     1.0  0.52494  0.24738  0.88386  1.0000
  H   H3468     1.0  0.54102  0.27753  0.87366  1.0000
  Fe  Fe574     1.0  0.86442  0.35343  0.78766  1.0000
  C   C3481     1.0  0.71451  0.48695  0.91723  1.0000
  C   C3482     1.0  0.74229  0.48276  0.90462  1.0000
  H   H3469     1.0  0.64031  0.24784  0.97435  1.0000
  H   H3470     1.0  0.74856  0.45815  0.93039  1.0000
  C   C3483     1.0  0.64113  0.24429  0.86346  1.0000
  S   S1157     1.0  0.58680  0.23957  0.94843  1.0000
  C   C3484     1.0  0.54531  0.25335  0.94418  1.0000
  Fe  Fe575     1.0  0.87280  0.37379  0.78575  1.0000
  S   S1158     1.0  0.55429  0.24544  0.91594  1.0000
  H   H3471     1.0  0.64965  0.24481  0.85922  1.0000
  C   C3485     1.0  0.55742  0.24544  0.95733  1.0000
  H   H3472     1.0  0.96282  0.35644  0.79816  1.0000
  H   H3473     1.0  0.52800  0.27092  0.86697  1.0000
  H   H3474     1.0  0.98351  0.35091  0.79308  1.0000
  H   H3475     1.0  0.86868  0.40035  0.78810  1.0000
  H   H3476     1.0  0.53932  0.24155  0.93938  1.0000
  H   H3477     1.0  0.95124  0.35107  0.78853  1.0000
  H   H3478     1.0  0.89005  0.41527  0.78493  1.0000
  C   C3486     1.0  0.96682  0.35169  0.79177  1.0000
  H   H3479     1.0  0.73478  0.46708  0.89153  1.0000
  H   H3480     1.0  0.88607  0.40206  0.78989  1.0000
  C   C3487     1.0  0.62405  0.23855  0.86448  1.0000
  S   S1159     1.0  0.86953  0.33596  0.78509  1.0000
  C   C3488     1.0  0.49992  0.24853  0.87796  1.0000
  Fe  Fe576     1.0  0.54221  0.23858  0.91144  1.0000
  C   C3489     1.0  0.88666  0.40924  0.78271  1.0000
  H   H3481     1.0  0.85059  0.40883  0.78236  1.0000
  Fe  Fe577     1.0  0.62420  0.71128  0.13910  1.0000
  S   S1160     1.0  0.61688  0.70039  0.15479  1.0000
  S   S1161     1.0  0.63139  0.72569  0.13860  1.0000
  Fe  Fe578     1.0  0.61822  0.69945  0.12481  1.0000
  S   S1162     1.0  0.61022  0.68780  0.13934  1.0000
  S   S1163     1.0  0.61784  0.69863  0.10780  1.0000
  Fe  Fe579     1.0  0.60269  0.70300  0.14650  1.0000
  S   S1164     1.0  0.58492  0.70934  0.15478  1.0000
  Fe  Fe580     1.0  0.62535  0.68638  0.14589  1.0000
  S   S1165     1.0  0.63441  0.66967  0.15432  1.0000
  S   S1166     1.0  0.60952  0.71477  0.13138  1.0000
  S   S1167     1.0  0.63384  0.69714  0.13078  1.0000
  Fe  Fe581     1.0  0.69203  0.62885  0.13639  1.0000
  S   S1168     1.0  0.70866  0.62456  0.14131  1.0000
  S   S1169     1.0  0.68313  0.64688  0.13153  1.0000
  Fe  Fe582     1.0  0.69352  0.60486  0.13578  1.0000
  S   S1170     1.0  0.71011  0.59859  0.14053  1.0000
  S   S1171     1.0  0.68404  0.59407  0.13257  1.0000
  Fe  Fe583     1.0  0.70289  0.60956  0.15269  1.0000
  S   S1172     1.0  0.70632  0.60289  0.16972  1.0000
  Fe  Fe584     1.0  0.71461  0.61393  0.12872  1.0000
  S   S1173     1.0  0.73243  0.61184  0.11916  1.0000
  S   S1174     1.0  0.68565  0.61471  0.14906  1.0000
  S   S1175     1.0  0.69856  0.61933  0.12275  1.0000
  Fe  Fe585     1.0  0.79584  0.58628  0.16139  1.0000
  S   S1176     1.0  0.78091  0.57903  0.17144  1.0000
  H   H3482     1.0  0.61086  0.70846  0.99671  1.0000
  Fe  Fe586     1.0  0.78613  0.59265  0.14005  1.0000
  S   S1177     1.0  0.77057  0.58635  0.14895  1.0000
  S   S1178     1.0  0.78619  0.60103  0.12193  1.0000
  Fe  Fe587     1.0  0.77067  0.59418  0.16242  1.0000
  H   H3483     1.0  0.55741  0.73320  0.11169  1.0000
  Fe  Fe588     1.0  0.78209  0.57180  0.15699  1.0000
  S   S1179     1.0  0.77994  0.55452  0.15820  1.0000
  S   S1180     1.0  0.78533  0.60196  0.15305  1.0000
  S   S1181     1.0  0.79792  0.57757  0.14742  1.0000
  Fe  Fe589     1.0  0.77076  0.58384  0.07316  1.0000
  S   S1182     1.0  0.75232  0.58542  0.07940  1.0000
  S   S1183     1.0  0.78123  0.57722  0.08637  1.0000
  Fe  Fe590     1.0  0.76858  0.58851  0.04881  1.0000
  S   S1184     1.0  0.74996  0.59060  0.05344  1.0000
  S   S1185     1.0  0.77683  0.58976  0.03061  1.0000
  Fe  Fe591     1.0  0.75084  0.60013  0.06526  1.0000
  S   S1186     1.0  0.73736  0.61494  0.06849  1.0000
  Fe  Fe592     1.0  0.75330  0.57579  0.06699  1.0000
  S   S1187     1.0  0.74393  0.56224  0.07175  1.0000
  S   S1188     1.0  0.76933  0.59943  0.05968  1.0000
  S   S1189     1.0  0.77192  0.57287  0.06160  1.0000
  Fe  Fe593     1.0  0.72165  0.53660  0.12774  1.0000
  S   S1190     1.0  0.73622  0.54301  0.12781  1.0000
  S   S1191     1.0  0.70772  0.54769  0.11973  1.0000
  Fe  Fe594     1.0  0.73066  0.51313  0.13966  1.0000
  S   S1192     1.0  0.74593  0.51786  0.14133  1.0000
  C   C3490     1.0  0.58281  0.71654  0.10620  1.0000
  Fe  Fe595     1.0  0.73433  0.53363  0.14543  1.0000
  S   S1193     1.0  0.73446  0.54425  0.15689  1.0000
  Fe  Fe596     1.0  0.74651  0.52689  0.12372  1.0000
  S   S1194     1.0  0.76243  0.52746  0.11101  1.0000
  S   S1195     1.0  0.71886  0.52806  0.14570  1.0000
  S   S1196     1.0  0.73212  0.52133  0.12170  1.0000
  H   H3484     1.0  0.62496  0.67679  0.12149  1.0000
  S   S1197     1.0  0.52126  0.73621  0.12128  1.0000
  S   S1198     1.0  0.75830  0.56434  0.00560  1.0000
  S   S1199     1.0  0.81008  0.58402  0.17049  1.0000
  S   S1200     1.0  0.54794  0.71397  0.12841  1.0000
  C   C3491     1.0  0.81215  0.60299  0.17623  1.0000
  H   H3485     1.0  0.73967  0.59586  0.99477  1.0000
  N   N291      1.0  0.84795  0.59630  0.17025  1.0000
  S   S1201     1.0  0.52122  0.72956  0.14800  1.0000
  H   H3486     1.0  0.62667  0.66046  0.13724  1.0000
  C   C3492     1.0  0.68785  0.57120  0.15542  1.0000
  C   C3493     1.0  0.66156  0.64426  0.11913  1.0000
  C   C3494     1.0  0.66290  0.69202  0.14586  1.0000
  C   C3495     1.0  0.57179  0.73379  0.11698  1.0000
  H   H3487     1.0  0.61679  0.72048  0.16019  1.0000
  C   C3496     1.0  0.76390  0.57129  0.01228  1.0000
  C   C3497     1.0  0.76182  0.56880  0.02391  1.0000
  C   C3498     1.0  0.76576  0.57441  0.02957  1.0000
  C   C3499     1.0  0.77208  0.58238  0.02364  1.0000
  C   C3500     1.0  0.77444  0.58467  0.01200  1.0000
  C   C3501     1.0  0.77023  0.57927  0.00633  1.0000
  H   H3488     1.0  0.75701  0.56258  0.02858  1.0000
  H   H3489     1.0  0.76393  0.57250  0.03854  1.0000
  H   H3490     1.0  0.77934  0.59081  0.00735  1.0000
  H   H3491     1.0  0.77196  0.58122  0.99738  1.0000
  C   C3502     1.0  0.74982  0.55188  0.08185  1.0000
  C   C3503     1.0  0.74510  0.54261  0.08706  1.0000
  C   C3504     1.0  0.74925  0.53483  0.09581  1.0000
  C   C3505     1.0  0.75838  0.53610  0.09906  1.0000
  C   C3506     1.0  0.76348  0.54504  0.09345  1.0000
  C   C3507     1.0  0.75902  0.55306  0.08505  1.0000
  H   H3492     1.0  0.73813  0.54154  0.08447  1.0000
  H   H3493     1.0  0.74544  0.52781  0.09999  1.0000
  H   H3494     1.0  0.77058  0.54602  0.09590  1.0000
  H   H3495     1.0  0.76262  0.56024  0.08123  1.0000
  C   C3508     1.0  0.76752  0.55242  0.15626  1.0000
  C   C3509     1.0  0.75762  0.56061  0.15692  1.0000
  C   C3510     1.0  0.74756  0.55818  0.15666  1.0000
  C   C3511     1.0  0.74738  0.54764  0.15554  1.0000
  C   C3512     1.0  0.75736  0.53965  0.15434  1.0000
  C   C3513     1.0  0.76737  0.54200  0.15483  1.0000
  H   H3496     1.0  0.75760  0.56865  0.15809  1.0000
  C   C3514     1.0  0.65287  0.68056  0.16093  1.0000
  H   H3497     1.0  0.75730  0.53148  0.15350  1.0000
  H   H3498     1.0  0.77498  0.53562  0.15430  1.0000
  C   C3515     1.0  0.78427  0.59429  0.11240  1.0000
  C   C3516     1.0  0.78034  0.60071  0.10288  1.0000
  C   C3517     1.0  0.77891  0.59562  0.09505  1.0000
  C   C3518     1.0  0.78177  0.58404  0.09648  1.0000
  C   C3519     1.0  0.78567  0.57763  0.10600  1.0000
  C   C3520     1.0  0.78675  0.58270  0.11400  1.0000
  H   H3499     1.0  0.77844  0.60968  0.10150  1.0000
  H   H3500     1.0  0.77594  0.60068  0.08775  1.0000
  H   H3501     1.0  0.78794  0.56867  0.10717  1.0000
  H   H3502     1.0  0.78984  0.57764  0.12124  1.0000
  C   C3521     1.0  0.73388  0.61397  0.10483  1.0000
  C   C3522     1.0  0.74435  0.61034  0.09831  1.0000
  C   C3523     1.0  0.74548  0.61096  0.08704  1.0000
  C   C3524     1.0  0.73619  0.61547  0.08220  1.0000
  C   C3525     1.0  0.72582  0.61962  0.08857  1.0000
  C   C3526     1.0  0.72465  0.61881  0.09992  1.0000
  H   H3503     1.0  0.75159  0.60690  0.10195  1.0000
  H   H3504     1.0  0.75356  0.60794  0.08208  1.0000
  H   H3505     1.0  0.71863  0.62317  0.08481  1.0000
  H   H3506     1.0  0.71662  0.62191  0.10482  1.0000
  C   C3527     1.0  0.69153  0.58172  0.12817  1.0000
  C   C3528     1.0  0.70221  0.57639  0.13017  1.0000
  C   C3529     1.0  0.70728  0.56584  0.12775  1.0000
  C   C3530     1.0  0.70188  0.56087  0.12287  1.0000
  C   C3531     1.0  0.69143  0.56642  0.12051  1.0000
  C   C3532     1.0  0.68620  0.57670  0.12333  1.0000
  H   H3507     1.0  0.70634  0.58016  0.13402  1.0000
  H   H3508     1.0  0.71532  0.56155  0.12970  1.0000
  H   H3509     1.0  0.68721  0.56262  0.11676  1.0000
  H   H3510     1.0  0.67794  0.58075  0.12179  1.0000
  C   C3533     1.0  0.72011  0.60243  0.17018  1.0000
  H   H3511     1.0  0.58829  0.72839  0.16393  1.0000
  H   H3512     1.0  0.73987  0.56442  0.15757  1.0000
  C   C3534     1.0  0.71490  0.49483  0.13250  1.0000
  C   C3535     1.0  0.74010  0.59987  0.16204  1.0000
  C   C3536     1.0  0.72916  0.60007  0.16141  1.0000
  C   C3537     1.0  0.60845  0.71669  0.99126  1.0000
  H   H3513     1.0  0.50300  0.73115  0.11333  1.0000
  H   H3514     1.0  0.56225  0.72167  0.15645  1.0000
  H   H3515     1.0  0.72772  0.59843  0.15415  1.0000
  C   C3538     1.0  0.63333  0.66096  0.12984  1.0000
  C   C3539     1.0  0.70195  0.57614  0.16132  1.0000
  H   H3516     1.0  0.61512  0.71736  0.98357  1.0000
  C   C3540     1.0  0.69084  0.55307  0.15084  1.0000
  H   H3517     1.0  0.75850  0.61568  0.00108  1.0000
  C   C3541     1.0  0.64785  0.66327  0.14780  1.0000
  C   C3542     1.0  0.65374  0.66880  0.13791  1.0000
  C   C3543     1.0  0.66451  0.66360  0.13302  1.0000
  C   C3544     1.0  0.66948  0.65282  0.13794  1.0000
  C   C3545     1.0  0.66355  0.64720  0.14775  1.0000
  C   C3546     1.0  0.65279  0.65245  0.15270  1.0000
  H   H3518     1.0  0.65006  0.67708  0.13404  1.0000
  H   H3519     1.0  0.66904  0.66797  0.12539  1.0000
  H   H3520     1.0  0.66732  0.63889  0.15160  1.0000
  H   H3521     1.0  0.64827  0.64811  0.16035  1.0000
  C   C3547     1.0  0.61975  0.71138  0.09899  1.0000
  C   C3548     1.0  0.62650  0.71731  0.10093  1.0000
  Fe  Fe597     1.0  0.75652  0.57072  0.98776  1.0000
  C   C3549     1.0  0.56564  0.71620  0.10136  1.0000
  H   H3522     1.0  0.63627  0.68837  0.16853  1.0000
  C   C3550     1.0  0.61407  0.71590  0.09033  1.0000
  H   H3523     1.0  0.63088  0.71384  0.10764  1.0000
  H   H3524     1.0  0.74703  0.59820  0.15521  1.0000
  H   H3525     1.0  0.50440  0.73379  0.09850  1.0000
  H   H3526     1.0  0.60880  0.71135  0.08884  1.0000
  C   C3551     1.0  0.57485  0.71053  0.14723  1.0000
  C   C3552     1.0  0.64117  0.67093  0.11178  1.0000
  C   C3553     1.0  0.55597  0.71828  0.14415  1.0000
  C   C3554     1.0  0.55825  0.71245  0.13577  1.0000
  C   C3555     1.0  0.56888  0.70567  0.13308  1.0000
  C   C3556     1.0  0.57723  0.70483  0.13871  1.0000
  C   C3557     1.0  0.81409  0.59136  0.17841  1.0000
  C   C3558     1.0  0.84114  0.59970  0.16282  1.0000
  H   H3527     1.0  0.57066  0.70109  0.12665  1.0000
  H   H3528     1.0  0.58541  0.69959  0.13661  1.0000
  C   C3559     1.0  0.74190  0.60235  0.17130  1.0000
  C   C3560     1.0  0.70885  0.56576  0.16032  1.0000
  H   H3529     1.0  0.72037  0.49474  0.10347  1.0000
  H   H3530     1.0  0.71239  0.50372  0.13185  1.0000
  H   H3531     1.0  0.83842  0.60847  0.15940  1.0000
  H   H3532     1.0  0.71935  0.58039  0.07838  1.0000
  H   H3533     1.0  0.58740  0.73190  0.12158  1.0000
  C   C3561     1.0  0.67195  0.67254  0.15194  1.0000
  C   C3562     1.0  0.57041  0.73034  0.16994  1.0000
  N   N292      1.0  0.60682  0.72565  0.99700  1.0000
  S   S1202     1.0  0.72981  0.49482  0.14479  1.0000
  N   N293      1.0  0.57172  0.72108  0.10631  1.0000
  N   N294      1.0  0.75973  0.57769  0.12078  1.0000
  C   C3563     1.0  0.75670  0.57686  0.11166  1.0000
  C   C3564     1.0  0.76411  0.56834  0.12778  1.0000
  C   C3565     1.0  0.75798  0.56645  0.10939  1.0000
  C   C3566     1.0  0.76544  0.55781  0.12579  1.0000
  C   C3567     1.0  0.76229  0.55687  0.11657  1.0000
  C   C3568     1.0  0.75777  0.58863  0.12334  1.0000
  H   H3534     1.0  0.75343  0.58429  0.10600  1.0000
  H   H3535     1.0  0.76672  0.56899  0.13489  1.0000
  H   H3536     1.0  0.75577  0.56581  0.10204  1.0000
  H   H3537     1.0  0.76892  0.55040  0.13133  1.0000
  H   H3538     1.0  0.76327  0.54871  0.11499  1.0000
  H   H3539     1.0  0.75963  0.59497  0.11567  1.0000
  H   H3540     1.0  0.74891  0.59115  0.12761  1.0000
  H   H3541     1.0  0.76335  0.58864  0.12862  1.0000
  H   H3542     1.0  0.66938  0.66442  0.15526  1.0000
  C   C3569     1.0  0.63242  0.67019  0.12109  1.0000
  C   C3570     1.0  0.65397  0.70118  0.14696  1.0000
  H   H3543     1.0  0.67974  0.57355  0.15323  1.0000
  C   C3571     1.0  0.49874  0.73163  0.10667  1.0000
  H   H3544     1.0  0.66256  0.63898  0.12740  1.0000
  H   H3545     1.0  0.72831  0.59520  0.09997  1.0000
  C   C3572     1.0  0.61665  0.72925  0.15811  1.0000
  H   H3546     1.0  0.58716  0.70972  0.10210  1.0000
  C   C3573     1.0  0.58040  0.73412  0.16614  1.0000
  H   H3547     1.0  0.73578  0.57960  0.00879  1.0000
  H   H3548     1.0  0.63318  0.73211  0.09541  1.0000
  H   H3549     1.0  0.80722  0.60788  0.17021  1.0000
  H   H3550     1.0  0.55704  0.72122  0.10116  1.0000
  N   N295      1.0  0.74143  0.59268  0.01148  1.0000
  C   C3574     1.0  0.74545  0.59570  0.01882  1.0000
  C   C3575     1.0  0.74306  0.59804  0.00056  1.0000
  C   C3576     1.0  0.75163  0.60402  0.01520  1.0000
  C   C3577     1.0  0.74922  0.60639  0.99666  1.0000
  C   C3578     1.0  0.75358  0.60933  0.00403  1.0000
  C   C3579     1.0  0.73489  0.58400  0.01544  1.0000
  H   H3551     1.0  0.74417  0.59145  0.02748  1.0000
  C   C3580     1.0  0.62188  0.73232  0.08555  1.0000
  H   H3552     1.0  0.75515  0.60609  0.02099  1.0000
  Fe  Fe598     1.0  0.53389  0.72849  0.13197  1.0000
  H   H3553     1.0  0.68494  0.55737  0.14524  1.0000
  H   H3554     1.0  0.72593  0.58771  0.01830  1.0000
  H   H3555     1.0  0.54715  0.73426  0.16778  1.0000
  H   H3556     1.0  0.73799  0.57753  0.02233  1.0000
  N   N296      1.0  0.74391  0.62504  0.14296  1.0000
  C   C3581     1.0  0.74164  0.62629  0.13282  1.0000
  C   C3582     1.0  0.75473  0.62178  0.14431  1.0000
  C   C3583     1.0  0.75032  0.62432  0.12369  1.0000
  C   C3584     1.0  0.76359  0.61966  0.13536  1.0000
  C   C3585     1.0  0.76134  0.62098  0.12499  1.0000
  C   C3586     1.0  0.73466  0.62769  0.15223  1.0000
  H   H3557     1.0  0.73308  0.62875  0.13174  1.0000
  H   H3558     1.0  0.75658  0.62076  0.15233  1.0000
  H   H3559     1.0  0.74848  0.62526  0.11568  1.0000
  H   H3560     1.0  0.77216  0.61700  0.13640  1.0000
  H   H3561     1.0  0.76814  0.61937  0.11799  1.0000
  H   H3562     1.0  0.73120  0.63679  0.15080  1.0000
  H   H3563     1.0  0.72790  0.62336  0.15308  1.0000
  H   H3564     1.0  0.73739  0.62498  0.16025  1.0000
  N   N297      1.0  0.79920  0.56940  0.05442  1.0000
  C   C3587     1.0  0.79815  0.57687  0.04465  1.0000
  C   C3588     1.0  0.80036  0.57275  0.06320  1.0000
  C   C3589     1.0  0.79791  0.58809  0.04362  1.0000
  C   C3590     1.0  0.80015  0.58391  0.06245  1.0000
  C   C3591     1.0  0.79887  0.59162  0.05260  1.0000
  C   C3592     1.0  0.79928  0.55769  0.05544  1.0000
  H   H3565     1.0  0.79711  0.57428  0.03769  1.0000
  H   H3566     1.0  0.80107  0.56688  0.07100  1.0000
  H   H3567     1.0  0.79664  0.59404  0.03598  1.0000
  H   H3568     1.0  0.80060  0.58657  0.06962  1.0000
  H   H3569     1.0  0.79840  0.60035  0.05201  1.0000
  H   H3570     1.0  0.79444  0.55680  0.04983  1.0000
  H   H3571     1.0  0.80802  0.55294  0.05339  1.0000
  H   H3572     1.0  0.79523  0.55397  0.06400  1.0000
  H   H3573     1.0  0.70481  0.58210  0.16390  1.0000
  H   H3574     1.0  0.83133  0.59471  0.15443  1.0000
  C   C3593     1.0  0.64380  0.68953  0.16225  1.0000
  H   H3575     1.0  0.65437  0.70923  0.14140  1.0000
  H   H3576     1.0  0.72947  0.57719  0.11376  1.0000
  H   H3577     1.0  0.64047  0.67815  0.10498  1.0000
  H   H3578     1.0  0.85648  0.58255  0.18073  1.0000
  C   C3594     1.0  0.84028  0.58070  0.16457  1.0000
  H   H3579     1.0  0.54866  0.73611  0.08469  1.0000
  N   N298      1.0  0.65158  0.65330  0.11995  1.0000
  H   H3580     1.0  0.68607  0.58707  0.15928  1.0000
  H   H3581     1.0  0.70945  0.56152  0.09489  1.0000
  H   H3582     1.0  0.72266  0.55248  0.09670  1.0000
  C   C3595     1.0  0.59958  0.72546  0.00710  1.0000
  H   H3583     1.0  0.56485  0.70777  0.10637  1.0000
  C   C3596     1.0  0.85116  0.58524  0.17477  1.0000
  N   N299      1.0  0.66226  0.68187  0.15280  1.0000
  C   C3597     1.0  0.64442  0.69992  0.15528  1.0000
  H   H3584     1.0  0.66928  0.64764  0.11553  1.0000
  H   H3585     1.0  0.72345  0.59672  0.08210  1.0000
  H   H3586     1.0  0.67635  0.67266  0.14315  1.0000
  C   C3598     1.0  0.56420  0.71725  0.14991  1.0000
  C   C3599     1.0  0.64298  0.65248  0.12909  1.0000
  H   H3587     1.0  0.69795  0.54781  0.14604  1.0000
  H   H3588     1.0  0.66104  0.63892  0.11386  1.0000
  C   C3600     1.0  0.54993  0.73365  0.17545  1.0000
  H   H3589     1.0  0.63748  0.70699  0.15625  1.0000
  C   C3601     1.0  0.65074  0.66234  0.11133  1.0000
  H   H3590     1.0  0.71713  0.56354  0.16210  1.0000
  H   H3591     1.0  0.60524  0.73221  0.17341  1.0000
  H   H3592     1.0  0.77161  0.54156  0.18000  1.0000
  H   H3593     1.0  0.59733  0.71665  0.11171  1.0000
  H   H3594     1.0  0.59495  0.71889  0.01072  1.0000
  H   H3595     1.0  0.67790  0.67294  0.15665  1.0000
  N   N300      1.0  0.69472  0.56108  0.15435  1.0000
  H   H3596     1.0  0.54777  0.72344  0.14634  1.0000
  C   C3602     1.0  0.58304  0.72906  0.11711  1.0000
  H   H3597     1.0  0.72116  0.56016  0.08311  1.0000
  C   C3603     1.0  0.62317  0.73392  0.14814  1.0000
  H   H3598     1.0  0.70308  0.49440  0.12342  1.0000
  H   H3599     1.0  0.67033  0.69308  0.13942  1.0000
  C   C3604     1.0  0.84734  0.57728  0.17204  1.0000
  C   C3605     1.0  0.61496  0.72647  0.08375  1.0000
  C   C3606     1.0  0.58862  0.72044  0.11161  1.0000
  H   H3600     1.0  0.72562  0.56102  0.10955  1.0000
  C   C3607     1.0  0.69140  0.57891  0.15883  1.0000
  C   C3608     1.0  0.85220  0.60450  0.17305  1.0000
  C   C3609     1.0  0.72203  0.60452  0.17953  1.0000
  H   H3601     1.0  0.57007  0.71575  0.09269  1.0000
  C   C3610     1.0  0.70505  0.55826  0.15686  1.0000
  H   H3602     1.0  0.64365  0.64538  0.13598  1.0000
  H   H3603     1.0  0.83680  0.57471  0.16274  1.0000
  H   H3604     1.0  0.65223  0.67247  0.16630  1.0000
  H   H3605     1.0  0.71050  0.55022  0.15606  1.0000
  H   H3606     1.0  0.73070  0.48912  0.09238  1.0000
  H   H3607     1.0  0.65752  0.66296  0.10406  1.0000
  N   N301      1.0  0.72211  0.56984  0.09382  1.0000
  C   C3611     1.0  0.72152  0.57969  0.08617  1.0000
  C   C3612     1.0  0.72512  0.56886  0.10353  1.0000
  C   C3613     1.0  0.72380  0.58894  0.08823  1.0000
  C   C3614     1.0  0.72736  0.57795  0.10592  1.0000
  C   C3615     1.0  0.72663  0.58806  0.09823  1.0000
  C   C3616     1.0  0.71866  0.56058  0.09201  1.0000
  S   S1203     1.0  0.75512  0.60343  0.17209  1.0000
  H   H3608     1.0  0.68663  0.54761  0.15818  1.0000
  C   C3617     1.0  0.56623  0.72968  0.11150  1.0000
  H   H3609     1.0  0.81560  0.61730  0.17949  1.0000
  H   H3610     1.0  0.84956  0.56856  0.17592  1.0000
  H   H3611     1.0  0.73321  0.50017  0.11052  1.0000
  C   C3618     1.0  0.62776  0.72767  0.09405  1.0000
  C   C3619     1.0  0.83720  0.59197  0.15988  1.0000
  C   C3620     1.0  0.73773  0.49158  0.11196  1.0000
  C   C3621     1.0  0.59791  0.73380  0.01285  1.0000
  H   H3612     1.0  0.57071  0.72162  0.17069  1.0000
  H   H3613     1.0  0.61041  0.73003  0.07719  1.0000
  C   C3622     1.0  0.70964  0.48952  0.12771  1.0000
  H   H3614     1.0  0.84603  0.61257  0.17276  1.0000
  H   H3615     1.0  0.86021  0.60578  0.16723  1.0000
  H   H3616     1.0  0.85352  0.60177  0.18168  1.0000
  H   H3617     1.0  0.76059  0.53601  0.17906  1.0000
  H   H3618     1.0  0.74747  0.49449  0.12187  1.0000
  N   N302      1.0  0.56041  0.73753  0.17253  1.0000
  C   C3623     1.0  0.73284  0.60468  0.18000  1.0000
  C   C3624     1.0  0.61012  0.73590  0.16562  1.0000
  C   C3625     1.0  0.61231  0.73419  0.99225  1.0000
  H   H3619     1.0  0.55098  0.72488  0.18015  1.0000
  H   H3620     1.0  0.75059  0.61049  0.98794  1.0000
  H   H3621     1.0  0.59207  0.73369  0.02080  1.0000
  H   H3622     1.0  0.61786  0.73451  0.98412  1.0000
  S   S1204     1.0  0.57955  0.73570  0.99001  1.0000
  H   H3623     1.0  0.60060  0.71709  0.98883  1.0000
  S   S1205     1.0  0.73923  0.57739  0.98438  1.0000
  H   H3624     1.0  0.49873  0.71659  0.13504  1.0000
  C   C3626     1.0  0.81700  0.60833  0.18147  1.0000
  C   C3627     1.0  0.72313  0.48857  0.13839  1.0000
  C   C3628     1.0  0.74585  0.48843  0.11834  1.0000
  H   H3625     1.0  0.75542  0.57878  0.18157  1.0000
  H   H3626     1.0  0.73531  0.58088  0.18198  1.0000
  C   C3629     1.0  0.75219  0.57156  0.18217  1.0000
  H   H3627     1.0  0.88872  0.51672  0.25073  1.0000
  Fe  Fe599     1.0  0.95473  0.59574  0.23471  1.0000
  S   S1206     1.0  0.95725  0.58049  0.24816  1.0000
  S   S1207     1.0  0.97075  0.60197  0.22642  1.0000
  Fe  Fe600     1.0  0.92925  0.59712  0.23907  1.0000
  S   S1208     1.0  0.93014  0.58238  0.25324  1.0000
  S   S1209     1.0  0.91114  0.60487  0.23775  1.0000
  Fe  Fe601     1.0  0.94186  0.58960  0.25788  1.0000
  S   S1210     1.0  0.94089  0.59082  0.27512  1.0000
  Fe  Fe602     1.0  0.94540  0.57487  0.24195  1.0000
  S   S1211     1.0  0.94653  0.55763  0.24035  1.0000
  S   S1212     1.0  0.93972  0.60520  0.24481  1.0000
  S   S1213     1.0  0.94411  0.58923  0.22738  1.0000
  Fe  Fe603     1.0  0.87619  0.55269  0.27378  1.0000
  S   S1214     1.0  0.89330  0.55136  0.26284  1.0000
  S   S1215     1.0  0.86722  0.57042  0.27503  1.0000
  Fe  Fe604     1.0  0.87791  0.52739  0.27840  1.0000
  S   S1216     1.0  0.89553  0.52431  0.26843  1.0000
  S   S1217     1.0  0.87050  0.51206  0.28595  1.0000
  Fe  Fe605     1.0  0.89808  0.53682  0.27623  1.0000
  S   S1218     1.0  0.91301  0.53700  0.28210  1.0000
  Fe  Fe606     1.0  0.88891  0.53907  0.25622  1.0000
  S   S1219     1.0  0.89282  0.53903  0.23814  1.0000
  S   S1220     1.0  0.88111  0.53860  0.28759  1.0000
  S   S1221     1.0  0.87113  0.54172  0.26577  1.0000
  C   C3630     1.0  0.85902  0.49446  0.26565  1.0000
  Fe  Fe607     1.0  0.87271  0.63850  0.30332  1.0000
  S   S1222     1.0  0.87525  0.64635  0.28504  1.0000
  S   S1223     1.0  0.86834  0.65062  0.31512  1.0000
  Fe  Fe608     1.0  0.87883  0.61498  0.29802  1.0000
  S   S1224     1.0  0.88277  0.62141  0.27968  1.0000
  S   S1225     1.0  0.88055  0.59628  0.30352  1.0000
  Fe  Fe609     1.0  0.89074  0.63295  0.28366  1.0000
  S   S1226     1.0  0.90708  0.63682  0.27355  1.0000
  Fe  Fe610     1.0  0.86682  0.63387  0.28297  1.0000
  S   S1227     1.0  0.85421  0.63788  0.27205  1.0000
  S   S1228     1.0  0.88853  0.62538  0.30183  1.0000
  S   S1229     1.0  0.86250  0.62728  0.30141  1.0000
  Fe  Fe611     1.0  0.84174  0.60281  0.20760  1.0000
  S   S1230     1.0  0.83414  0.59587  0.22529  1.0000
  S   S1231     1.0  0.83059  0.60938  0.19466  1.0000
  Fe  Fe612     1.0  0.86545  0.59626  0.21280  1.0000
  S   S1232     1.0  0.85938  0.58799  0.23034  1.0000
  S   S1233     1.0  0.88424  0.59514  0.20745  1.0000
  Fe  Fe613     1.0  0.84864  0.58153  0.22347  1.0000
  S   S1234     1.0  0.84569  0.56425  0.22964  1.0000
  Fe  Fe614     1.0  0.84562  0.60321  0.23060  1.0000
  S   S1235     1.0  0.84026  0.60897  0.24704  1.0000
  S   S1236     1.0  0.85606  0.58813  0.20574  1.0000
  S   S1237     1.0  0.85189  0.61188  0.21300  1.0000
  Fe  Fe615     1.0  0.89037  0.70263  0.35356  1.0000
  S   S1238     1.0  0.88124  0.68862  0.36100  1.0000
  S   S1239     1.0  0.88198  0.72055  0.34847  1.0000
  Fe  Fe616     1.0  0.91282  0.68826  0.35685  1.0000
  S   S1240     1.0  0.90554  0.67310  0.36453  1.0000
  S   S1241     1.0  0.93047  0.68763  0.35767  1.0000
  Fe  Fe617     1.0  0.89593  0.67862  0.35079  1.0000
  S   S1242     1.0  0.89614  0.66477  0.34218  1.0000
  H   H3628     1.0  0.90480  0.67438  0.31740  1.0000
  S   S1243     1.0  0.90442  0.69312  0.34242  1.0000
  S   S1244     1.0  0.89960  0.69897  0.36712  1.0000
  C   C3631     1.0  0.87404  0.64044  0.24520  1.0000
  C   C3632     1.0  0.89635  0.66833  0.30440  1.0000
  C   C3633     1.0  0.86842  0.66268  0.36315  1.0000
  H   H3629     1.0  0.87737  0.71096  0.37193  1.0000
  N   N303      1.0  0.89661  0.63345  0.24589  1.0000
  H   H3630     1.0  0.97056  0.61121  0.26776  1.0000
  H   H3631     1.0  0.96370  0.60019  0.26045  1.0000
  C   C3634     1.0  0.89272  0.63070  0.23828  1.0000
  C   C3635     1.0  0.93383  0.70057  0.35597  1.0000
  C   C3636     1.0  0.92726  0.71045  0.35120  1.0000
  C   C3637     1.0  0.92997  0.72069  0.35009  1.0000
  C   C3638     1.0  0.93900  0.72115  0.35411  1.0000
  C   C3639     1.0  0.94538  0.71129  0.35918  1.0000
  C   C3640     1.0  0.94290  0.70101  0.35995  1.0000
  H   H3632     1.0  0.92029  0.71017  0.34807  1.0000
  H   H3633     1.0  0.92515  0.72829  0.34601  1.0000
  H   H3634     1.0  0.95242  0.71157  0.36220  1.0000
  H   H3635     1.0  0.94799  0.69339  0.36368  1.0000
  H   H3636     1.0  0.92586  0.57436  0.23464  1.0000
  H   H3637     1.0  0.90912  0.62121  0.25306  1.0000
  H   H3638     1.0  0.92433  0.55093  0.21707  1.0000
  C   C3641     1.0  0.88024  0.64530  0.36046  1.0000
  H   H3639     1.0  0.82636  0.49496  0.28982  1.0000
  C   C3642     1.0  0.90932  0.57289  0.23469  1.0000
  N   N304      1.0  0.90669  0.66340  0.30670  1.0000
  H   H3640     1.0  0.91397  0.66120  0.32041  1.0000
  C   C3643     1.0  0.98753  0.61764  0.24379  1.0000
  C   C3644     1.0  0.90850  0.56002  0.22487  1.0000
  H   H3641     1.0  0.87831  0.63167  0.23196  1.0000
  H   H3642     1.0  0.93553  0.56042  0.22310  1.0000
  C   C3645     1.0  0.87646  0.65459  0.32224  1.0000
  C   C3646     1.0  0.88658  0.64787  0.32467  1.0000
  C   C3647     1.0  0.89244  0.65117  0.33071  1.0000
  C   C3648     1.0  0.88840  0.66128  0.33432  1.0000
  C   C3649     1.0  0.87841  0.66811  0.33169  1.0000
  C   C3650     1.0  0.87245  0.66472  0.32581  1.0000
  H   H3643     1.0  0.88981  0.64005  0.32204  1.0000
  H   H3644     1.0  0.90015  0.64578  0.33266  1.0000
  H   H3645     1.0  0.87515  0.67592  0.33434  1.0000
  H   H3646     1.0  0.86465  0.67002  0.32400  1.0000
  C   C3651     1.0  0.85193  0.63001  0.26369  1.0000
  C   C3652     1.0  0.84231  0.63407  0.25928  1.0000
  C   C3653     1.0  0.83937  0.62793  0.25339  1.0000
  C   C3654     1.0  0.84613  0.61772  0.25147  1.0000
  C   C3655     1.0  0.85606  0.61375  0.25552  1.0000
  C   C3656     1.0  0.85896  0.61987  0.26162  1.0000
  H   H3647     1.0  0.83681  0.64186  0.26078  1.0000
  H   H3648     1.0  0.83156  0.63098  0.25062  1.0000
  H   H3649     1.0  0.86124  0.60574  0.25435  1.0000
  H   H3650     1.0  0.86643  0.61662  0.26495  1.0000
  C   C3657     1.0  0.88007  0.54425  0.23397  1.0000
  C   C3658     1.0  0.87061  0.54013  0.24024  1.0000
  C   C3659     1.0  0.85999  0.54578  0.23830  1.0000
  C   C3660     1.0  0.85887  0.55573  0.23035  1.0000
  C   C3661     1.0  0.86838  0.55946  0.22368  1.0000
  C   C3662     1.0  0.87900  0.55357  0.22531  1.0000
  H   H3651     1.0  0.87143  0.53279  0.24681  1.0000
  H   H3652     1.0  0.85263  0.54279  0.24334  1.0000
  H   H3653     1.0  0.86757  0.56705  0.21742  1.0000
  H   H3654     1.0  0.88625  0.55667  0.22024  1.0000
  C   C3663     1.0  0.87248  0.57725  0.28211  1.0000
  C   C3664     1.0  0.87667  0.57154  0.29158  1.0000
  C   C3665     1.0  0.87931  0.57744  0.29797  1.0000
  C   C3666     1.0  0.87791  0.58905  0.29487  1.0000
  C   C3667     1.0  0.87406  0.59469  0.28519  1.0000
  C   C3668     1.0  0.87138  0.58881  0.27884  1.0000
  H   H3655     1.0  0.87749  0.56263  0.29424  1.0000
  H   H3656     1.0  0.88222  0.57300  0.30547  1.0000
  H   H3657     1.0  0.87271  0.60361  0.28279  1.0000
  H   H3658     1.0  0.86817  0.59330  0.27152  1.0000
  C   C3669     1.0  0.86656  0.50548  0.27762  1.0000
  C   C3670     1.0  0.86201  0.51151  0.26842  1.0000
  C   C3671     1.0  0.85808  0.50603  0.26258  1.0000
  H   H3659     1.0  0.82231  0.57627  0.18800  1.0000
  C   C3672     1.0  0.92645  0.56251  0.22533  1.0000
  H   H3660     1.0  0.89508  0.65129  0.28884  1.0000
  H   H3661     1.0  0.86119  0.52042  0.26602  1.0000
  H   H3662     1.0  0.85428  0.51079  0.25568  1.0000
  H   H3663     1.0  0.91839  0.67160  0.30836  1.0000
  C   C3673     1.0  0.89134  0.49935  0.25894  1.0000
  C   C3674     1.0  0.93240  0.60391  0.27604  1.0000
  C   C3675     1.0  0.93549  0.61344  0.26872  1.0000
  C   C3676     1.0  0.92784  0.62370  0.26820  1.0000
  C   C3677     1.0  0.91704  0.62432  0.27484  1.0000
  C   C3678     1.0  0.91406  0.61481  0.28226  1.0000
  C   C3679     1.0  0.92180  0.60467  0.28301  1.0000
  H   H3664     1.0  0.94369  0.61286  0.26327  1.0000
  H   H3665     1.0  0.93016  0.63102  0.26241  1.0000
  H   H3666     1.0  0.90573  0.61513  0.28727  1.0000
  H   H3667     1.0  0.91944  0.59731  0.28867  1.0000
  C   C3680     1.0  0.90390  0.60182  0.22934  1.0000
  C   C3681     1.0  0.90951  0.59768  0.21982  1.0000
  C   C3682     1.0  0.90339  0.59566  0.21320  1.0000
  C   C3683     1.0  0.89163  0.59771  0.21605  1.0000
  C   C3684     1.0  0.88604  0.60172  0.22567  1.0000
  C   C3685     1.0  0.89214  0.60382  0.23223  1.0000
  H   H3668     1.0  0.91855  0.59618  0.21745  1.0000
  H   H3669     1.0  0.90779  0.59257  0.20579  1.0000
  H   H3670     1.0  0.87699  0.60334  0.22796  1.0000
  H   H3671     1.0  0.88770  0.60700  0.23959  1.0000
  C   C3686     1.0  0.93776  0.55128  0.25207  1.0000
  C   C3687     1.0  0.93703  0.55311  0.26252  1.0000
  C   C3688     1.0  0.92974  0.54832  0.27183  1.0000
  C   C3689     1.0  0.92286  0.54206  0.27063  1.0000
  C   C3690     1.0  0.92350  0.54033  0.26016  1.0000
  C   C3691     1.0  0.93112  0.54474  0.25093  1.0000
  H   H3672     1.0  0.94221  0.55809  0.26344  1.0000
  H   H3673     1.0  0.92933  0.54960  0.27991  1.0000
  H   H3674     1.0  0.91823  0.53546  0.25921  1.0000
  H   H3675     1.0  0.93172  0.54323  0.24289  1.0000
  H   H3676     1.0  0.88024  0.51407  0.23666  1.0000
  C   C3692     1.0  0.87622  0.72660  0.36012  1.0000
  H   H3677     1.0  0.83390  0.49447  0.27573  1.0000
  C   C3693     1.0  0.97660  0.60714  0.23445  1.0000
  C   C3694     1.0  0.97074  0.61654  0.23875  1.0000
  H   H3678     1.0  0.84452  0.62121  0.29250  1.0000
  H   H3679     1.0  0.97374  0.58926  0.25475  1.0000
  N   N305      1.0  0.87771  0.65453  0.36484  1.0000
  H   H3680     1.0  0.90387  0.56068  0.27605  1.0000
  H   H3681     1.0  0.90445  0.56570  0.30167  1.0000
  H   H3682     1.0  0.85688  0.56415  0.26190  1.0000
  H   H3683     1.0  0.92121  0.65043  0.30436  1.0000
  C   C3695     1.0  0.88207  0.49637  0.24307  1.0000
  C   C3696     1.0  0.88138  0.63407  0.23787  1.0000
  C   C3697     1.0  0.90930  0.56327  0.29376  1.0000
  H   H3684     1.0  0.84698  0.55004  0.26163  1.0000
  H   H3685     1.0  0.91839  0.56197  0.29336  1.0000
  C   C3698     1.0  0.97782  0.60458  0.26898  1.0000
  H   H3686     1.0  0.90372  0.55584  0.22219  1.0000
  H   H3687     1.0  0.89824  0.73799  0.33357  1.0000
  H   H3688     1.0  0.84880  0.58419  0.25591  1.0000
  C   C3699     1.0  0.83339  0.56231  0.25548  1.0000
  C   C3700     1.0  0.83433  0.58120  0.25246  1.0000
  N   N306      1.0  0.97892  0.59457  0.26647  1.0000
  Fe  Fe618     1.0  0.89163  0.68435  0.37386  1.0000
  C   C3701     1.0  0.90076  0.57750  0.26679  1.0000
  C   C3702     1.0  0.88312  0.50699  0.24289  1.0000
  C   C3703     1.0  0.82379  0.60219  0.18909  1.0000
  H   H3689     1.0  0.92201  0.69816  0.37676  1.0000
  H   H3690     1.0  0.85417  0.66826  0.35544  1.0000
  H   H3691     1.0  0.96574  0.58638  0.26886  1.0000
  S   S1245     1.0  0.96729  0.72784  0.36937  1.0000
  H   H3692     1.0  0.90277  0.72670  0.35128  1.0000
  H   H3693     1.0  0.72811  0.56434  0.18310  1.0000
  H   H3694     1.0  0.85872  0.65155  0.34738  1.0000
  H   H3695     1.0  0.98961  0.72550  0.37605  1.0000
  H   H3696     1.0  0.89125  0.67544  0.30778  1.0000
  C   C3704     1.0  0.99319  0.60785  0.24011  1.0000
  H   H3697     1.0  0.88774  0.57398  0.22597  1.0000
  C   C3705     1.0  0.84437  0.57799  0.25610  1.0000
  C   C3706     1.0  0.89200  0.66402  0.29798  1.0000
  H   H3698     1.0  0.89836  0.62584  0.23248  1.0000
  C   C3707     1.0  0.86139  0.66169  0.35696  1.0000
  H   H3699     1.0  0.90520  0.57908  0.23962  1.0000
  C   C3708     1.0  0.90371  0.56924  0.27582  1.0000
  C   C3709     1.0  0.87338  0.64403  0.35424  1.0000
  H   H3700     1.0  0.91150  0.63514  0.24935  1.0000
  C   C3710     1.0  0.92101  0.57033  0.23183  1.0000
  C   C3711     1.0  0.83475  0.49271  0.28447  1.0000
  H   H3701     1.0  0.83058  0.58568  0.19737  1.0000
  C   C3712     1.0  0.86390  0.65229  0.35249  1.0000
  H   H3702     1.0  0.89246  0.64176  0.25923  1.0000
  C   C3713     1.0  0.90606  0.58275  0.28399  1.0000
  H   H3703     1.0  0.90792  0.58488  0.29079  1.0000
  C   C3714     1.0  0.98620  0.60655  0.27288  1.0000
  S   S1246     1.0  0.94226  0.73413  0.35233  1.0000
  S   S1247     1.0  0.99445  0.62541  0.24817  1.0000
  C   C3715     1.0  0.97011  0.59251  0.26245  1.0000
  C   C3716     1.0  0.89094  0.57085  0.23374  1.0000
  N   N307      1.0  0.90621  0.57195  0.28432  1.0000
  C   C3717     1.0  0.90062  0.58854  0.26638  1.0000
  H   H3704     1.0  0.98901  0.57833  0.26593  1.0000
  H   H3705     1.0  0.89841  0.59502  0.25939  1.0000
  C   C3718     1.0  0.91120  0.66789  0.31350  1.0000
  H   H3706     1.0  0.90755  0.55520  0.29382  1.0000
  N   N308      1.0  0.90321  0.56786  0.23107  1.0000
  H   H3707     1.0  0.86520  0.64303  0.24507  1.0000
  H   H3708     1.0  0.87243  0.64820  0.25862  1.0000
  C   C3719     1.0  0.87810  0.64333  0.25283  1.0000
  H   H3709     1.0  0.88752  0.56346  0.23870  1.0000
  N   N309      1.0  0.84314  0.59791  0.28581  1.0000
  C   C3720     1.0  0.84700  0.59008  0.29434  1.0000
  C   C3721     1.0  0.84209  0.60897  0.28522  1.0000
  C   C3722     1.0  0.84993  0.59326  0.30257  1.0000
  C   C3723     1.0  0.84506  0.61244  0.29323  1.0000
  C   C3724     1.0  0.84904  0.60451  0.30194  1.0000
  C   C3725     1.0  0.84108  0.59439  0.27675  1.0000
  H   H3710     1.0  0.84831  0.58129  0.29455  1.0000
  H   H3711     1.0  0.83915  0.61517  0.27840  1.0000
  H   H3712     1.0  0.85341  0.58703  0.30908  1.0000
  H   H3713     1.0  0.85172  0.60702  0.30803  1.0000
  H   H3714     1.0  0.83492  0.60089  0.27248  1.0000
  H   H3715     1.0  0.84905  0.59281  0.27057  1.0000
  H   H3716     1.0  0.83781  0.58665  0.27985  1.0000
  H   H3717     1.0  0.99238  0.59546  0.23199  1.0000
  C   C3726     1.0  0.98817  0.58628  0.26789  1.0000
  C   C3727     1.0  0.88785  0.50850  0.25082  1.0000
  C   C3728     1.0  0.89835  0.65474  0.29379  1.0000
  C   C3729     1.0  0.98778  0.60271  0.23533  1.0000
  C   C3730     1.0  0.88503  0.65553  0.37140  1.0000
  H   H3718     1.0  0.91389  0.64261  0.29277  1.0000
  H   H3719     1.0  0.89483  0.50065  0.26518  1.0000
  H   H3720     1.0  0.82949  0.55610  0.25469  1.0000
  N   N310      1.0  0.82904  0.57338  0.25208  1.0000
  H   H3721     1.0  0.83100  0.58997  0.24963  1.0000
  H   H3722     1.0  0.88769  0.57752  0.23852  1.0000
  C   C3731     1.0  0.81919  0.57677  0.24714  1.0000
  H   H3723     1.0  0.90323  0.59974  0.27480  1.0000
  C   C3732     1.0  0.84891  0.56673  0.25944  1.0000
  C   C3733     1.0  0.90833  0.62916  0.24679  1.0000
  C   C3734     1.0  0.97622  0.62182  0.24330  1.0000
  C   C3735     1.0  0.99562  0.59812  0.27441  1.0000
  H   H3724     1.0  0.82180  0.57562  0.23845  1.0000
  C   C3736     1.0  0.90333  0.59119  0.27501  1.0000
  H   H3725     1.0  0.96215  0.62010  0.23801  1.0000
  H   H3726     1.0  0.97175  0.62938  0.24612  1.0000
  C   C3737     1.0  0.91300  0.65431  0.30258  1.0000
  C   C3738     1.0  0.87531  0.71989  0.37079  1.0000
  H   H3727     1.0  0.81289  0.57170  0.25186  1.0000
  C   C3739     1.0  0.88945  0.63966  0.25313  1.0000
  H   H3728     1.0  0.91384  0.62755  0.23877  1.0000
  C   C3740     1.0  0.92018  0.55721  0.22192  1.0000
  H   H3729     1.0  0.81509  0.58565  0.24701  1.0000
  C   C3741     1.0  0.84334  0.55882  0.25929  1.0000
  H   H3730     1.0  0.89855  0.57532  0.26023  1.0000
  C   C3742     1.0  0.86744  0.49394  0.28071  1.0000
  H   H3731     1.0  0.88362  0.66767  0.29650  1.0000
  C   C3743     1.0  0.90893  0.64984  0.29606  1.0000
  H   H3732     1.0  0.98634  0.62654  0.21827  1.0000
  H   H3733     1.0  0.99422  0.63650  0.20887  1.0000
  H   H3734     1.0  0.88776  0.63899  0.36155  1.0000
  C   C3744     1.0  0.86387  0.48844  0.27465  1.0000
  C   C3745     1.0  0.90205  0.73384  0.36920  1.0000
  C   C3746     1.0  0.99665  0.58792  0.27188  1.0000
  C   C3747     1.0  0.87301  0.73818  0.35881  1.0000
  C   C3748     1.0  0.82544  0.59058  0.19154  1.0000
  Fe  Fe619     1.0  0.95106  0.73675  0.36417  1.0000
  H   H3735     1.0  0.98548  0.61462  0.27452  1.0000
  H   H3736     1.0  0.87559  0.63687  0.35050  1.0000
  H   H3737     1.0  0.89380  0.65464  0.36651  1.0000
  H   H3738     1.0  0.84014  0.49816  0.28466  1.0000
  C   C3749     1.0  0.90046  0.73568  0.35016  1.0000
  H   H3739     1.0  0.76214  0.53641  0.19256  1.0000
  C   C3750     1.0  0.75930  0.56102  0.18261  1.0000
  C   C3751     1.0  0.82067  0.58525  0.18622  1.0000
  H   H3740     1.0  0.87827  0.49510  0.23705  1.0000
  H   H3741     1.0  0.89414  0.73182  0.37477  1.0000
  H   H3742     1.0  0.86649  0.67008  0.36647  1.0000
  H   H3743     1.0  0.90823  0.72598  0.36804  1.0000
  H   H3744     1.0  0.73418  0.60665  0.18715  1.0000
  H   H3745     1.0  0.74102  0.54589  0.18378  1.0000
  H   H3746     1.0  0.88260  0.66374  0.37375  1.0000
  H   H3747     1.0  0.87088  0.48923  0.28785  1.0000
  H   H3748     1.0  0.71508  0.60634  0.18632  1.0000
  C   C3752     1.0  0.99362  0.63036  0.21689  1.0000
  H   H3749     1.0  0.99186  0.63476  0.22375  1.0000
  C   C3753     1.0  0.76275  0.54093  0.18379  1.0000
  C   C3754     1.0  0.86845  0.73628  0.37879  1.0000
  H   H3750     1.0  0.92978  0.71210  0.38064  1.0000
  S   S1248     1.0  0.94087  0.73599  0.38147  1.0000
  C   C3755     1.0  0.74418  0.55304  0.18350  1.0000
  C   C3756     1.0  0.87151  0.72472  0.38008  1.0000
  N   N311      1.0  0.75527  0.55196  0.18316  1.0000
  C   C3757     1.0  0.73685  0.56346  0.18306  1.0000
  H   H3751     1.0  0.88470  0.64898  0.37914  1.0000
  N   N312      1.0  0.89019  0.48898  0.25911  1.0000
  H   H3752     1.0  0.76811  0.56017  0.18225  1.0000
  C   C3758     1.0  0.74090  0.57275  0.18238  1.0000
  S   S1249     1.0  0.88485  0.67908  0.39227  1.0000
  C   C3759     1.0  0.92961  0.72663  0.42690  1.0000
  Fe  Fe620     1.0  0.91288  0.72213  0.52329  1.0000
  H   H3753     1.0  0.86257  0.71908  0.46950  1.0000
  Fe  Fe621     1.0  0.91579  0.70675  0.54521  1.0000
  S   S1250     1.0  0.91085  0.72043  0.55437  1.0000
  S   S1251     1.0  0.92058  0.68859  0.55278  1.0000
  C   C3760     1.0  0.86678  0.71198  0.42520  1.0000
  C   C3761     1.0  0.90722  0.73454  0.40342  1.0000
  S   S1252     1.0  0.90123  0.71288  0.53686  1.0000
  S   S1253     1.0  0.92785  0.71501  0.53118  1.0000
  C   C3762     1.0  0.98431  0.72824  0.40046  1.0000
  S   S1254     1.0  0.95895  0.71421  0.40078  1.0000
  Fe  Fe622     1.0  0.89629  0.70469  0.46252  1.0000
  C   C3763     1.0  0.91847  0.69294  0.57325  1.0000
  S   S1255     1.0  0.89540  0.69858  0.48101  1.0000
  Fe  Fe623     1.0  0.89959  0.70035  0.43917  1.0000
  S   S1256     1.0  0.89540  0.71847  0.43148  1.0000
  S   S1257     1.0  0.90530  0.68760  0.42834  1.0000
  Fe  Fe624     1.0  0.90599  0.72029  0.44193  1.0000
  C   C3764     1.0  0.91693  0.73680  0.40452  1.0000
  Fe  Fe625     1.0  0.88176  0.71939  0.44672  1.0000
  H   H3754     1.0  0.87135  0.71004  0.47848  1.0000
  S   S1258     1.0  0.91135  0.70204  0.44871  1.0000
  S   S1259     1.0  0.88494  0.70107  0.45379  1.0000
  C   C3765     1.0  0.94847  0.71842  0.41175  1.0000
  C   C3766     1.0  0.94088  0.71172  0.41777  1.0000
  C   C3767     1.0  0.93130  0.71592  0.42515  1.0000
  C   C3768     1.0  0.95825  0.72121  0.55289  1.0000
  H   H3755     1.0  0.92332  0.67821  0.40901  1.0000
  Fe  Fe626     1.0  0.92158  0.72936  0.53976  1.0000
  H   H3756     1.0  0.94217  0.70347  0.41638  1.0000
  H   H3757     1.0  0.92515  0.71096  0.42928  1.0000
  H   H3758     1.0  0.99666  0.71221  0.38298  1.0000
  S   S1260     1.0  0.91724  0.73236  0.43531  1.0000
  C   C3769     1.0  0.92246  0.68519  0.56646  1.0000
  H   H3759     1.0  0.93048  0.69707  0.48022  1.0000
  C   C3770     1.0  0.99002  0.71973  0.38422  1.0000
  H   H3760     1.0  0.91436  0.70129  0.57009  1.0000
  H   H3761     1.0  0.93072  0.66826  0.56561  1.0000
  C   C3771     1.0  0.90883  0.71741  0.49848  1.0000
  C   C3772     1.0  0.90260  0.70943  0.50467  1.0000
  C   C3773     1.0  0.89849  0.70371  0.49924  1.0000
  C   C3774     1.0  0.90054  0.70596  0.48761  1.0000
  C   C3775     1.0  0.90657  0.71410  0.48144  1.0000
  C   C3776     1.0  0.91071  0.71977  0.48686  1.0000
  H   H3762     1.0  0.90108  0.70756  0.51362  1.0000
  H   H3763     1.0  0.89376  0.69748  0.50406  1.0000
  H   H3764     1.0  0.90821  0.71592  0.47248  1.0000
  S   S1261     1.0  0.86459  0.72958  0.44569  1.0000
  S   S1262     1.0  0.89192  0.72307  0.45641  1.0000
  C   C3777     1.0  0.93401  0.70102  0.49400  1.0000
  H   H3765     1.0  0.93535  0.70378  0.50927  1.0000
  N   N313      1.0  0.92694  0.69063  0.51204  1.0000
  S   S1263     1.0  0.97301  0.72310  0.56406  1.0000
  H   H3766     1.0  0.85865  0.70380  0.40219  1.0000
  C   C3778     1.0  0.89021  0.68223  0.40213  1.0000
  C   C3779     1.0  0.89111  0.67433  0.41199  1.0000
  C   C3780     1.0  0.89524  0.67635  0.42014  1.0000
  C   C3781     1.0  0.89815  0.68648  0.41880  1.0000
  C   C3782     1.0  0.89697  0.69462  0.40906  1.0000
  C   C3783     1.0  0.89308  0.69247  0.40069  1.0000
  H   H3767     1.0  0.88885  0.66644  0.41324  1.0000
  H   H3768     1.0  0.89634  0.66992  0.42748  1.0000
  H   H3769     1.0  0.89945  0.70238  0.40781  1.0000
  C   C3784     1.0  0.94098  0.73474  0.55072  1.0000
  H   H3770     1.0  0.93038  0.69218  0.41352  1.0000
  H   H3771     1.0  0.91671  0.69377  0.52740  1.0000
  C   C3785     1.0  0.86671  0.69787  0.41606  1.0000
  C   C3786     1.0  0.85758  0.73139  0.41952  1.0000
  C   C3787     1.0  0.92875  0.69352  0.40534  1.0000
  C   C3788     1.0  0.92973  0.69507  0.48913  1.0000
  N   N314      1.0  0.92240  0.68733  0.39254  1.0000
  H   H3772     1.0  0.93804  0.70774  0.48893  1.0000
  H   H3773     1.0  0.95800  0.68766  0.57190  1.0000
  H   H3774     1.0  0.87103  0.71943  0.38825  1.0000
  Fe  Fe627     1.0  0.89741  0.72750  0.54477  1.0000
  H   H3775     1.0  0.92020  0.68260  0.49211  1.0000
  C   C3789     1.0  0.98651  0.73371  0.40743  1.0000
  C   C3790     1.0  0.92494  0.68868  0.52415  1.0000
  C   C3791     1.0  0.93756  0.73308  0.42134  1.0000
  N   N315      1.0  0.86081  0.71987  0.41817  1.0000
  C   C3792     1.0  0.94688  0.72906  0.41362  1.0000
  H   H3776     1.0  0.92499  0.67979  0.52809  1.0000
  C   C3793     1.0  0.92888  0.67125  0.58178  1.0000
  C   C3794     1.0  0.94848  0.72491  0.54862  1.0000
  H   H3777     1.0  0.87839  0.71801  0.49015  1.0000
  C   C3795     1.0  0.86511  0.71807  0.47739  1.0000
  H   H3778     1.0  0.96423  0.71379  0.55100  1.0000
  H   H3779     1.0  0.85335  0.72334  0.40425  1.0000
  H   H3780     1.0  0.94329  0.69341  0.57250  1.0000
  H   H3781     1.0  0.94698  0.72041  0.54335  1.0000
  S   S1264     1.0  0.88122  0.73445  0.55547  1.0000
  N   N316      1.0  0.87003  0.72727  0.47712  1.0000
  H   H3782     1.0  0.85269  0.73175  0.42807  1.0000
  C   C3796     1.0  0.85788  0.71704  0.40999  1.0000
  H   H3783     1.0  0.92607  0.67406  0.38436  1.0000
  C   C3797     1.0  0.92396  0.68694  0.49582  1.0000
  C   C3798     1.0  0.93068  0.70306  0.39733  1.0000
  C   C3799     1.0  0.86082  0.70601  0.40879  1.0000
  H   H3784     1.0  0.96525  0.70140  0.57490  1.0000
  H   H3785     1.0  0.93151  0.69090  0.52681  1.0000
  C   C3800     1.0  0.92260  0.68483  0.50734  1.0000
  C   C3801     1.0  0.93246  0.69874  0.50555  1.0000
  H   H3786     1.0  0.86902  0.68929  0.41521  1.0000
  H   H3787     1.0  0.87457  0.69463  0.42985  1.0000
  H   H3788     1.0  0.91554  0.72593  0.48201  1.0000
  H   H3789     1.0  0.91783  0.67872  0.51250  1.0000
  C   C3802     1.0  0.95824  0.70267  0.58183  1.0000
  H   H3790     1.0  0.86921  0.71426  0.43159  1.0000
  H   H3791     1.0  0.90742  0.72663  0.40175  1.0000
  H   H3792     1.0  0.91539  0.67287  0.39707  1.0000
  S   S1265     1.0  0.91502  0.72416  0.50476  1.0000
  C   C3803     1.0  0.86979  0.70086  0.42428  1.0000
  C   C3804     1.0  0.92764  0.67433  0.57078  1.0000
  H   H3793     1.0  0.89224  0.69872  0.39318  1.0000
  H   H3794     1.0  0.88736  0.70939  0.56306  1.0000
  H   H3795     1.0  0.89353  0.72979  0.57826  1.0000
  C   C3805     1.0  0.87675  0.72586  0.48430  1.0000
  N   N317      1.0  0.99240  0.72528  0.39162  1.0000
  C   C3806     1.0  0.89193  0.69473  0.57550  1.0000
  Fe  Fe628     1.0  0.95728  0.72862  0.38651  1.0000
  C   C3807     1.0  0.88183  0.73437  0.48399  1.0000
  H   H3796     1.0  0.85768  0.71761  0.48433  1.0000
  H   H3797     1.0  0.95281  0.73421  0.40912  1.0000
  C   C3808     1.0  0.88623  0.70560  0.57184  1.0000
  C   C3809     1.0  0.91885  0.67875  0.38960  1.0000
  H   H3798     1.0  0.92476  0.73070  0.40374  1.0000
  C   C3810     1.0  0.96049  0.72733  0.55928  1.0000
  H   H3799     1.0  0.97608  0.72639  0.40216  1.0000
  C   C3811     1.0  0.95276  0.73691  0.56168  1.0000
  Fe  Fe629     1.0  0.97377  0.73370  0.57517  1.0000
  H   H3800     1.0  0.86516  0.73478  0.41799  1.0000
  H   H3801     1.0  0.89749  0.69015  0.56940  1.0000
  H   H3802     1.0  0.98005  0.73611  0.41439  1.0000
  C   C3812     1.0  0.87901  0.71156  0.57958  1.0000
  H   H3803     1.0  0.93417  0.70907  0.39910  1.0000
  H   H3804     1.0  0.87447  0.71996  0.57683  1.0000
  C   C3813     1.0  0.92472  0.68562  0.40274  1.0000
  C   C3814     1.0  0.92821  0.70477  0.38699  1.0000
  H   H3805     1.0  0.98192  0.71701  0.38762  1.0000
  H   H3806     1.0  0.88738  0.73310  0.48953  1.0000
  C   C3815     1.0  0.94974  0.68964  0.57757  1.0000
  C   C3816     1.0  0.92395  0.69681  0.38478  1.0000
  H   H3807     1.0  0.91217  0.68254  0.38480  1.0000
  H   H3808     1.0  0.85233  0.73690  0.41368  1.0000
  C   C3817     1.0  0.86774  0.73725  0.46989  1.0000
  S   S1266     1.0  0.90782  0.73734  0.53052  1.0000
  C   C3818     1.0  0.99706  0.73611  0.40532  1.0000
  H   H3809     1.0  0.89030  0.61833  0.76560  1.0000
  H   H3810     1.0  0.89818  0.72523  0.63838  1.0000
  Fe  Fe630     1.0  0.97264  0.57859  0.76694  1.0000
  S   S1267     1.0  0.96429  0.58663  0.75261  1.0000
  H   H3811     1.0  0.99019  0.59050  0.72656  1.0000
  C   C3819     1.0  0.93793  0.54007  0.76349  1.0000
  S   S1268     1.0  0.94032  0.58369  0.76995  1.0000
  Fe  Fe631     1.0  0.95402  0.57361  0.75926  1.0000
  S   S1269     1.0  0.94971  0.56766  0.74634  1.0000
  Fe  Fe632     1.0  0.95135  0.59596  0.76436  1.0000
  S   S1270     1.0  0.94507  0.61421  0.75898  1.0000
  S   S1271     1.0  0.98481  0.72771  0.58744  1.0000
  C   C3820     1.0  0.91422  0.57038  0.75916  1.0000
  Fe  Fe633     1.0  0.91660  0.52834  0.72345  1.0000
  S   S1272     1.0  0.91077  0.53928  0.73566  1.0000
  S   S1273     1.0  0.92594  0.53428  0.70612  1.0000
  Fe  Fe634     1.0  0.90841  0.50871  0.73992  1.0000
  S   S1274     1.0  0.90221  0.51815  0.75367  1.0000
  Fe  Fe635     1.0  0.89540  0.53233  0.74097  1.0000
  S   S1275     1.0  0.87976  0.54539  0.74450  1.0000
  Fe  Fe636     1.0  0.91807  0.52442  0.74731  1.0000
  S   S1276     1.0  0.92746  0.52619  0.75912  1.0000
  S   S1277     1.0  0.90042  0.52263  0.72756  1.0000
  S   S1278     1.0  0.92509  0.51369  0.73475  1.0000
  Fe  Fe637     1.0  0.92434  0.61391  0.70862  1.0000
  S   S1279     1.0  0.93206  0.61053  0.69164  1.0000
  S   S1280     1.0  0.93010  0.62672  0.71338  1.0000
  Fe  Fe638     1.0  0.90780  0.59931  0.71343  1.0000
  S   S1281     1.0  0.91382  0.59520  0.69661  1.0000
  S   S1282     1.0  0.89580  0.58951  0.72585  1.0000
  Fe  Fe639     1.0  0.93083  0.59291  0.69967  1.0000
  S   S1283     1.0  0.94414  0.57820  0.69539  1.0000
  Fe  Fe640     1.0  0.91435  0.61328  0.69009  1.0000
  S   S1284     1.0  0.91000  0.62252  0.67353  1.0000
  S   S1285     1.0  0.92489  0.59595  0.71688  1.0000
  S   S1286     1.0  0.90655  0.61770  0.70669  1.0000
  S   S1287     1.0  0.87320  0.60687  0.76998  1.0000
  H   H3812     1.0  0.93169  0.62854  0.67130  1.0000
  Fe  Fe641     1.0  0.91265  0.70528  0.62377  1.0000
  S   S1288     1.0  0.92305  0.68801  0.62747  1.0000
  S   S1289     1.0  0.91649  0.72212  0.62019  1.0000
  Fe  Fe642     1.0  0.89262  0.69747  0.62322  1.0000
  S   S1290     1.0  0.90089  0.67936  0.62696  1.0000
  S   S1291     1.0  0.87537  0.70405  0.61993  1.0000
  Fe  Fe643     1.0  0.90737  0.68378  0.63944  1.0000
  S   S1292     1.0  0.90741  0.67450  0.65723  1.0000
  Fe  Fe644     1.0  0.91583  0.68484  0.61477  1.0000
  S   S1293     1.0  0.92652  0.67471  0.60234  1.0000
  S   S1294     1.0  0.89760  0.70150  0.63677  1.0000
  S   S1295     1.0  0.90693  0.70248  0.60997  1.0000
  C   C3821     1.0  0.87092  0.71859  0.61712  1.0000
  H   H3813     1.0  0.90226  0.56450  0.74145  1.0000
  H   H3814     1.0  0.97997  0.61678  0.75644  1.0000
  C   C3822     1.0  0.85963  0.72317  0.61708  1.0000
  H   H3815     1.0  0.88707  0.72213  0.61509  1.0000
  C   C3823     1.0  0.90830  0.63711  0.66925  1.0000
  C   C3824     1.0  0.90912  0.64209  0.65794  1.0000
  C   C3825     1.0  0.90852  0.65360  0.65416  1.0000
  C   C3826     1.0  0.90691  0.66025  0.66170  1.0000
  C   C3827     1.0  0.90572  0.65532  0.67305  1.0000
  C   C3828     1.0  0.90653  0.64378  0.67681  1.0000
  H   H3816     1.0  0.91044  0.63698  0.65205  1.0000
  H   H3817     1.0  0.90945  0.65729  0.64540  1.0000
  H   H3818     1.0  0.90438  0.66042  0.67895  1.0000
  H   H3819     1.0  0.90578  0.64005  0.68555  1.0000
  C   C3829     1.0  0.88958  0.59448  0.73804  1.0000
  C   C3830     1.0  0.88976  0.60519  0.73855  1.0000
  C   C3831     1.0  0.88453  0.60905  0.74834  1.0000
  C   C3832     1.0  0.87951  0.60205  0.75773  1.0000
  C   C3833     1.0  0.87957  0.59127  0.75728  1.0000
  C   C3834     1.0  0.88440  0.58757  0.74738  1.0000
  H   H3820     1.0  0.89365  0.61060  0.73132  1.0000
  H   H3821     1.0  0.88430  0.61748  0.74860  1.0000
  H   H3822     1.0  0.87565  0.58589  0.76449  1.0000
  H   H3823     1.0  0.88416  0.57933  0.74698  1.0000
  H   H3824     1.0  0.91600  0.56011  0.77515  1.0000
  H   H3825     1.0  0.94713  0.55048  0.76648  1.0000
  C   C3835     1.0  0.89648  0.67859  0.59042  1.0000
  C   C3836     1.0  0.92704  0.66178  0.68333  1.0000
  C   C3837     1.0  0.87439  0.73727  0.61278  1.0000
  C   C3838     1.0  0.93053  0.54676  0.70321  1.0000
  C   C3839     1.0  0.93930  0.54875  0.69408  1.0000
  C   C3840     1.0  0.94339  0.55845  0.69168  1.0000
  C   C3841     1.0  0.93851  0.56640  0.69819  1.0000
  C   C3842     1.0  0.92951  0.56461  0.70714  1.0000
  C   C3843     1.0  0.92562  0.55474  0.70972  1.0000
  H   H3826     1.0  0.94308  0.54268  0.68895  1.0000
  H   H3827     1.0  0.95032  0.55983  0.68473  1.0000
  H   H3828     1.0  0.92567  0.57076  0.71218  1.0000
  H   H3829     1.0  0.91864  0.55350  0.71654  1.0000
  C   C3844     1.0  0.85565  0.73469  0.61524  1.0000
  C   C3845     1.0  0.95743  0.53095  0.73931  1.0000
  C   C3846     1.0  0.94092  0.61739  0.74635  1.0000
  C   C3847     1.0  0.93835  0.62849  0.74087  1.0000
  C   C3848     1.0  0.93511  0.63122  0.73072  1.0000
  C   C3849     1.0  0.93427  0.62288  0.72608  1.0000
  C   C3850     1.0  0.93685  0.61173  0.73155  1.0000
  C   C3851     1.0  0.94024  0.60898  0.74168  1.0000
  H   H3830     1.0  0.93888  0.63501  0.74445  1.0000
  H   H3831     1.0  0.93314  0.63984  0.72650  1.0000
  H   H3832     1.0  0.93637  0.60523  0.72794  1.0000
  H   H3833     1.0  0.94225  0.60035  0.74585  1.0000
  C   C3852     1.0  0.93200  0.65522  0.66634  1.0000
  C   C3853     1.0  0.94227  0.55699  0.75077  1.0000
  C   C3854     1.0  0.94273  0.54940  0.76087  1.0000
  C   C3855     1.0  0.98495  0.59717  0.73054  1.0000
  C   C3856     1.0  0.93262  0.53837  0.75605  1.0000
  C   C3857     1.0  0.93185  0.54620  0.74614  1.0000
  C   C3858     1.0  0.93660  0.55550  0.74354  1.0000
  C   C3859     1.0  0.87835  0.72564  0.61494  1.0000
  H   H3834     1.0  0.90957  0.49250  0.72121  1.0000
  H   H3835     1.0  0.92799  0.54493  0.74025  1.0000
  H   H3836     1.0  0.93618  0.56139  0.73572  1.0000
  H   H3837     1.0  0.96188  0.56159  0.72446  1.0000
  C   C3860     1.0  0.92891  0.66403  0.67179  1.0000
  N   N318      1.0  0.93303  0.64447  0.67224  1.0000
  C   C3861     1.0  0.94897  0.71208  0.59684  1.0000
  H   H3838     1.0  0.92691  0.64887  0.69824  1.0000
  C   C3862     1.0  0.87781  0.54709  0.75802  1.0000
  H   H3839     1.0  0.96563  0.55774  0.71115  1.0000
  H   H3840     1.0  0.85698  0.73704  0.64983  1.0000
  C   C3863     1.0  0.94835  0.71412  0.62467  1.0000
  C   C3864     1.0  0.93732  0.71342  0.62532  1.0000
  C   C3865     1.0  0.92986  0.72277  0.62088  1.0000
  C   C3866     1.0  0.95189  0.72410  0.61942  1.0000
  H   H3841     1.0  0.88228  0.69196  0.60300  1.0000
  H   H3842     1.0  0.95424  0.70683  0.62777  1.0000
  H   H3843     1.0  0.93469  0.70564  0.62905  1.0000
  H   H3844     1.0  0.93297  0.66283  0.58503  1.0000
  H   H3845     1.0  0.93300  0.65710  0.65741  1.0000
  C   C3867     1.0  0.95148  0.52642  0.73464  1.0000
  H   H3846     1.0  0.85386  0.71777  0.61875  1.0000
  H   H3847     1.0  0.92438  0.66854  0.68766  1.0000
  H   H3848     1.0  0.93349  0.63808  0.65835  1.0000
  C   C3868     1.0  0.93148  0.64218  0.68354  1.0000
  H   H3849     1.0  0.91490  0.53958  0.77853  1.0000
  S   S1296     1.0  0.96605  0.72460  0.61648  1.0000
  H   H3850     1.0  0.93857  0.53404  0.77117  1.0000
  H   H3851     1.0  0.93238  0.63368  0.68826  1.0000
  N   N319      1.0  0.88989  0.56595  0.71502  1.0000
  C   C3869     1.0  0.89157  0.55507  0.71451  1.0000
  C   C3870     1.0  0.89594  0.57289  0.70704  1.0000
  C   C3871     1.0  0.89926  0.55095  0.70568  1.0000
  C   C3872     1.0  0.90369  0.56905  0.69810  1.0000
  C   C3873     1.0  0.90531  0.55802  0.69741  1.0000
  C   C3874     1.0  0.88204  0.56999  0.72452  1.0000
  H   H3852     1.0  0.88702  0.54948  0.72098  1.0000
  H   H3853     1.0  0.89485  0.58144  0.70760  1.0000
  H   H3854     1.0  0.90077  0.54226  0.70540  1.0000
  H   H3855     1.0  0.90862  0.57451  0.69189  1.0000
  H   H3856     1.0  0.91154  0.55481  0.69071  1.0000
  H   H3857     1.0  0.87465  0.56610  0.72726  1.0000
  H   H3858     1.0  0.88628  0.56791  0.73154  1.0000
  H   H3859     1.0  0.87894  0.57915  0.72249  1.0000
  H   H3860     1.0  0.94913  0.54677  0.71165  1.0000
  H   H3861     1.0  0.88185  0.52955  0.76492  1.0000
  H   H3862     1.0  0.94889  0.51866  0.73896  1.0000
  C   C3875     1.0  0.90406  0.55443  0.75764  1.0000
  N   N320      1.0  0.89061  0.69002  0.58659  1.0000
  C   C3876     1.0  0.87441  0.55910  0.77087  1.0000
  C   C3877     1.0  0.87483  0.55776  0.76026  1.0000
  C   C3878     1.0  0.87992  0.53780  0.76649  1.0000
  H   H3863     1.0  0.98960  0.72725  0.60950  1.0000
  H   H3864     1.0  0.91626  0.69580  0.58953  1.0000
  C   C3879     1.0  0.96890  0.61241  0.73184  1.0000
  H   H3865     1.0  0.97374  0.60281  0.71924  1.0000
  H   H3866     1.0  0.94387  0.52873  0.72084  1.0000
  C   C3880     1.0  0.88348  0.69578  0.59422  1.0000
  C   C3881     1.0  0.95145  0.54237  0.71942  1.0000
  C   C3882     1.0  0.83974  0.56774  0.77947  1.0000
  N   N321      1.0  0.90796  0.55322  0.76691  1.0000
  H   H3867     1.0  0.92485  0.60613  0.76603  1.0000
  H   H3868     1.0  0.90014  0.54820  0.75695  1.0000
  H   H3869     1.0  0.83853  0.57067  0.77103  1.0000
  S   S1297     1.0  0.96043  0.58902  0.77823  1.0000
  C   C3883     1.0  0.91091  0.61648  0.75258  1.0000
  C   C3884     1.0  0.91037  0.57161  0.74962  1.0000
  C   C3885     1.0  0.87934  0.53913  0.77710  1.0000
  H   H3870     1.0  0.85996  0.73000  0.63853  1.0000
  C   C3886     1.0  0.90525  0.56360  0.74885  1.0000
  H   H3871     1.0  0.88472  0.73665  0.58914  1.0000
  H   H3872     1.0  0.91581  0.60945  0.74856  1.0000
  H   H3873     1.0  0.90344  0.62028  0.74887  1.0000
  H   H3874     1.0  0.91603  0.62283  0.75056  1.0000
  C   C3887     1.0  0.91948  0.68979  0.58435  1.0000
  C   C3888     1.0  0.97136  0.61371  0.74132  1.0000
  C   C3889     1.0  0.88032  0.73072  0.63962  1.0000
  H   H3875     1.0  0.91838  0.57647  0.75976  1.0000
  H   H3876     1.0  0.85181  0.55282  0.77622  1.0000
  C   C3890     1.0  0.91289  0.56110  0.76780  1.0000
  H   H3877     1.0  0.98358  0.58965  0.78060  1.0000
  N   N322      1.0  0.94965  0.69727  0.58428  1.0000
  C   C3891     1.0  0.93610  0.63533  0.66643  1.0000
  N   N323      1.0  0.90787  0.61249  0.76462  1.0000
  C   C3892     1.0  0.96013  0.54128  0.73394  1.0000
  C   C3893     1.0  0.92840  0.65078  0.68926  1.0000
  H   H3878     1.0  0.94526  0.63195  0.66505  1.0000
  H   H3879     1.0  0.95947  0.52673  0.74729  1.0000
  H   H3880     1.0  0.92752  0.67255  0.66709  1.0000
  N   N324      1.0  0.95689  0.54695  0.72424  1.0000
  H   H3881     1.0  0.89447  0.72361  0.59241  1.0000
  H   H3882     1.0  0.96430  0.54497  0.73788  1.0000
  C   C3894     1.0  0.95913  0.55805  0.71892  1.0000
  C   C3895     1.0  0.95809  0.71000  0.58820  1.0000
  H   H3883     1.0  0.91139  0.57873  0.74280  1.0000
  C   C3896     1.0  0.94855  0.53211  0.72456  1.0000
  C   C3897     1.0  0.89131  0.73223  0.63681  1.0000
  H   H3884     1.0  0.95137  0.56392  0.71683  1.0000
  H   H3885     1.0  0.87312  0.56497  0.75373  1.0000
  H   H3886     1.0  0.87232  0.56733  0.77254  1.0000
  S   S1298     1.0  0.99147  0.57623  0.76363  1.0000
  H   H3887     1.0  0.89050  0.67296  0.59343  1.0000
  C   C3898     1.0  0.89689  0.61403  0.77008  1.0000
  C   C3899     1.0  0.92471  0.67892  0.58863  1.0000
  C   C3900     1.0  0.98717  0.59871  0.74003  1.0000
  C   C3901     1.0  0.99260  0.58814  0.77827  1.0000
  S   S1299     1.0  0.96361  0.56445  0.77257  1.0000
  C   C3902     1.0  0.93330  0.73282  0.61618  1.0000
  H   H3888     1.0  0.94870  0.71794  0.60162  1.0000
  C   C3903     1.0  0.94075  0.69914  0.59288  1.0000
  H   H3889     1.0  0.87190  0.71113  0.59695  1.0000
  H   H3890     1.0  0.90329  0.67549  0.58374  1.0000
  H   H3891     1.0  0.90044  0.67815  0.59731  1.0000
  H   H3892     1.0  0.96158  0.61767  0.72886  1.0000
  C   C3904     1.0  0.91615  0.60721  0.77034  1.0000
  H   H3893     1.0  0.96581  0.62002  0.74565  1.0000
  N   N325      1.0  0.98043  0.60694  0.74525  1.0000
  C   C3905     1.0  0.99364  0.73207  0.61235  1.0000
  C   C3906     1.0  0.94023  0.70661  0.59925  1.0000
  C   C3907     1.0  0.97573  0.60406  0.72645  1.0000
  S   S1300     1.0  0.90634  0.49077  0.74518  1.0000
  C   C3908     1.0  0.89394  0.60999  0.78152  1.0000
  H   H3894     1.0  0.97750  0.60297  0.76274  1.0000
  C   C3909     1.0  0.94429  0.73347  0.61538  1.0000
  C   C3910     1.0  0.98244  0.60799  0.75559  1.0000
  C   C3911     1.0  0.90677  0.54355  0.77606  1.0000
  C   C3912     1.0  0.87759  0.70662  0.59085  1.0000
  H   H3895     1.0  0.87877  0.72242  0.64330  1.0000
  C   C3913     1.0  0.89319  0.73165  0.58633  1.0000
  C   C3914     1.0  0.87674  0.54976  0.77927  1.0000
  H   H3896     1.0  0.93399  0.69484  0.59490  1.0000
  Fe  Fe645     1.0  0.96998  0.73499  0.59931  1.0000
  H   H3897     1.0  0.93313  0.70809  0.60602  1.0000
  H   H3898     1.0  0.90418  0.53707  0.77367  1.0000
  H   H3899     1.0  0.90149  0.73325  0.60267  1.0000
  C   C3915     1.0  0.86020  0.73772  0.64077  1.0000
  H   H3900     1.0  0.99144  0.60497  0.75593  1.0000
  H   H3901     1.0  0.99416  0.59311  0.74335  1.0000
  N   N326      1.0  0.90166  0.73787  0.58533  1.0000
  H   H3902     1.0  0.96498  0.71413  0.58639  1.0000
  C   C3916     1.0  0.90488  0.73798  0.59462  1.0000
  H   H3903     1.0  0.84681  0.73812  0.61558  1.0000
  C   C3917     1.0  0.91351  0.60313  0.78182  1.0000
  H   H3904     1.0  0.94787  0.68167  0.58303  1.0000
  N   N327      1.0  0.84340  0.56054  0.80090  1.0000
  H   H3905     1.0  0.58525  0.72927  0.94841  1.0000
  H   H3906     1.0  0.71384  0.49585  0.91483  1.0000
  H   H3907     1.0  0.58850  0.70910  0.88903  1.0000
  H   H3908     1.0  0.88101  0.53188  0.78361  1.0000
  Fe  Fe646     1.0  0.76736  0.57510  0.96330  1.0000
  S   S1301     1.0  0.78341  0.57411  0.95053  1.0000
  S   S1302     1.0  0.75116  0.58253  0.95784  1.0000
  Fe  Fe647     1.0  0.74147  0.52013  0.92983  1.0000
  S   S1303     1.0  0.72403  0.51724  0.93728  1.0000
  S   S1304     1.0  0.75384  0.52268  0.93814  1.0000
  Fe  Fe648     1.0  0.74047  0.51935  0.90679  1.0000
  S   S1305     1.0  0.72297  0.51657  0.91197  1.0000
  S   S1306     1.0  0.75014  0.51954  0.88933  1.0000
  Fe  Fe649     1.0  0.71980  0.52949  0.92194  1.0000
  S   S1307     1.0  0.70470  0.54361  0.92155  1.0000
  Fe  Fe650     1.0  0.72858  0.50449  0.92669  1.0000
  S   S1308     1.0  0.73684  0.53336  0.91534  1.0000
  S   S1309     1.0  0.74646  0.50628  0.92069  1.0000
  S   S1310     1.0  0.54053  0.73128  0.91978  1.0000
  H   H3909     1.0  0.80244  0.55249  0.95131  1.0000
  Fe  Fe651     1.0  0.53256  0.71663  0.92543  1.0000
  H   H3910     1.0  0.69733  0.57777  0.96598  1.0000
  S   S1311     1.0  0.54333  0.69945  0.92837  1.0000
  H   H3911     1.0  0.85473  0.54645  0.79538  1.0000
  H   H3912     1.0  0.56919  0.70611  0.89284  1.0000
  S   S1312     1.0  0.51897  0.72346  0.93880  1.0000
  S   S1313     1.0  0.52208  0.72231  0.91256  1.0000
  S   S1314     1.0  0.94350  0.57004  0.80087  1.0000
  Fe  Fe652     1.0  0.61758  0.71341  0.91515  1.0000
  S   S1315     1.0  0.62235  0.70168  0.90368  1.0000
  C   C3918     1.0  0.78796  0.53470  0.94939  1.0000
  Fe  Fe653     1.0  0.61262  0.69559  0.93561  1.0000
  S   S1316     1.0  0.61680  0.68210  0.92617  1.0000
  S   S1317     1.0  0.60554  0.69380  0.95383  1.0000
  Fe  Fe654     1.0  0.63153  0.68965  0.91639  1.0000
  S   S1318     1.0  0.64975  0.68090  0.91197  1.0000
  Fe  Fe655     1.0  0.60728  0.69512  0.91437  1.0000
  S   S1319     1.0  0.59521  0.69094  0.90705  1.0000
  S   S1320     1.0  0.62804  0.70213  0.92692  1.0000
  S   S1321     1.0  0.60181  0.70786  0.92473  1.0000
  Fe  Fe656     1.0  0.70664  0.62386  0.92642  1.0000
  S   S1322     1.0  0.69278  0.61546  0.93669  1.0000
  S   S1323     1.0  0.71261  0.63472  0.93349  1.0000
  Fe  Fe657     1.0  0.70858  0.61489  0.90638  1.0000
  S   S1324     1.0  0.69472  0.60581  0.91487  1.0000
  S   S1325     1.0  0.71799  0.61270  0.88933  1.0000
  Fe  Fe658     1.0  0.68588  0.62142  0.92125  1.0000
  S   S1326     1.0  0.66735  0.62858  0.92223  1.0000
  Fe  Fe659     1.0  0.70295  0.60086  0.92934  1.0000
  S   S1327     1.0  0.70856  0.58363  0.93889  1.0000
  S   S1328     1.0  0.69913  0.63091  0.91141  1.0000
  S   S1329     1.0  0.71744  0.60883  0.92038  1.0000
  Fe  Fe660     1.0  0.77845  0.56810  0.87400  1.0000
  S   S1330     1.0  0.79341  0.55690  0.88008  1.0000
  S   S1331     1.0  0.76981  0.56218  0.86442  1.0000
  Fe  Fe661     1.0  0.77882  0.58669  0.88398  1.0000
  S   S1332     1.0  0.79402  0.57718  0.89074  1.0000
  S   S1333     1.0  0.76947  0.60274  0.88902  1.0000
  Fe  Fe662     1.0  0.80069  0.57218  0.87424  1.0000
  S   S1334     1.0  0.81920  0.56985  0.86615  1.0000
  Fe  Fe663     1.0  0.78546  0.56290  0.89584  1.0000
  S   S1335     1.0  0.78268  0.55174  0.91276  1.0000
  S   S1336     1.0  0.78616  0.58308  0.86696  1.0000
  S   S1337     1.0  0.76980  0.57273  0.89024  1.0000
  C   C3919     1.0  0.78184  0.53286  0.96030  1.0000
  S   S1338     1.0  0.86597  0.59737  0.80151  1.0000
  Fe  Fe664     1.0  0.87271  0.56852  0.79475  1.0000
  S   S1339     1.0  0.86807  0.57079  0.81225  1.0000
  S   S1340     1.0  0.87628  0.55105  0.79260  1.0000
  Fe  Fe665     1.0  0.85490  0.58509  0.80636  1.0000
  S   S1341     1.0  0.83671  0.58898  0.81510  1.0000
  Fe  Fe666     1.0  0.87962  0.58269  0.80576  1.0000
  S   S1342     1.0  0.89072  0.58404  0.81603  1.0000
  C   C3920     1.0  0.70473  0.57118  0.96786  1.0000
  C   C3921     1.0  0.82366  0.57417  0.85168  1.0000
  C   C3922     1.0  0.83499  0.57087  0.84670  1.0000
  C   C3923     1.0  0.83906  0.57507  0.83539  1.0000
  C   C3924     1.0  0.83182  0.58268  0.82902  1.0000
  C   C3925     1.0  0.82046  0.58578  0.83394  1.0000
  C   C3926     1.0  0.81638  0.58152  0.84522  1.0000
  H   H3913     1.0  0.84067  0.56518  0.85166  1.0000
  H   H3914     1.0  0.84784  0.57263  0.83171  1.0000
  H   H3915     1.0  0.81480  0.59166  0.82906  1.0000
  H   H3916     1.0  0.80765  0.58415  0.84897  1.0000
  C   C3927     1.0  0.73240  0.61071  0.88846  1.0000
  C   C3928     1.0  0.73618  0.61536  0.89503  1.0000
  C   C3929     1.0  0.74763  0.61314  0.89489  1.0000
  C   C3930     1.0  0.75530  0.60601  0.88842  1.0000
  C   C3931     1.0  0.75155  0.60143  0.88175  1.0000
  C   C3932     1.0  0.74011  0.60397  0.88161  1.0000
  H   H3917     1.0  0.73031  0.62084  0.90009  1.0000
  H   H3918     1.0  0.75055  0.61691  0.89983  1.0000
  H   H3919     1.0  0.75749  0.59610  0.87657  1.0000
  H   H3920     1.0  0.73722  0.60053  0.87637  1.0000
  C   C3933     1.0  0.65430  0.66634  0.91412  1.0000
  C   C3934     1.0  0.64682  0.65921  0.91830  1.0000
  C   C3935     1.0  0.65090  0.64762  0.92066  1.0000
  C   C3936     1.0  0.66246  0.64312  0.91900  1.0000
  C   C3937     1.0  0.66991  0.65027  0.91468  1.0000
  C   C3938     1.0  0.66584  0.66181  0.91210  1.0000
  H   H3921     1.0  0.63789  0.66262  0.91982  1.0000
  H   H3922     1.0  0.64508  0.64213  0.92393  1.0000
  H   H3923     1.0  0.67881  0.64696  0.91333  1.0000
  H   H3924     1.0  0.67168  0.66729  0.90880  1.0000
  H   H3925     1.0  0.88518  0.61102  0.78574  1.0000
  H   H3926     1.0  0.71228  0.57342  0.96173  1.0000
  S   S1343     1.0  0.88542  0.57918  0.78873  1.0000
  H   H3927     1.0  0.66562  0.61649  0.89535  1.0000
  H   H3928     1.0  0.72407  0.55023  0.95491  1.0000
  Fe  Fe667     1.0  0.50900  0.73044  0.92539  1.0000
  C   C3939     1.0  0.69844  0.54936  0.95764  1.0000
  H   H3929     1.0  0.64894  0.66139  0.95144  1.0000
  Fe  Fe668     1.0  0.95061  0.57567  0.78280  1.0000
  H   H3930     1.0  0.67009  0.65335  0.89054  1.0000
  C   C3940     1.0  0.92880  0.57370  0.80482  1.0000
  C   C3941     1.0  0.92387  0.57568  0.81545  1.0000
  C   C3942     1.0  0.91221  0.57880  0.81877  1.0000
  C   C3943     1.0  0.90533  0.57971  0.81159  1.0000
  C   C3944     1.0  0.91024  0.57752  0.80100  1.0000
  C   C3945     1.0  0.97157  0.56692  0.80106  1.0000
  H   H3931     1.0  0.92909  0.57493  0.82110  1.0000
  H   H3932     1.0  0.90850  0.58047  0.82696  1.0000
  H   H3933     1.0  0.64708  0.66788  0.93750  1.0000
  C   C3946     1.0  0.55760  0.69795  0.92188  1.0000
  C   C3947     1.0  0.56397  0.70526  0.92207  1.0000
  C   C3948     1.0  0.57565  0.70301  0.91792  1.0000
  C   C3949     1.0  0.58086  0.69367  0.91326  1.0000
  C   C3950     1.0  0.57441  0.68658  0.91290  1.0000
  C   C3951     1.0  0.56289  0.68857  0.91740  1.0000
  H   H3934     1.0  0.55997  0.71240  0.92573  1.0000
  H   H3935     1.0  0.58056  0.70862  0.91808  1.0000
  H   H3936     1.0  0.57837  0.67939  0.90925  1.0000
  H   H3937     1.0  0.55805  0.68283  0.91734  1.0000
  C   C3952     1.0  0.60632  0.72539  0.96322  1.0000
  C   C3953     1.0  0.61584  0.71989  0.95676  1.0000
  C   C3954     1.0  0.61563  0.71015  0.95389  1.0000
  C   C3955     1.0  0.60600  0.70575  0.95768  1.0000
  C   C3956     1.0  0.59654  0.71115  0.96431  1.0000
  C   C3957     1.0  0.59663  0.72106  0.96690  1.0000
  C   C3958     1.0  0.77271  0.51317  0.90200  1.0000
  H   H3938     1.0  0.62303  0.70591  0.94894  1.0000
  H   H3939     1.0  0.79242  0.55938  0.96878  1.0000
  H   H3940     1.0  0.79208  0.52459  0.87323  1.0000
  Fe  Fe669     1.0  0.74659  0.59102  0.97203  1.0000
  C   C3959     1.0  0.54931  0.73465  0.96841  1.0000
  H   H3941     1.0  0.83127  0.57509  0.80440  1.0000
  S   S1344     1.0  0.85866  0.58196  0.78919  1.0000
  C   C3960     1.0  0.79224  0.55049  0.97258  1.0000
  C   C3961     1.0  0.76442  0.55037  0.87161  1.0000
  C   C3962     1.0  0.76205  0.54401  0.86562  1.0000
  C   C3963     1.0  0.75768  0.53456  0.87115  1.0000
  C   C3964     1.0  0.75530  0.53162  0.88272  1.0000
  C   C3965     1.0  0.75750  0.53808  0.88876  1.0000
  C   C3966     1.0  0.76224  0.54735  0.88321  1.0000
  H   H3942     1.0  0.76372  0.54633  0.85666  1.0000
  H   H3943     1.0  0.75603  0.52958  0.86644  1.0000
  H   H3944     1.0  0.75589  0.53575  0.89769  1.0000
  H   H3945     1.0  0.76405  0.55223  0.88789  1.0000
  C   C3967     1.0  0.70596  0.55489  0.92597  1.0000
  C   C3968     1.0  0.71501  0.55405  0.93054  1.0000
  C   C3969     1.0  0.71598  0.56311  0.93406  1.0000
  C   C3970     1.0  0.70792  0.57304  0.93303  1.0000
  C   C3971     1.0  0.69898  0.57400  0.92823  1.0000
  C   C3972     1.0  0.69798  0.56490  0.92476  1.0000
  H   H3946     1.0  0.72121  0.54639  0.93141  1.0000
  H   H3947     1.0  0.72295  0.56241  0.93763  1.0000
  H   H3948     1.0  0.69264  0.58161  0.92756  1.0000
  H   H3949     1.0  0.69097  0.56558  0.92119  1.0000
  H   H3950     1.0  0.78528  0.55039  0.98004  1.0000
  N   N328      1.0  0.70363  0.56031  0.96714  1.0000
  C   C3973     1.0  0.98815  0.57019  0.80473  1.0000
  H   H3951     1.0  0.75682  0.54775  0.95957  1.0000
  C   C3974     1.0  0.73130  0.61572  0.96108  1.0000
  C   C3975     1.0  0.72884  0.62734  0.95837  1.0000
  C   C3976     1.0  0.72321  0.63307  0.94982  1.0000
  C   C3977     1.0  0.71982  0.62723  0.94405  1.0000
  C   C3978     1.0  0.72214  0.61558  0.94681  1.0000
  C   C3979     1.0  0.72797  0.60981  0.95527  1.0000
  C   C3980     1.0  0.58292  0.72605  0.89120  1.0000
  H   H3952     1.0  0.72142  0.64206  0.94774  1.0000
  H   H3953     1.0  0.71935  0.61104  0.94251  1.0000
  H   H3954     1.0  0.72965  0.60084  0.95750  1.0000
  C   C3981     1.0  0.78258  0.56867  0.93972  1.0000
  C   C3982     1.0  0.77450  0.56253  0.94130  1.0000
  C   C3983     1.0  0.77466  0.55721  0.93303  1.0000
  C   C3984     1.0  0.78257  0.55844  0.92301  1.0000
  C   C3985     1.0  0.79043  0.56484  0.92132  1.0000
  C   C3986     1.0  0.79054  0.56982  0.92974  1.0000
  H   H3955     1.0  0.76837  0.56158  0.94901  1.0000
  H   H3956     1.0  0.76859  0.55224  0.93436  1.0000
  H   H3957     1.0  0.79665  0.56570  0.91365  1.0000
  H   H3958     1.0  0.79681  0.57455  0.92851  1.0000
  H   H3959     1.0  0.96893  0.56431  0.79477  1.0000
  C   C3987     1.0  0.75132  0.54514  0.95619  1.0000
  C   C3988     1.0  0.75562  0.53682  0.94994  1.0000
  C   C3989     1.0  0.74848  0.53325  0.94570  1.0000
  C   C3990     1.0  0.73709  0.53811  0.94756  1.0000
  H   H3960     1.0  0.67148  0.61397  0.90734  1.0000
  H   H3961     1.0  0.53456  0.72732  0.95397  1.0000
  H   H3962     1.0  0.76446  0.53313  0.94839  1.0000
  C   C3991     1.0  0.84551  0.55681  0.81213  1.0000
  N   N329      1.0  0.79067  0.54506  0.96460  1.0000
  Fe  Fe670     1.0  0.52888  0.73773  0.90814  1.0000
  H   H3963     1.0  0.73155  0.53533  0.94439  1.0000
  C   C3992     1.0  0.68929  0.62453  0.88867  1.0000
  C   C3993     1.0  0.79036  0.53022  0.87900  1.0000
  N   N330      1.0  0.67812  0.62543  0.89339  1.0000
  Fe  Fe671     1.0  0.87090  0.59298  0.78487  1.0000
  H   H3964     1.0  0.69480  0.61645  0.88828  1.0000
  N   N331      1.0  0.98373  0.56576  0.79877  1.0000
  H   H3965     1.0  0.79854  0.53137  0.87952  1.0000
  C   C3994     1.0  0.67345  0.61545  0.89814  1.0000
  C   C3995     1.0  0.68691  0.64445  0.88501  1.0000
  H   H3966     1.0  0.85447  0.55267  0.81192  1.0000
  H   H3967     1.0  0.69488  0.56719  0.95401  1.0000
  C   C3996     1.0  0.70848  0.55083  0.97366  1.0000
  N   N332      1.0  0.74787  0.59227  0.92597  1.0000
  C   C3997     1.0  0.75530  0.58571  0.91918  1.0000
  C   C3998     1.0  0.73982  0.58805  0.93432  1.0000
  C   C3999     1.0  0.75500  0.57450  0.92093  1.0000
  C   C4000     1.0  0.73936  0.57686  0.93636  1.0000
  C   C4001     1.0  0.74706  0.57003  0.92966  1.0000
  C   C4002     1.0  0.74829  0.60397  0.92424  1.0000
  H   H3968     1.0  0.76162  0.58907  0.91244  1.0000
  H   H3969     1.0  0.73381  0.59328  0.93959  1.0000
  H   H3970     1.0  0.76109  0.56925  0.91571  1.0000
  H   H3971     1.0  0.73313  0.57352  0.94318  1.0000
  H   H3972     1.0  0.74694  0.56128  0.93132  1.0000
  H   H3973     1.0  0.74123  0.60943  0.92052  1.0000
  H   H3974     1.0  0.74768  0.60608  0.93227  1.0000
  H   H3975     1.0  0.75626  0.60581  0.91865  1.0000
  N   N333      1.0  0.55864  0.69701  0.95130  1.0000
  C   C4003     1.0  0.56544  0.70235  0.95357  1.0000
  C   C4004     1.0  0.56316  0.68817  0.94625  1.0000
  C   C4005     1.0  0.57708  0.69884  0.95079  1.0000
  C   C4006     1.0  0.57477  0.68450  0.94328  1.0000
  C   C4007     1.0  0.58176  0.68987  0.94559  1.0000
  H   H3976     1.0  0.55779  0.68412  0.94415  1.0000
  H   H3977     1.0  0.56189  0.70937  0.95754  1.0000
  H   H3978     1.0  0.90011  0.60132  0.79630  1.0000
  H   H3979     1.0  0.58248  0.70304  0.95262  1.0000
  C   C4008     1.0  0.56138  0.72270  0.89536  1.0000
  H   H3980     1.0  0.84373  0.56394  0.81618  1.0000
  S   S1345     1.0  0.73832  0.60888  0.97191  1.0000
  H   H3981     1.0  0.55289  0.72151  0.89706  1.0000
  H   H3982     1.0  0.54484  0.71934  0.96933  1.0000
  C   C4009     1.0  0.57050  0.71412  0.89289  1.0000
  H   H3983     1.0  0.78664  0.53098  0.94334  1.0000
  H   H3984     1.0  0.62336  0.72318  0.95391  1.0000
  S   S1346     1.0  0.73387  0.55989  0.96641  1.0000
  H   H3985     1.0  0.60442  0.73164  0.93789  1.0000
  N   N334      1.0  0.57392  0.73440  0.89368  1.0000
  H   H3986     1.0  0.54355  0.70320  0.96210  1.0000
  H   H3987     1.0  0.96861  0.56174  0.80928  1.0000
  N   N335      1.0  0.73265  0.57438  0.89764  1.0000
  C   C4010     1.0  0.72567  0.56708  0.90200  1.0000
  C   C4011     1.0  0.73950  0.57438  0.88736  1.0000
  C   C4012     1.0  0.72582  0.55914  0.89631  1.0000
  C   C4013     1.0  0.73962  0.56679  0.88129  1.0000
  C   C4014     1.0  0.73291  0.55897  0.88590  1.0000
  C   C4015     1.0  0.73224  0.58265  0.90378  1.0000
  H   H3988     1.0  0.71996  0.56737  0.90993  1.0000
  H   H3989     1.0  0.74496  0.58023  0.88378  1.0000
  H   H3990     1.0  0.72044  0.55318  0.89997  1.0000
  H   H3991     1.0  0.74505  0.56686  0.87312  1.0000
  H   H3992     1.0  0.73323  0.55279  0.88141  1.0000
  H   H3993     1.0  0.73051  0.57921  0.91288  1.0000
  H   H3994     1.0  0.74030  0.58540  0.90149  1.0000
  H   H3995     1.0  0.72548  0.59003  0.90192  1.0000
  C   C4016     1.0  0.70840  0.54036  0.97233  1.0000
  C   C4017     1.0  0.84718  0.55773  0.78237  1.0000
  C   C4018     1.0  0.92196  0.57461  0.79758  1.0000
  C   C4019     1.0  0.58135  0.71579  0.89077  1.0000
  C   C4020     1.0  0.79558  0.54162  0.94621  1.0000
  C   C4021     1.0  0.84884  0.55419  0.79322  1.0000
  H   H3996     1.0  0.59079  0.68714  0.94331  1.0000
  H   H3997     1.0  0.71293  0.55133  0.97955  1.0000
  C   C4022     1.0  0.83391  0.57396  0.78747  1.0000
  C   C4023     1.0  0.61022  0.73576  0.89184  1.0000
  S   S1347     1.0  0.76190  0.56007  0.97505  1.0000
  H   H3998     1.0  0.56541  0.73342  0.94711  1.0000
  H   H3999     1.0  0.76708  0.51476  0.91904  1.0000
  S   S1348     1.0  0.61698  0.73172  0.91151  1.0000
  H   H4000     1.0  0.77626  0.53040  0.91609  1.0000
  H   H4001     1.0  0.54423  0.70886  0.94741  1.0000
  C   C4024     1.0  0.54649  0.70124  0.95374  1.0000
  C   C4025     1.0  0.77189  0.51781  0.91090  1.0000
  H   H4002     1.0  0.58907  0.70778  0.96732  1.0000
  C   C4026     1.0  0.50298  0.73173  0.89315  1.0000
  H   H4003     1.0  0.99405  0.59653  0.79014  1.0000
  Fe  Fe672     1.0  0.74529  0.56819  0.97051  1.0000
  H   H4004     1.0  0.69037  0.65186  0.88187  1.0000
  C   C4027     1.0  0.99060  0.56017  0.79087  1.0000
  H   H4005     1.0  0.57833  0.67771  0.93897  1.0000
  C   C4028     1.0  0.69384  0.63401  0.88440  1.0000
  H   H4006     1.0  0.66250  0.63632  0.89814  1.0000
  H   H4007     1.0  0.90504  0.57816  0.79540  1.0000
  H   H4008     1.0  0.70566  0.57109  0.97623  1.0000
  H   H4009     1.0  0.84016  0.55090  0.81726  1.0000
  N   N336      1.0  0.83992  0.59371  0.84976  1.0000
  C   C4029     1.0  0.84961  0.58668  0.85215  1.0000
  C   C4030     1.0  0.83969  0.59982  0.83923  1.0000
  C   C4031     1.0  0.85937  0.58551  0.84383  1.0000
  C   C4032     1.0  0.84929  0.59886  0.83073  1.0000
  C   C4033     1.0  0.85919  0.59165  0.83307  1.0000
  C   C4034     1.0  0.82985  0.59510  0.85860  1.0000
  H   H4010     1.0  0.84978  0.58180  0.86048  1.0000
  H   H4011     1.0  0.83198  0.60526  0.83727  1.0000
  H   H4012     1.0  0.86703  0.57983  0.84567  1.0000
  H   H4013     1.0  0.84895  0.60347  0.82234  1.0000
  H   H4014     1.0  0.86669  0.59075  0.82655  1.0000
  H   H4015     1.0  0.82931  0.60232  0.86206  1.0000
  H   H4016     1.0  0.82218  0.59637  0.85545  1.0000
  H   H4017     1.0  0.82985  0.58753  0.86540  1.0000
  C   C4035     1.0  0.73985  0.54987  0.95819  1.0000
  S   S1349     1.0  0.60661  0.73757  0.96679  1.0000
  H   H4018     1.0  0.77898  0.51398  0.88459  1.0000
  H   H4019     1.0  0.92569  0.57283  0.78945  1.0000
  H   H4020     1.0  0.78718  0.53734  0.89748  1.0000
  C   C4036     1.0  0.70343  0.53965  0.96419  1.0000
  H   H4021     1.0  0.96718  0.57573  0.80098  1.0000
  H   H4022     1.0  0.67937  0.60793  0.89565  1.0000
  C   C4037     1.0  0.77710  0.52657  0.90925  1.0000
  N   N337      1.0  0.78410  0.52579  0.89003  1.0000
  C   C4038     1.0  0.73284  0.54642  0.95371  1.0000
  C   C4039     1.0  0.79683  0.54676  0.95397  1.0000
  H   H4023     1.0  0.54189  0.69510  0.95349  1.0000
  H   H4024     1.0  0.82811  0.58177  0.78533  1.0000
  H   H4025     1.0  0.70363  0.53160  0.96281  1.0000
  H   H4026     1.0  0.61393  0.72713  0.89160  1.0000
  H   H4027     1.0  0.58920  0.72527  0.97180  1.0000
  H   H4028     1.0  0.76833  0.50665  0.90308  1.0000
  C   C4040     1.0  0.69857  0.55968  0.95928  1.0000
  S   S1350     1.0  0.76347  0.58502  0.97633  1.0000
  C   C4041     1.0  0.83577  0.57016  0.79825  1.0000
  N   N338      1.0  0.66371  0.65908  0.93893  1.0000
  C   C4042     1.0  0.67049  0.64877  0.94115  1.0000
  C   C4043     1.0  0.66826  0.66819  0.93365  1.0000
  C   C4044     1.0  0.68214  0.64737  0.93796  1.0000
  C   C4045     1.0  0.67988  0.66705  0.93026  1.0000
  C   C4046     1.0  0.68685  0.65657  0.93246  1.0000
  C   C4047     1.0  0.65154  0.66045  0.94270  1.0000
  H   H4029     1.0  0.66691  0.64153  0.94527  1.0000
  H   H4030     1.0  0.66288  0.67634  0.93175  1.0000
  H   H4031     1.0  0.68753  0.63920  0.93970  1.0000
  H   H4032     1.0  0.68345  0.67425  0.92590  1.0000
  H   H4033     1.0  0.69589  0.65553  0.92990  1.0000
  H   H4034     1.0  0.64878  0.65317  0.94206  1.0000
  H   H4035     1.0  0.78550  0.53838  0.87535  1.0000
  H   H4036     1.0  0.73137  0.63193  0.96284  1.0000
  C   C4048     1.0  0.67128  0.63563  0.89405  1.0000
  H   H4037     1.0  0.70274  0.63321  0.88081  1.0000
  H   H4038     1.0  0.69476  0.54891  0.95112  1.0000
  C   C4049     1.0  0.77881  0.51734  0.89154  1.0000
  C   C4050     1.0  0.67554  0.64530  0.88982  1.0000
  H   H4039     1.0  0.49917  0.72012  0.88618  1.0000
  C   C4051     1.0  0.78322  0.53047  0.89869  1.0000
  H   H4040     1.0  0.80014  0.54337  0.93766  1.0000
  C   C4052     1.0  0.54432  0.72795  0.96509  1.0000
  H   H4041     1.0  0.59137  0.72725  0.88959  1.0000
  H   H4042     1.0  0.71257  0.53287  0.97726  1.0000
  H   H4043     1.0  0.74227  0.49134  0.90427  1.0000
  C   C4053     1.0  0.90231  0.60451  0.78742  1.0000
  C   C4054     1.0  0.56327  0.73285  0.89569  1.0000
  H   H4044     1.0  0.98712  0.55689  0.78593  1.0000
  H   H4045     1.0  0.51193  0.72836  0.89147  1.0000
  H   H4046     1.0  0.77583  0.52755  0.96285  1.0000
  H   H4047     1.0  0.98270  0.57472  0.81090  1.0000
  H   H4048     1.0  0.90040  0.54611  0.78329  1.0000
  C   C4055     1.0  0.78336  0.53808  0.96787  1.0000
  C   C4056     1.0  0.53853  0.73244  0.95643  1.0000
  H   H4049     1.0  0.77851  0.53666  0.97631  1.0000
  S   S1351     1.0  0.55702  0.72891  0.97881  1.0000
  H   H4050     1.0  0.92010  0.59888  0.78633  1.0000
  C   C4057     1.0  0.58217  0.73639  0.94234  1.0000
  H   H4051     1.0  0.80023  0.54626  0.97524  1.0000
  Fe  Fe673     1.0  0.58913  0.79791  0.16243  1.0000
  H   H4052     1.0  0.55763  0.78381  0.01850  1.0000
  S   S1352     1.0  0.62282  0.74562  0.07751  1.0000
  Fe  Fe674     1.0  0.59596  0.78849  0.14113  1.0000
  S   S1353     1.0  0.58734  0.77433  0.14892  1.0000
  S   S1354     1.0  0.60483  0.78978  0.12313  1.0000
  Fe  Fe675     1.0  0.57330  0.78687  0.15616  1.0000
  S   S1355     1.0  0.55542  0.78824  0.15517  1.0000
  H   H4053     1.0  0.55105  0.76681  0.09994  1.0000
  C   C4058     1.0  0.55291  0.76978  0.14940  1.0000
  S   S1356     1.0  0.58148  0.80137  0.14749  1.0000
  S   S1357     1.0  0.60446  0.78614  0.15515  1.0000
  N   N339      1.0  0.53027  0.78429  0.13237  1.0000
  S   S1358     1.0  0.60151  0.77197  0.06623  1.0000
  H   H4054     1.0  0.61965  0.79790  0.13167  1.0000
  H   H4055     1.0  0.53142  0.74682  0.09499  1.0000
  S   S1359     1.0  0.57670  0.76785  0.06863  1.0000
  C   C4059     1.0  0.55948  0.74548  0.08657  1.0000
  Fe  Fe676     1.0  0.59264  0.76723  0.05569  1.0000
  S   S1360     1.0  0.59174  0.77495  0.03772  1.0000
  Fe  Fe677     1.0  0.58612  0.77053  0.07981  1.0000
  S   S1361     1.0  0.57752  0.78050  0.09313  1.0000
  H   H4056     1.0  0.60227  0.74904  0.01248  1.0000
  S   S1362     1.0  0.59174  0.75236  0.08646  1.0000
  H   H4057     1.0  0.62620  0.80947  0.12933  1.0000
  H   H4058     1.0  0.61580  0.76090  0.15087  1.0000
  Fe  Fe678     1.0  0.52570  0.74607  0.14563  1.0000
  S   S1363     1.0  0.51214  0.75540  0.13634  1.0000
  Fe  Fe679     1.0  0.52519  0.75214  0.12131  1.0000
  S   S1364     1.0  0.52816  0.76482  0.10572  1.0000
  H   H4059     1.0  0.63037  0.76231  0.10123  1.0000
  C   C4060     1.0  0.61761  0.74760  0.11826  1.0000
  H   H4060     1.0  0.55017  0.75405  0.06222  1.0000
  Fe  Fe680     1.0  0.57304  0.75204  0.99532  1.0000
  S   S1365     1.0  0.57117  0.75051  0.01377  1.0000
  H   H4061     1.0  0.56492  0.75373  0.05942  1.0000
  H   H4062     1.0  0.62084  0.80236  0.14324  1.0000
  C   C4061     1.0  0.55650  0.75929  0.05948  1.0000
  C   C4062     1.0  0.58723  0.76748  0.03066  1.0000
  C   C4063     1.0  0.58336  0.75779  0.03630  1.0000
  C   C4064     1.0  0.57873  0.75256  0.03089  1.0000
  C   C4065     1.0  0.57806  0.75686  0.01975  1.0000
  C   C4066     1.0  0.58233  0.76631  0.01394  1.0000
  C   C4067     1.0  0.58685  0.77163  0.01941  1.0000
  H   H4063     1.0  0.58362  0.75450  0.04494  1.0000
  C   C4068     1.0  0.53941  0.74894  0.09372  1.0000
  H   H4064     1.0  0.58184  0.76970  0.00535  1.0000
  H   H4065     1.0  0.58984  0.77912  0.01499  1.0000
  H   H4066     1.0  0.60871  0.76058  0.09474  1.0000
  S   S1366     1.0  0.55827  0.75669  0.98718  1.0000
  C   C4069     1.0  0.55040  0.76029  0.09647  1.0000
  C   C4070     1.0  0.54004  0.75781  0.09777  1.0000
  C   C4071     1.0  0.62299  0.74532  0.14564  1.0000
  N   N340      1.0  0.61801  0.75266  0.10735  1.0000
  C   C4072     1.0  0.59617  0.81760  0.17654  1.0000
  C   C4073     1.0  0.60737  0.74648  0.12559  1.0000
  H   H4067     1.0  0.60641  0.81630  0.15040  1.0000
  H   H4068     1.0  0.56412  0.77795  0.05084  1.0000
  C   C4074     1.0  0.54947  0.77671  0.15706  1.0000
  C   C4075     1.0  0.60413  0.81553  0.12518  1.0000
  S   S1367     1.0  0.52841  0.75171  0.15979  1.0000
  C   C4076     1.0  0.53679  0.76120  0.15831  1.0000
  C   C4077     1.0  0.55257  0.76954  0.03028  1.0000
  C   C4078     1.0  0.53978  0.77576  0.16531  1.0000
  H   H4069     1.0  0.62808  0.74900  0.13801  1.0000
  H   H4070     1.0  0.56804  0.75595  0.09025  1.0000
  C   C4079     1.0  0.59737  0.78692  0.11484  1.0000
  C   C4080     1.0  0.58616  0.78613  0.11891  1.0000
  C   C4081     1.0  0.58024  0.78410  0.11218  1.0000
  C   C4082     1.0  0.58543  0.78279  0.10134  1.0000
  C   C4083     1.0  0.59668  0.78346  0.09728  1.0000
  C   C4084     1.0  0.60262  0.78555  0.10401  1.0000
  H   H4071     1.0  0.58198  0.78726  0.12720  1.0000
  H   H4072     1.0  0.57161  0.78346  0.11543  1.0000
  H   H4073     1.0  0.60073  0.78256  0.08889  1.0000
  H   H4074     1.0  0.61127  0.78620  0.10078  1.0000
  C   C4085     1.0  0.58802  0.82791  0.13355  1.0000
  H   H4075     1.0  0.57990  0.83348  0.13336  1.0000
  H   H4076     1.0  0.52208  0.78348  0.14949  1.0000
  H   H4077     1.0  0.62863  0.75575  0.09125  1.0000
  C   C4086     1.0  0.54649  0.76211  0.14995  1.0000
  H   H4078     1.0  0.53689  0.78125  0.17108  1.0000
  C   C4087     1.0  0.59268  0.82563  0.14278  1.0000
  H   H4079     1.0  0.59020  0.82442  0.11749  1.0000
  C   C4088     1.0  0.60299  0.81816  0.14307  1.0000
  H   H4080     1.0  0.60854  0.81159  0.11825  1.0000
  N   N341      1.0  0.55617  0.76638  0.04843  1.0000
  C   C4089     1.0  0.59800  0.75568  0.11053  1.0000
  H   H4081     1.0  0.54903  0.75691  0.14393  1.0000
  H   H4082     1.0  0.61106  0.80478  0.17430  1.0000
  N   N342      1.0  0.60851  0.81312  0.13438  1.0000
  H   H4083     1.0  0.58776  0.74840  0.16205  1.0000
  H   H4084     1.0  0.52617  0.76729  0.17257  1.0000
  C   C4090     1.0  0.61935  0.80536  0.13468  1.0000
  H   H4085     1.0  0.53938  0.78255  0.10545  1.0000
  C   C4091     1.0  0.56993  0.75255  0.16800  1.0000
  C   C4092     1.0  0.59378  0.82285  0.12467  1.0000
  H   H4086     1.0  0.56486  0.78933  0.03190  1.0000
  H   H4087     1.0  0.58822  0.82939  0.14983  1.0000
  H   H4088     1.0  0.51297  0.78665  0.13998  1.0000
  H   H4089     1.0  0.58949  0.75013  0.12735  1.0000
  C   C4093     1.0  0.60973  0.74734  0.16301  1.0000
  H   H4090     1.0  0.55475  0.76435  0.06579  1.0000
  H   H4091     1.0  0.54994  0.76674  0.02434  1.0000
  H   H4092     1.0  0.61499  0.74956  0.99388  1.0000
  C   C4094     1.0  0.61607  0.75207  0.15294  1.0000
  H   H4093     1.0  0.52108  0.77271  0.14363  1.0000
  C   C4095     1.0  0.56095  0.78222  0.03450  1.0000
  H   H4094     1.0  0.57546  0.74525  0.03544  1.0000
  C   C4096     1.0  0.56053  0.77571  0.04524  1.0000
  H   H4095     1.0  0.63566  0.74752  0.10200  1.0000
  C   C4097     1.0  0.56008  0.75410  0.09095  1.0000
  H   H4096     1.0  0.54936  0.75552  0.04340  1.0000
  C   C4098     1.0  0.53066  0.78193  0.12250  1.0000
  H   H4097     1.0  0.55221  0.75418  0.17382  1.0000
  C   C4099     1.0  0.59134  0.82733  0.18077  1.0000
  H   H4098     1.0  0.59037  0.75904  0.10741  1.0000
  H   H4099     1.0  0.52433  0.77815  0.12170  1.0000
  H   H4100     1.0  0.56021  0.77068  0.14277  1.0000
  H   H4101     1.0  0.62524  0.74447  0.12138  1.0000
  C   C4100     1.0  0.55231  0.76319  0.04108  1.0000
  C   C4101     1.0  0.52115  0.78170  0.14183  1.0000
  H   H4102     1.0  0.56964  0.76127  0.16729  1.0000
  C   C4102     1.0  0.60839  0.75658  0.10341  1.0000
  Fe  Fe681     1.0  0.59446  0.77295  0.16344  1.0000
  C   C4103     1.0  0.53363  0.76792  0.16608  1.0000
  H   H4103     1.0  0.53790  0.79111  0.14112  1.0000
  C   C4104     1.0  0.62870  0.75467  0.10011  1.0000
  C   C4105     1.0  0.53823  0.78912  0.13334  1.0000
  S   S1368     1.0  0.57957  0.78437  0.17162  1.0000
  C   C4106     1.0  0.54706  0.79138  0.12436  1.0000
  C   C4107     1.0  0.54755  0.78894  0.11427  1.0000
  C   C4108     1.0  0.53922  0.78433  0.11329  1.0000
  Fe  Fe682     1.0  0.60654  0.75352  0.07235  1.0000
  H   H4104     1.0  0.55438  0.79059  0.10721  1.0000
  Fe  Fe683     1.0  0.58363  0.74973  0.07433  1.0000
  S   S1369     1.0  0.60096  0.75561  0.17225  1.0000
  H   H4105     1.0  0.55349  0.79494  0.12528  1.0000
  C   C4109     1.0  0.56010  0.74849  0.17170  1.0000
  C   C4110     1.0  0.59750  0.75068  0.12170  1.0000
  S   S1370     1.0  0.59906  0.74885  0.06079  1.0000
  S   S1371     1.0  0.58800  0.81256  0.17038  1.0000
  C   C4111     1.0  0.55693  0.77910  0.02699  1.0000
  C   C4112     1.0  0.58012  0.74531  0.16510  1.0000
  C   C4113     1.0  0.54914  0.74283  0.08801  1.0000
  H   H4106     1.0  0.58289  0.83163  0.18007  1.0000
  C   C4114     1.0  0.60357  0.74247  0.00813  1.0000
  C   C4115     1.0  0.61074  0.74273  0.99772  1.0000
  C   C4116     1.0  0.60716  0.81224  0.17747  1.0000
  S   S1372     1.0  0.53904  0.74433  0.13037  1.0000
  Fe  Fe684     1.0  0.50886  0.73873  0.13709  1.0000
  H   H4107     1.0  0.60713  0.74248  0.13424  1.0000
  H   H4108     1.0  0.54312  0.73878  0.18064  1.0000
  H   H4109     1.0  0.56729  0.74041  0.12132  1.0000
  S   S1373     1.0  0.57167  0.73840  0.07905  1.0000
  H   H4110     1.0  0.56950  0.82054  0.20488  1.0000
  Fe  Fe685     1.0  0.60749  0.92922  0.23639  1.0000
  S   S1374     1.0  0.59180  0.92864  0.24958  1.0000
  S   S1375     1.0  0.61709  0.91207  0.23332  1.0000
  Fe  Fe686     1.0  0.60471  0.95445  0.23418  1.0000
  S   S1376     1.0  0.58854  0.95550  0.24680  1.0000
  S   S1377     1.0  0.60935  0.97137  0.22725  1.0000
  Fe  Fe687     1.0  0.59742  0.93999  0.25633  1.0000
  S   S1378     1.0  0.59506  0.93807  0.27455  1.0000
  Fe  Fe688     1.0  0.58441  0.94419  0.23872  1.0000
  S   S1379     1.0  0.56682  0.94709  0.23667  1.0000
  S   S1380     1.0  0.61396  0.93928  0.24431  1.0000
  S   S1381     1.0  0.59974  0.94439  0.22494  1.0000
  Fe  Fe689     1.0  0.53894  0.90062  0.27342  1.0000
  S   S1382     1.0  0.53962  0.88644  0.28826  1.0000
  S   S1383     1.0  0.53558  0.91863  0.27389  1.0000
  Fe  Fe690     1.0  0.54253  0.88567  0.25774  1.0000
  S   S1384     1.0  0.54411  0.87013  0.27093  1.0000
  S   S1385     1.0  0.54328  0.88566  0.24024  1.0000
  Fe  Fe691     1.0  0.52913  0.87988  0.28082  1.0000
  S   S1386     1.0  0.51270  0.87434  0.28870  1.0000
  Fe  Fe692     1.0  0.55454  0.87810  0.27689  1.0000
  S   S1387     1.0  0.57218  0.86940  0.27926  1.0000
  S   S1388     1.0  0.52715  0.89497  0.26716  1.0000
  S   S1389     1.0  0.55428  0.89273  0.26253  1.0000
  H   H4111     1.0  0.89526  0.75588  0.36410  1.0000
  Fe  Fe693     1.0  0.63806  0.86745  0.28669  1.0000
  S   S1390     1.0  0.63043  0.86223  0.30485  1.0000
  S   S1391     1.0  0.64395  0.85584  0.27467  1.0000
  Fe  Fe694     1.0  0.63694  0.89059  0.28915  1.0000
  S   S1392     1.0  0.62855  0.88753  0.30712  1.0000
  S   S1393     1.0  0.64126  0.90699  0.28045  1.0000
  Fe  Fe695     1.0  0.64149  0.87164  0.30826  1.0000
  S   S1394     1.0  0.65181  0.86592  0.32176  1.0000
  Fe  Fe696     1.0  0.61834  0.87872  0.30192  1.0000
  S   S1395     1.0  0.59944  0.88157  0.30748  1.0000
  S   S1396     1.0  0.65030  0.87511  0.29034  1.0000
  S   S1397     1.0  0.62558  0.88344  0.28379  1.0000
  Fe  Fe697     1.0  0.60520  0.86600  0.21185  1.0000
  S   S1398     1.0  0.60278  0.85888  0.23008  1.0000
  S   S1399     1.0  0.60265  0.88483  0.20684  1.0000
  Fe  Fe698     1.0  0.61179  0.84275  0.20568  1.0000
  S   S1400     1.0  0.61084  0.83429  0.22369  1.0000
  H   H4112     1.0  0.62164  0.81229  0.18318  1.0000
  Fe  Fe699     1.0  0.59495  0.84698  0.22644  1.0000
  S   S1401     1.0  0.57951  0.84157  0.23713  1.0000
  Fe  Fe700     1.0  0.61892  0.84716  0.22539  1.0000
  S   S1402     1.0  0.63305  0.84374  0.23429  1.0000
  S   S1403     1.0  0.59556  0.85517  0.20856  1.0000
  S   S1404     1.0  0.62172  0.85446  0.20706  1.0000
  Fe  Fe701     1.0  0.68513  0.89301  0.35266  1.0000
  S   S1405     1.0  0.69906  0.90216  0.34375  1.0000
  S   S1406     1.0  0.67204  0.89452  0.34248  1.0000
  H   H4113     1.0  0.62902  0.88302  0.33124  1.0000
  S   S1407     1.0  0.70742  0.89631  0.36716  1.0000
  Fe  Fe702     1.0  0.69525  0.90960  0.35862  1.0000
  S   S1408     1.0  0.69375  0.92783  0.35760  1.0000
  Fe  Fe703     1.0  0.71002  0.88802  0.35318  1.0000
  S   S1409     1.0  0.72794  0.88205  0.34505  1.0000
  S   S1410     1.0  0.68048  0.90172  0.36699  1.0000
  S   S1411     1.0  0.69656  0.87825  0.36125  1.0000
  H   H4114     1.0  0.58381  0.80431  0.19966  1.0000
  S   S1412     1.0  0.78426  0.86332  0.36264  1.0000
  C   C4117     1.0  0.63150  0.89082  0.20097  1.0000
  Fe  Fe704     1.0  0.87457  0.77886  0.37536  1.0000
  S   S1413     1.0  0.77671  0.89530  0.36132  1.0000
  H   H4115     1.0  0.62599  0.96247  0.24107  1.0000
  C   C4118     1.0  0.78447  0.83555  0.36164  1.0000
  H   H4116     1.0  0.60245  0.95955  0.26139  1.0000
  S   S1414     1.0  0.89045  0.77979  0.36241  1.0000
  H   H4117     1.0  0.61584  0.83223  0.25030  1.0000
  C   C4119     1.0  0.56533  0.93968  0.27353  1.0000
  C   C4120     1.0  0.59770  0.97743  0.25798  1.0000
  H   H4118     1.0  0.71824  0.93548  0.33461  1.0000
  C   C4121     1.0  0.59594  0.80690  0.20703  1.0000
  Fe  Fe705     1.0  0.73886  0.95343  0.36862  1.0000
  S   S1415     1.0  0.75562  0.95768  0.36575  1.0000
  S   S1416     1.0  0.73476  0.94764  0.35539  1.0000
  C   C4122     1.0  0.60319  0.96711  0.26313  1.0000
  C   C4123     1.0  0.89616  0.75194  0.35734  1.0000
  C   C4124     1.0  0.90097  0.77968  0.37846  1.0000
  C   C4125     1.0  0.90188  0.77601  0.36889  1.0000
  C   C4126     1.0  0.57749  0.81861  0.20721  1.0000
  H   H4119     1.0  0.52049  0.87610  0.25522  1.0000
  H   H4120     1.0  0.74176  0.89530  0.35279  1.0000
  C   C4127     1.0  0.92095  0.76594  0.36991  1.0000
  C   C4128     1.0  0.91192  0.76921  0.36457  1.0000
  C   C4129     1.0  0.59726  0.83150  0.18603  1.0000
  C   C4130     1.0  0.80383  0.81903  0.36164  1.0000
  N   N343      1.0  0.60526  0.98651  0.26743  1.0000
  H   H4121     1.0  0.61630  0.97599  0.27772  1.0000
  C   C4131     1.0  0.63528  0.89530  0.20765  1.0000
  H   H4122     1.0  0.57336  0.84946  0.27147  1.0000
  H   H4123     1.0  0.86681  0.75196  0.36705  1.0000
  C   C4132     1.0  0.79384  0.81743  0.36922  1.0000
  H   H4124     1.0  0.64846  0.86081  0.22681  1.0000
  H   H4125     1.0  0.56834  0.93590  0.21924  1.0000
  C   C4133     1.0  0.97814  0.77774  0.36182  1.0000
  C   C4134     1.0  0.95899  0.77669  0.37075  1.0000
  C   C4135     1.0  0.77557  0.90568  0.36836  1.0000
  C   C4136     1.0  0.76915  0.91628  0.36507  1.0000
  H   H4126     1.0  0.84289  0.81022  0.36874  1.0000
  H   H4127     1.0  0.92860  0.76057  0.36659  1.0000
  N   N344      1.0  0.50618  0.87857  0.24843  1.0000
  C   C4137     1.0  0.60988  0.96658  0.27032  1.0000
  H   H4128     1.0  0.76516  0.91800  0.35820  1.0000
  C   C4138     1.0  0.92012  0.76984  0.37935  1.0000
  C   C4139     1.0  0.70485  0.93315  0.35840  1.0000
  C   C4140     1.0  0.70453  0.94450  0.35420  1.0000
  C   C4141     1.0  0.71339  0.94908  0.35407  1.0000
  C   C4142     1.0  0.72252  0.94245  0.35848  1.0000
  C   C4143     1.0  0.72260  0.93117  0.36327  1.0000
  C   C4144     1.0  0.71380  0.92649  0.36317  1.0000
  H   H4129     1.0  0.69759  0.94972  0.35060  1.0000
  H   H4130     1.0  0.71336  0.95773  0.35015  1.0000
  H   H4131     1.0  0.72974  0.92593  0.36651  1.0000
  H   H4132     1.0  0.71405  0.91774  0.36659  1.0000
  C   C4145     1.0  0.73610  0.87304  0.35429  1.0000
  C   C4146     1.0  0.73131  0.86619  0.36394  1.0000
  C   C4147     1.0  0.73804  0.85899  0.37114  1.0000
  C   C4148     1.0  0.58997  0.82284  0.21544  1.0000
  H   H4133     1.0  0.59178  0.82812  0.21974  1.0000
  C   C4149     1.0  0.74758  0.87277  0.35198  1.0000
  H   H4134     1.0  0.72247  0.86627  0.36570  1.0000
  C   C4150     1.0  0.81246  0.82525  0.37982  1.0000
  Fe  Fe706     1.0  0.78191  0.87772  0.37044  1.0000
  H   H4135     1.0  0.52320  0.87814  0.24035  1.0000
  C   C4151     1.0  0.51814  0.87427  0.24828  1.0000
  C   C4152     1.0  0.55558  0.92685  0.22899  1.0000
  C   C4153     1.0  0.79435  0.83747  0.35403  1.0000
  C   C4154     1.0  0.86923  0.74303  0.36813  1.0000
  C   C4155     1.0  0.63263  0.87934  0.20297  1.0000
  H   H4136     1.0  0.56744  0.83305  0.22456  1.0000
  H   H4137     1.0  0.57812  0.90025  0.22499  1.0000
  C   C4156     1.0  0.78085  0.90356  0.37719  1.0000
  N   N345      1.0  0.64137  0.87693  0.21808  1.0000
  N   N346      1.0  0.97894  0.78210  0.37011  1.0000
  C   C4157     1.0  0.98642  0.75652  0.38199  1.0000
  C   C4158     1.0  0.65705  0.87396  0.32781  1.0000
  C   C4159     1.0  0.65332  0.88549  0.32646  1.0000
  C   C4160     1.0  0.65766  0.89150  0.33144  1.0000
  C   C4161     1.0  0.66597  0.88617  0.33763  1.0000
  C   C4162     1.0  0.66957  0.87460  0.33912  1.0000
  C   C4163     1.0  0.66508  0.86856  0.33432  1.0000
  H   H4138     1.0  0.64714  0.88983  0.32154  1.0000
  H   H4139     1.0  0.65470  0.90042  0.33029  1.0000
  H   H4140     1.0  0.67591  0.87032  0.34389  1.0000
  H   H4141     1.0  0.66798  0.85963  0.33553  1.0000
  C   C4164     1.0  0.63988  0.85330  0.26356  1.0000
  C   C4165     1.0  0.64748  0.84551  0.25785  1.0000
  C   C4166     1.0  0.64507  0.84283  0.24903  1.0000
  C   C4167     1.0  0.63497  0.84785  0.24567  1.0000
  C   C4168     1.0  0.62721  0.85578  0.25127  1.0000
  C   C4169     1.0  0.62965  0.85847  0.26028  1.0000
  H   H4142     1.0  0.65536  0.84143  0.26029  1.0000
  H   H4143     1.0  0.65114  0.83673  0.24481  1.0000
  H   H4144     1.0  0.61936  0.85974  0.24875  1.0000
  H   H4145     1.0  0.62363  0.86434  0.26478  1.0000
  C   C4170     1.0  0.55261  0.87322  0.23824  1.0000
  C   C4171     1.0  0.55035  0.86312  0.24497  1.0000
  C   C4172     1.0  0.55849  0.85327  0.24439  1.0000
  C   C4173     1.0  0.56896  0.85362  0.23727  1.0000
  C   C4174     1.0  0.57116  0.86374  0.23054  1.0000
  C   C4175     1.0  0.56294  0.87351  0.23091  1.0000
  H   H4146     1.0  0.54240  0.86291  0.25077  1.0000
  H   H4147     1.0  0.55680  0.84548  0.24968  1.0000
  H   H4148     1.0  0.57927  0.86415  0.22519  1.0000
  H   H4149     1.0  0.56479  0.88134  0.22585  1.0000
  C   C4176     1.0  0.57956  0.87371  0.28663  1.0000
  C   C4177     1.0  0.57401  0.87910  0.29536  1.0000
  C   C4178     1.0  0.58018  0.88149  0.30168  1.0000
  C   C4179     1.0  0.59194  0.87870  0.29920  1.0000
  C   C4180     1.0  0.59749  0.87355  0.29029  1.0000
  C   C4181     1.0  0.59132  0.87101  0.28410  1.0000
  H   H4150     1.0  0.56495  0.88101  0.29751  1.0000
  H   H4151     1.0  0.57583  0.88532  0.30866  1.0000
  H   H4152     1.0  0.60653  0.87129  0.28834  1.0000
  H   H4153     1.0  0.59570  0.86686  0.27736  1.0000
  C   C4182     1.0  0.62910  0.85750  0.33810  1.0000
  C   C4183     1.0  0.50742  0.86862  0.28065  1.0000
  C   C4184     1.0  0.51412  0.85986  0.27573  1.0000
  C   C4185     1.0  0.50943  0.85437  0.27062  1.0000
  H   H4154     1.0  0.52282  0.85701  0.27627  1.0000
  H   H4155     1.0  0.51460  0.84735  0.26718  1.0000
  C   C4186     1.0  0.60787  0.93070  0.27777  1.0000
  C   C4187     1.0  0.61779  0.93384  0.27134  1.0000
  C   C4188     1.0  0.62816  0.92682  0.27261  1.0000
  C   C4189     1.0  0.62855  0.91658  0.28013  1.0000
  C   C4190     1.0  0.61862  0.91363  0.28676  1.0000
  C   C4191     1.0  0.60829  0.92076  0.28570  1.0000
  H   H4156     1.0  0.61750  0.94152  0.26517  1.0000
  H   H4157     1.0  0.63582  0.92910  0.26742  1.0000
  H   H4158     1.0  0.61882  0.90573  0.29251  1.0000
  H   H4159     1.0  0.60063  0.91826  0.29061  1.0000
  C   C4192     1.0  0.61169  0.90470  0.22687  1.0000
  C   C4193     1.0  0.61381  0.89303  0.22986  1.0000
  C   C4194     1.0  0.61070  0.88686  0.22408  1.0000
  C   C4195     1.0  0.60562  0.89229  0.21509  1.0000
  C   C4196     1.0  0.60343  0.90396  0.21216  1.0000
  C   C4197     1.0  0.60632  0.91015  0.21809  1.0000
  H   H4160     1.0  0.61810  0.88870  0.23650  1.0000
  H   H4161     1.0  0.61264  0.87790  0.22632  1.0000
  H   H4162     1.0  0.59970  0.90822  0.20509  1.0000
  H   H4163     1.0  0.60484  0.91911  0.21556  1.0000
  C   C4198     1.0  0.55846  0.93904  0.24725  1.0000
  C   C4199     1.0  0.54717  0.94372  0.25086  1.0000
  C   C4200     1.0  0.54023  0.93740  0.25907  1.0000
  C   C4201     1.0  0.54446  0.92626  0.26349  1.0000
  C   C4202     1.0  0.55576  0.92151  0.25986  1.0000
  C   C4203     1.0  0.56276  0.92791  0.25175  1.0000
  H   H4164     1.0  0.54379  0.95230  0.24734  1.0000
  H   H4165     1.0  0.53152  0.94112  0.26190  1.0000
  H   H4166     1.0  0.55915  0.91299  0.26343  1.0000
  H   H4167     1.0  0.57138  0.92413  0.24875  1.0000
  C   C4204     1.0  0.60532  0.84193  0.27401  1.0000
  H   H4168     1.0  0.76296  0.86602  0.35766  1.0000
  H   H4169     1.0  0.54595  0.93286  0.28249  1.0000
  C   C4205     1.0  0.61571  0.97766  0.23392  1.0000
  C   C4206     1.0  0.62376  0.97142  0.24005  1.0000
  C   C4207     1.0  0.62937  0.97681  0.24436  1.0000
  H   H4170     1.0  0.73659  0.93555  0.33636  1.0000
  C   C4208     1.0  0.58551  0.80933  0.20433  1.0000
  H   H4171     1.0  0.57626  0.84246  0.26037  1.0000
  N   N347      1.0  0.67751  0.89113  0.30900  1.0000
  C   C4209     1.0  0.67242  0.88789  0.30266  1.0000
  C   C4210     1.0  0.67464  0.90187  0.31031  1.0000
  C   C4211     1.0  0.66412  0.89547  0.29755  1.0000
  C   C4212     1.0  0.66631  0.90964  0.30538  1.0000
  C   C4213     1.0  0.66104  0.90640  0.29895  1.0000
  C   C4214     1.0  0.68640  0.88314  0.31402  1.0000
  H   H4172     1.0  0.67462  0.87935  0.30168  1.0000
  H   H4173     1.0  0.67854  0.90439  0.31549  1.0000
  H   H4174     1.0  0.66003  0.89291  0.29258  1.0000
  H   H4175     1.0  0.66390  0.91809  0.30663  1.0000
  H   H4176     1.0  0.65453  0.91229  0.29508  1.0000
  H   H4177     1.0  0.69454  0.88287  0.30796  1.0000
  H   H4178     1.0  0.68715  0.88542  0.32152  1.0000
  H   H4179     1.0  0.68455  0.87469  0.31680  1.0000
  H   H4180     1.0  0.98936  0.79382  0.36454  1.0000
  C   C4215     1.0  0.59887  0.98712  0.26019  1.0000
  Fe  Fe707     1.0  0.74647  0.97108  0.37528  1.0000
  H   H4181     1.0  0.52043  0.86510  0.24919  1.0000
  H   H4182     1.0  0.64018  0.87049  0.23530  1.0000
  C   C4216     1.0  0.96818  0.77495  0.36203  1.0000
  H   H4183     1.0  0.54210  0.91321  0.24930  1.0000
  H   H4184     1.0  0.63589  0.97193  0.24870  1.0000
  C   C4217     1.0  0.50067  0.88789  0.25249  1.0000
  C   C4218     1.0  0.49807  0.85772  0.27017  1.0000
  H   H4185     1.0  0.64284  0.89178  0.22158  1.0000
  N   N348      1.0  0.62340  0.89978  0.25845  1.0000
  C   C4219     1.0  0.61518  0.90775  0.26288  1.0000
  C   C4220     1.0  0.62094  0.89028  0.25774  1.0000
  C   C4221     1.0  0.60430  0.90604  0.26735  1.0000
  C   C4222     1.0  0.61007  0.88840  0.26192  1.0000
  C   C4223     1.0  0.60174  0.89630  0.26686  1.0000
  C   C4224     1.0  0.63480  0.90168  0.25402  1.0000
  H   H4186     1.0  0.61705  0.91546  0.26301  1.0000
  H   H4187     1.0  0.62741  0.88406  0.25401  1.0000
  H   H4188     1.0  0.59793  0.91232  0.27106  1.0000
  H   H4189     1.0  0.60812  0.88086  0.26138  1.0000
  H   H4190     1.0  0.59332  0.89487  0.27025  1.0000
  H   H4191     1.0  0.63668  0.90684  0.25870  1.0000
  H   H4192     1.0  0.64111  0.89372  0.25482  1.0000
  H   H4193     1.0  0.63570  0.90605  0.24518  1.0000
  H   H4194     1.0  0.63815  0.86356  0.21334  1.0000
  H   H4195     1.0  0.87353  0.74342  0.35058  1.0000
  H   H4196     1.0  0.54329  0.91488  0.29485  1.0000
  C   C4225     1.0  0.57140  0.91133  0.29157  1.0000
  H   H4197     1.0  0.59285  0.97792  0.25203  1.0000
  H   H4198     1.0  0.91272  0.76638  0.35713  1.0000
  N   N349      1.0  0.78430  0.82560  0.36907  1.0000
  H   H4199     1.0  0.55901  0.89906  0.23607  1.0000
  C   C4226     1.0  0.54182  0.91576  0.24039  1.0000
  Fe  Fe708     1.0  0.94495  0.75234  0.37980  1.0000
  H   H4200     1.0  0.89327  0.78500  0.38180  1.0000
  C   C4227     1.0  0.74945  0.85903  0.36902  1.0000
  Fe  Fe709     1.0  0.69306  0.88783  0.37472  1.0000
  C   C4228     1.0  0.77318  0.92266  0.37938  1.0000
  C   C4229     1.0  0.75417  0.86599  0.35945  1.0000
  C   C4230     1.0  0.59819  0.81367  0.21266  1.0000
  H   H4201     1.0  0.50315  0.84408  0.29865  1.0000
  H   H4202     1.0  0.50508  0.86617  0.24077  1.0000
  C   C4231     1.0  0.59846  0.83950  0.25628  1.0000
  S   S1417     1.0  0.81460  0.84510  0.36495  1.0000
  C   C4232     1.0  0.57445  0.91817  0.22131  1.0000
  H   H4203     1.0  0.63683  0.85548  0.34098  1.0000
  H   H4204     1.0  0.75548  0.90569  0.35329  1.0000
  C   C4233     1.0  0.57908  0.84835  0.26340  1.0000
  H   H4205     1.0  0.59588  0.83862  0.24926  1.0000
  H   H4206     1.0  0.57817  0.85653  0.25746  1.0000
  H   H4207     1.0  0.63403  0.90425  0.20644  1.0000
  C   C4234     1.0  0.57181  0.90778  0.22609  1.0000
  H   H4208     1.0  0.62194  0.83437  0.26624  1.0000
  H   H4209     1.0  0.63081  0.84069  0.33664  1.0000
  N   N350      1.0  0.57985  0.82530  0.21257  1.0000
  H   H4210     1.0  0.62935  0.87587  0.19803  1.0000
  N   N351      1.0  0.59078  0.84419  0.26443  1.0000
  C   C4235     1.0  0.77400  0.82401  0.37732  1.0000
  C   C4236     1.0  0.73777  0.92667  0.33980  1.0000
  H   H4211     1.0  0.75266  0.92606  0.34509  1.0000
  C   C4237     1.0  0.56630  0.92777  0.22275  1.0000
  H   H4212     1.0  0.60220  0.86462  0.32694  1.0000
  H   H4213     1.0  0.54941  0.93439  0.23028  1.0000
  C   C4238     1.0  0.72082  0.92654  0.33426  1.0000
  H   H4214     1.0  0.81145  0.81265  0.36194  1.0000
  H   H4215     1.0  0.79384  0.80967  0.37532  1.0000
  C   C4239     1.0  0.74839  0.90997  0.34946  1.0000
  C   C4240     1.0  0.62574  0.84908  0.33565  1.0000
  H   H4216     1.0  0.61974  0.88141  0.34481  1.0000
  C   C4241     1.0  0.61090  0.97643  0.27231  1.0000
  H   H4217     1.0  0.71334  0.92289  0.33854  1.0000
  C   C4242     1.0  0.98936  0.78525  0.36956  1.0000
  C   C4243     1.0  0.60975  0.83583  0.25685  1.0000
  H   H4218     1.0  0.60793  0.84308  0.28091  1.0000
  C   C4244     1.0  0.60972  0.86251  0.33018  1.0000
  H   H4219     1.0  0.61331  0.84521  0.32965  1.0000
  H   H4220     1.0  0.63398  0.87368  0.34289  1.0000
  H   H4221     1.0  0.76276  0.93280  0.36807  1.0000
  N   N352      1.0  0.73023  0.92089  0.33967  1.0000
  C   C4245     1.0  0.74690  0.92133  0.34477  1.0000
  H   H4222     1.0  0.72317  0.92577  0.32548  1.0000
  C   C4246     1.0  0.59408  0.84546  0.27320  1.0000
  C   C4247     1.0  0.62657  0.87700  0.33903  1.0000
  C   C4248     1.0  0.73168  0.90973  0.34417  1.0000
  C   C4249     1.0  0.80407  0.82916  0.35407  1.0000
  C   C4250     1.0  0.64021  0.88819  0.21624  1.0000
  C   C4251     1.0  0.61341  0.87076  0.33257  1.0000
  C   C4252     1.0  0.61596  0.85162  0.33171  1.0000
  H   H4223     1.0  0.60865  0.87927  0.33107  1.0000
  H   H4224     1.0  0.59336  0.83894  0.18926  1.0000
  H   H4225     1.0  0.58804  0.84926  0.27963  1.0000
  H   H4226     1.0  0.95121  0.77454  0.37105  1.0000
  C   C4253     1.0  0.74072  0.90413  0.34918  1.0000
  C   C4254     1.0  0.57142  0.83500  0.21560  1.0000
  C   C4255     1.0  0.89357  0.75857  0.34737  1.0000
  S   S1418     1.0  0.95434  0.75370  0.36215  1.0000
  C   C4256     1.0  0.61317  0.83704  0.26580  1.0000
  H   H4227     1.0  0.72579  0.90511  0.34393  1.0000
  N   N353      1.0  0.62293  0.86817  0.33659  1.0000
  H   H4228     1.0  0.98531  0.77610  0.35513  1.0000
  C   C4257     1.0  0.63755  0.87247  0.21166  1.0000
  C   C4258     1.0  0.60825  0.82613  0.18698  1.0000
  C   C4259     1.0  0.83042  0.82561  0.36715  1.0000
  H   H4229     1.0  0.65407  0.87196  0.22741  1.0000
  H   H4230     1.0  0.53567  0.92380  0.23916  1.0000
  C   C4260     1.0  0.77835  0.97085  0.36730  1.0000
  H   H4231     1.0  0.83586  0.83007  0.36042  1.0000
  N   N354      1.0  0.78130  0.97896  0.37026  1.0000
  H   H4232     1.0  0.78802  0.98298  0.38182  1.0000
  N   N355      1.0  0.56363  0.92916  0.28122  1.0000
  H   H4233     1.0  0.57860  0.90533  0.29412  1.0000
  H   H4234     1.0  0.57536  0.84220  0.21407  1.0000
  C   C4261     1.0  0.77966  0.96000  0.37370  1.0000
  H   H4235     1.0  0.79455  0.84546  0.34833  1.0000
  C   C4262     1.0  0.57267  0.92156  0.28446  1.0000
  H   H4236     1.0  0.60239  0.79999  0.20447  1.0000
  S   S1419     1.0  0.61618  0.83090  0.19366  1.0000
  C   C4263     1.0  0.56099  0.90716  0.23230  1.0000
  C   C4264     1.0  0.89446  0.75357  0.33869  1.0000
  H   H4237     1.0  0.75135  0.87795  0.34447  1.0000
  H   H4238     1.0  0.60640  0.81207  0.21448  1.0000
  H   H4239     1.0  0.96770  0.77129  0.35553  1.0000
  C   C4265     1.0  0.55159  0.91673  0.29211  1.0000
  H   H4240     1.0  0.55964  0.90096  0.30078  1.0000
  C   C4266     1.0  0.55316  0.92691  0.28506  1.0000
  C   C4267     1.0  0.56077  0.90889  0.29536  1.0000
  H   H4241     1.0  0.53868  0.90952  0.23821  1.0000
  H   H4242     1.0  0.78587  0.89540  0.37974  1.0000
  S   S1420     1.0  0.98696  0.74847  0.36384  1.0000
  H   H4243     1.0  0.61433  0.95858  0.27421  1.0000
  H   H4244     1.0  0.57104  0.93804  0.26561  1.0000
  H   H4245     1.0  0.56484  0.83766  0.21068  1.0000
  N   N356      1.0  0.55302  0.91664  0.23362  1.0000
  C   C4268     1.0  0.99295  0.75259  0.37259  1.0000
  H   H4246     1.0  0.58280  0.91884  0.21656  1.0000
  C   C4269     1.0  0.83442  0.81439  0.37185  1.0000
  C   C4270     1.0  0.64626  0.86971  0.22735  1.0000
  H   H4247     1.0  0.55737  0.94508  0.27147  1.0000
  H   H4248     1.0  0.58092  0.92341  0.28155  1.0000
  C   C4271     1.0  0.95986  0.78116  0.37915  1.0000
  H   H4249     1.0  0.56912  0.94431  0.27716  1.0000
  H   H4250     1.0  0.77745  0.95351  0.37132  1.0000
  C   C4272     1.0  0.61315  0.81653  0.18256  1.0000
  H   H4251     1.0  0.89080  0.76751  0.34645  1.0000
  H   H4252     1.0  0.89234  0.75861  0.33097  1.0000
  H   H4253     1.0  0.76653  0.82786  0.37359  1.0000
  Fe  Fe710     1.0  0.79765  0.85471  0.37236  1.0000
  S   S1421     1.0  0.85983  0.77389  0.37303  1.0000
  C   C4273     1.0  0.81942  0.83108  0.37112  1.0000
  H   H4254     1.0  0.62728  0.89624  0.19454  1.0000
  H   H4255     1.0  0.77488  0.97276  0.36000  1.0000
  C   C4274     1.0  0.76783  0.92470  0.37065  1.0000
  H   H4256     1.0  0.50496  0.89178  0.25612  1.0000
  H   H4257     1.0  0.81189  0.83071  0.34849  1.0000
  C   C4275     1.0  0.89788  0.74205  0.34009  1.0000
  H   H4258     1.0  0.99047  0.78485  0.37797  1.0000
  C   C4276     1.0  0.96994  0.78391  0.37866  1.0000
  S   S1422     1.0  0.79654  0.86989  0.37855  1.0000
  S   S1423     1.0  0.75765  0.85044  0.37843  1.0000
  H   H4259     1.0  0.77696  0.84211  0.36168  1.0000
  H   H4260     1.0  0.69029  0.93665  0.37733  1.0000
  Fe  Fe711     1.0  0.77242  0.85704  0.37812  1.0000
  C   C4277     1.0  0.82734  0.80853  0.38038  1.0000
  N   N357      1.0  0.89972  0.74066  0.35856  1.0000
  H   H4261     1.0  0.73436  0.85353  0.37847  1.0000
  C   C4278     1.0  0.50077  0.87364  0.24388  1.0000
  S   S1424     1.0  0.72952  0.96802  0.37641  1.0000
  Fe  Fe712     1.0  0.96954  0.74473  0.36932  1.0000
  H   H4262     1.0  0.70297  0.94618  0.38103  1.0000
  C   C4279     1.0  0.78567  0.97654  0.37947  1.0000
  H   H4263     1.0  0.77389  0.81507  0.38071  1.0000
  H   H4264     1.0  0.99677  0.77942  0.36583  1.0000
  H   H4265     1.0  0.90569  0.73832  0.37315  1.0000
  S   S1425     1.0  0.69020  0.88038  0.39318  1.0000
  Fe  Fe713     1.0  0.86247  0.76037  0.38802  1.0000
  H   H4266     1.0  0.71756  0.86956  0.38773  1.0000
  S   S1426     1.0  0.78410  0.86337  0.40998  1.0000
  H   H4267     1.0  0.72884  0.93175  0.48538  1.0000
  C   C4280     1.0  0.87275  0.74591  0.46930  1.0000
  H   H4268     1.0  0.77507  0.89829  0.42096  1.0000
  C   C4281     1.0  0.78687  0.96582  0.38619  1.0000
  S   S1427     1.0  0.85115  0.77054  0.40006  1.0000
  S   S1428     1.0  0.74873  0.96019  0.39175  1.0000
  Fe  Fe714     1.0  0.86631  0.77608  0.40013  1.0000
  S   S1429     1.0  0.87136  0.77601  0.41557  1.0000
  H   H4269     1.0  0.74376  0.87626  0.39850  1.0000
  H   H4270     1.0  0.93914  0.77839  0.55939  1.0000
  H   H4271     1.0  0.87187  0.74499  0.57420  1.0000
  S   S1430     1.0  0.97861  0.75022  0.56883  1.0000
  H   H4272     1.0  0.74447  0.93029  0.46889  1.0000
  H   H4273     1.0  0.75978  0.91393  0.41637  1.0000
  Fe  Fe715     1.0  0.73252  0.95625  0.39225  1.0000
  H   H4274     1.0  0.86971  0.81908  0.57502  1.0000
  S   S1431     1.0  0.88737  0.77844  0.56407  1.0000
  S   S1432     1.0  0.79210  0.87495  0.55235  1.0000
  C   C4282     1.0  0.72760  0.92991  0.47809  1.0000
  H   H4275     1.0  0.95275  0.78245  0.38599  1.0000
  S   S1433     1.0  0.76919  0.87194  0.38528  1.0000
  Fe  Fe716     1.0  0.71895  0.91090  0.54413  1.0000
  S   S1434     1.0  0.73380  0.90262  0.55167  1.0000
  S   S1435     1.0  0.70329  0.91688  0.55614  1.0000
  Fe  Fe717     1.0  0.73204  0.90923  0.52087  1.0000
  S   S1436     1.0  0.74810  0.90116  0.52660  1.0000
  S   S1437     1.0  0.73403  0.91147  0.50233  1.0000
  Fe  Fe718     1.0  0.73768  0.89102  0.54033  1.0000
  S   S1438     1.0  0.74497  0.87312  0.54648  1.0000
  Fe  Fe719     1.0  0.74302  0.91344  0.53747  1.0000
  S   S1439     1.0  0.75611  0.91895  0.54216  1.0000
  S   S1440     1.0  0.72186  0.89809  0.53403  1.0000
  S   S1441     1.0  0.72789  0.92277  0.53048  1.0000
  C   C4283     1.0  0.82954  0.83268  0.39167  1.0000
  C   C4284     1.0  0.86109  0.80191  0.56465  1.0000
  S   S1442     1.0  0.71960  0.95460  0.40792  1.0000
  C   C4285     1.0  0.83461  0.81334  0.40168  1.0000
  C   C4286     1.0  0.92495  0.76882  0.54177  1.0000
  Fe  Fe720     1.0  0.73185  0.89898  0.44236  1.0000
  S   S1443     1.0  0.71376  0.90512  0.44949  1.0000
  S   S1444     1.0  0.74327  0.91094  0.43682  1.0000
  Fe  Fe721     1.0  0.72865  0.87590  0.44460  1.0000
  S   S1445     1.0  0.71030  0.88019  0.45210  1.0000
  S   S1446     1.0  0.73621  0.85964  0.43947  1.0000
  Fe  Fe722     1.0  0.71051  0.89569  0.43868  1.0000
  S   S1447     1.0  0.69900  0.90373  0.42669  1.0000
  Fe  Fe723     1.0  0.71570  0.88910  0.46207  1.0000
  S   S1448     1.0  0.70900  0.88946  0.48029  1.0000
  S   S1449     1.0  0.72854  0.89084  0.43064  1.0000
  S   S1450     1.0  0.73411  0.88345  0.45554  1.0000
  C   C4287     1.0  0.72582  0.94280  0.41658  1.0000
  C   C4288     1.0  0.73618  0.94223  0.41877  1.0000
  C   C4289     1.0  0.74152  0.93246  0.42509  1.0000
  C   C4290     1.0  0.73665  0.92317  0.42892  1.0000
  C   C4291     1.0  0.72648  0.92367  0.42641  1.0000
  C   C4292     1.0  0.72096  0.93354  0.42046  1.0000
  H   H4276     1.0  0.74004  0.94934  0.41566  1.0000
  H   H4277     1.0  0.74945  0.93208  0.42690  1.0000
  H   H4278     1.0  0.72291  0.91642  0.42884  1.0000
  H   H4279     1.0  0.71309  0.93387  0.41857  1.0000
  S   S1451     1.0  0.93143  0.76606  0.38603  1.0000
  H   H4280     1.0  0.88924  0.75857  0.40815  1.0000
  H   H4281     1.0  0.71328  0.88130  0.58134  1.0000
  C   C4293     1.0  0.72730  0.90457  0.49678  1.0000
  C   C4294     1.0  0.71709  0.90165  0.50247  1.0000
  C   C4295     1.0  0.71150  0.89707  0.49732  1.0000
  C   C4296     1.0  0.71614  0.89527  0.48653  1.0000
  C   C4297     1.0  0.72642  0.89806  0.48093  1.0000
  C   C4298     1.0  0.73198  0.90265  0.48605  1.0000
  H   H4282     1.0  0.71336  0.90317  0.51071  1.0000
  H   H4283     1.0  0.70354  0.89494  0.50171  1.0000
  H   H4284     1.0  0.73008  0.89674  0.47262  1.0000
  H   H4285     1.0  0.73989  0.90487  0.48161  1.0000
  C   C4299     1.0  0.74235  0.94568  0.56264  1.0000
  C   C4300     1.0  0.75169  0.93729  0.56471  1.0000
  C   C4301     1.0  0.75579  0.92902  0.55848  1.0000
  C   C4302     1.0  0.75059  0.92912  0.55014  1.0000
  C   C4303     1.0  0.74126  0.93749  0.54806  1.0000
  C   C4304     1.0  0.73724  0.94583  0.55421  1.0000
  H   H4286     1.0  0.75575  0.93716  0.57111  1.0000
  H   H4287     1.0  0.76292  0.92249  0.56023  1.0000
  H   H4288     1.0  0.73730  0.93768  0.54154  1.0000
  H   H4289     1.0  0.73015  0.95243  0.55242  1.0000
  C   C4305     1.0  0.77928  0.87372  0.55059  1.0000
  C   C4306     1.0  0.77160  0.86911  0.55960  1.0000
  C   C4307     1.0  0.76135  0.86827  0.55816  1.0000
  C   C4308     1.0  0.75850  0.87254  0.54782  1.0000
  C   C4309     1.0  0.76614  0.87717  0.53881  1.0000
  C   C4310     1.0  0.77657  0.87764  0.54016  1.0000
  H   H4290     1.0  0.77345  0.86630  0.56773  1.0000
  H   H4291     1.0  0.75548  0.86469  0.56516  1.0000
  H   H4292     1.0  0.76408  0.88033  0.53076  1.0000
  H   H4293     1.0  0.78247  0.88115  0.53315  1.0000
  C   C4311     1.0  0.73049  0.98219  0.40806  1.0000
  S   S1452     1.0  0.96034  0.74489  0.38680  1.0000
  C   C4312     1.0  0.86443  0.81612  0.57161  1.0000
  C   C4313     1.0  0.88213  0.74711  0.55766  1.0000
  C   C4314     1.0  0.91351  0.75042  0.57427  1.0000
  C   C4315     1.0  0.75708  0.89922  0.39507  1.0000
  H   H4294     1.0  0.95442  0.74172  0.56652  1.0000
  C   C4316     1.0  0.88846  0.75397  0.54942  1.0000
  C   C4317     1.0  0.88991  0.76366  0.55138  1.0000
  C   C4318     1.0  0.88501  0.76655  0.56162  1.0000
  C   C4319     1.0  0.87845  0.75984  0.56985  1.0000
  C   C4320     1.0  0.87694  0.75016  0.56783  1.0000
  C   C4321     1.0  0.68050  0.92070  0.39110  1.0000
  H   H4295     1.0  0.89483  0.76891  0.54492  1.0000
  S   S1453     1.0  0.87775  0.76465  0.38948  1.0000
  H   H4296     1.0  0.90311  0.74417  0.56789  1.0000
  H   H4297     1.0  0.95534  0.76311  0.55538  1.0000
  C   C4322     1.0  0.75255  0.91557  0.40264  1.0000
  H   H4298     1.0  0.84917  0.74807  0.43559  1.0000
  C   C4323     1.0  0.91016  0.77683  0.38351  1.0000
  C   C4324     1.0  0.72444  0.92425  0.46001  1.0000
  H   H4299     1.0  0.87446  0.76213  0.57773  1.0000
  H   H4300     1.0  0.75518  0.90341  0.56522  1.0000
  C   C4325     1.0  0.86879  0.76391  0.42530  1.0000
  H   H4301     1.0  0.71534  0.94872  0.56929  1.0000
  N   N358      1.0  0.94143  0.76871  0.54755  1.0000
  C   C4326     1.0  0.94301  0.74055  0.55749  1.0000
  C   C4327     1.0  0.75902  0.90972  0.41044  1.0000
  C   C4328     1.0  0.87730  0.75691  0.43047  1.0000
  H   H4302     1.0  0.70370  0.89677  0.38988  1.0000
  N   N359      1.0  0.76435  0.89887  0.41058  1.0000
  H   H4303     1.0  0.88512  0.75939  0.42911  1.0000
  H   H4304     1.0  0.78238  0.93672  0.54732  1.0000
  C   C4329     1.0  0.90611  0.76467  0.41185  1.0000
  H   H4305     1.0  0.74846  0.92420  0.40257  1.0000
  H   H4306     1.0  0.77610  0.89880  0.54600  1.0000
  C   C4330     1.0  0.73483  0.92614  0.45976  1.0000
  C   C4331     1.0  0.77114  0.86155  0.41858  1.0000
  C   C4332     1.0  0.76751  0.86529  0.42849  1.0000
  C   C4333     1.0  0.75673  0.86475  0.43492  1.0000
  C   C4334     1.0  0.74983  0.85993  0.43173  1.0000
  C   C4335     1.0  0.75363  0.85579  0.42203  1.0000
  C   C4336     1.0  0.76419  0.85682  0.41533  1.0000
  H   H4307     1.0  0.77295  0.86873  0.43114  1.0000
  H   H4308     1.0  0.75384  0.86787  0.44246  1.0000
  H   H4309     1.0  0.74832  0.85201  0.41958  1.0000
  H   H4310     1.0  0.76699  0.85383  0.40772  1.0000
  H   H4311     1.0  0.74165  0.92520  0.45259  1.0000
  C   C4337     1.0  0.85707  0.75045  0.43409  1.0000
  C   C4338     1.0  0.69332  0.88663  0.40235  1.0000
  C   C4339     1.0  0.70024  0.89433  0.39861  1.0000
  C   C4340     1.0  0.70270  0.89894  0.40621  1.0000
  C   C4341     1.0  0.69816  0.89598  0.41760  1.0000
  C   C4342     1.0  0.69141  0.88816  0.42135  1.0000
  C   C4343     1.0  0.68908  0.88344  0.41377  1.0000
  S   S1454     1.0  0.76342  0.96307  0.57457  1.0000
  H   H4312     1.0  0.70787  0.90504  0.40322  1.0000
  H   H4313     1.0  0.68763  0.88602  0.43008  1.0000
  H   H4314     1.0  0.68374  0.87748  0.41676  1.0000
  H   H4315     1.0  0.80401  0.82932  0.38293  1.0000
  H   H4316     1.0  0.84480  0.80504  0.56118  1.0000
  C   C4344     1.0  0.93516  0.77564  0.55447  1.0000
  H   H4317     1.0  0.73586  0.87516  0.38324  1.0000
  H   H4318     1.0  0.92105  0.76584  0.53694  1.0000
  H   H4319     1.0  0.71269  0.89357  0.56284  1.0000
  H   H4320     1.0  0.73488  0.87506  0.57606  1.0000
  H   H4321     1.0  0.92842  0.78308  0.57591  1.0000
  Fe  Fe724     1.0  0.75638  0.94650  0.38247  1.0000
  C   C4345     1.0  0.75025  0.89961  0.57297  1.0000
  H   H4322     1.0  0.82911  0.81982  0.57067  1.0000
  C   C4346     1.0  0.77066  0.89281  0.41918  1.0000
  H   H4323     1.0  0.72325  0.97810  0.39678  1.0000
  C   C4347     1.0  0.73640  0.92901  0.46886  1.0000
  H   H4324     1.0  0.97756  0.75669  0.38431  1.0000
  H   H4325     1.0  0.71076  0.92802  0.48554  1.0000
  N   N360      1.0  0.71584  0.92517  0.46908  1.0000
  S   S1455     1.0  0.80835  0.86526  0.57726  1.0000
  H   H4326     1.0  0.83926  0.81262  0.40808  1.0000
  N   N361      1.0  0.84673  0.81831  0.56705  1.0000
  C   C4348     1.0  0.71595  0.94039  0.57440  1.0000
  C   C4349     1.0  0.68918  0.92453  0.40417  1.0000
  C   C4350     1.0  0.83548  0.82485  0.56607  1.0000
  C   C4351     1.0  0.81676  0.82570  0.40773  1.0000
  H   H4327     1.0  0.75890  0.97878  0.38979  1.0000
  C   C4352     1.0  0.93652  0.76549  0.54105  1.0000
  C   C4353     1.0  0.73575  0.87399  0.40032  1.0000
  H   H4328     1.0  0.91380  0.76796  0.40767  1.0000
  H   H4329     1.0  0.77313  0.82804  0.38424  1.0000
  C   C4354     1.0  0.73134  0.87329  0.39178  1.0000
  C   C4355     1.0  0.78383  0.95751  0.38326  1.0000
  H   H4330     1.0  0.73093  0.97402  0.41354  1.0000
  H   H4331     1.0  0.72336  0.92193  0.45292  1.0000
  H   H4332     1.0  0.78389  0.91048  0.38939  1.0000
  H   H4333     1.0  0.72091  0.91365  0.57195  1.0000
  H   H4334     1.0  0.77713  0.88564  0.41655  1.0000
  C   C4356     1.0  0.70267  0.90787  0.56926  1.0000
  C   C4357     1.0  0.70123  0.93767  0.39822  1.0000
  H   H4335     1.0  0.90540  0.76270  0.42095  1.0000
  N   N362      1.0  0.73696  0.87564  0.51411  1.0000
  C   C4358     1.0  0.73469  0.87520  0.50444  1.0000
  C   C4359     1.0  0.72970  0.87304  0.52401  1.0000
  C   C4360     1.0  0.72505  0.87189  0.50455  1.0000
  C   C4361     1.0  0.71989  0.86986  0.52440  1.0000
  C   C4362     1.0  0.71757  0.86930  0.51459  1.0000
  C   C4363     1.0  0.74697  0.87943  0.51370  1.0000
  H   H4336     1.0  0.74025  0.87762  0.49655  1.0000
  H   H4337     1.0  0.73142  0.87349  0.53168  1.0000
  H   H4338     1.0  0.72319  0.87171  0.49684  1.0000
  H   H4339     1.0  0.71411  0.86795  0.53227  1.0000
  H   H4340     1.0  0.70992  0.86700  0.51473  1.0000
  H   H4341     1.0  0.74558  0.88860  0.51064  1.0000
  H   H4342     1.0  0.74901  0.87735  0.52201  1.0000
  H   H4343     1.0  0.75435  0.87541  0.50810  1.0000
  N   N363      1.0  0.78568  0.90988  0.54618  1.0000
  C   C4364     1.0  0.78251  0.92123  0.54355  1.0000
  C   C4365     1.0  0.79132  0.90473  0.55452  1.0000
  C   C4366     1.0  0.78509  0.92774  0.54926  1.0000
  C   C4367     1.0  0.79411  0.91100  0.56033  1.0000
  C   C4368     1.0  0.79098  0.92258  0.55766  1.0000
  C   C4369     1.0  0.78272  0.90309  0.54037  1.0000
  N   N364      1.0  0.82674  0.82413  0.40022  1.0000
  H   H4344     1.0  0.79367  0.89572  0.55670  1.0000
  H   H4345     1.0  0.77773  0.92531  0.53719  1.0000
  H   H4346     1.0  0.79862  0.90691  0.56692  1.0000
  S   S1456     1.0  0.73661  0.95569  0.57083  1.0000
  C   C4370     1.0  0.70853  0.89682  0.57020  1.0000
  C   C4371     1.0  0.80923  0.83602  0.40669  1.0000
  H   H4347     1.0  0.71330  0.87255  0.42951  1.0000
  C   C4372     1.0  0.91647  0.74695  0.40691  1.0000
  H   H4348     1.0  0.84076  0.81215  0.39382  1.0000
  H   H4349     1.0  0.70672  0.94186  0.39997  1.0000
  C   C4373     1.0  0.74666  0.88999  0.57371  1.0000
  C   C4374     1.0  0.91845  0.77566  0.54901  1.0000
  H   H4350     1.0  0.90944  0.77818  0.54974  1.0000
  C   C4375     1.0  0.71813  0.93141  0.56933  1.0000
  C   C4376     1.0  0.81636  0.81399  0.38433  1.0000
  H   H4351     1.0  0.83324  0.83235  0.56968  1.0000
  C   C4377     1.0  0.69615  0.92990  0.40659  1.0000
  C   C4378     1.0  0.72616  0.98447  0.39862  1.0000
  H   H4352     1.0  0.77945  0.90815  0.53294  1.0000
  C   C4379     1.0  0.71920  0.92066  0.57580  1.0000
  Fe  Fe725     1.0  0.79325  0.86824  0.57012  1.0000
  C   C4380     1.0  0.69913  0.94010  0.38761  1.0000
  N   N365      1.0  0.71977  0.86849  0.41367  1.0000
  C   C4381     1.0  0.72977  0.87162  0.41127  1.0000
  C   C4382     1.0  0.71554  0.86749  0.40537  1.0000
  S   S1457     1.0  0.78804  0.93769  0.58148  1.0000
  H   H4353     1.0  0.81086  0.80950  0.39096  1.0000
  H   H4354     1.0  0.79015  0.89673  0.53760  1.0000
  H   H4355     1.0  0.70516  0.86512  0.42602  1.0000
  H   H4356     1.0  0.73319  0.87225  0.41788  1.0000
  C   C4383     1.0  0.76335  0.89354  0.40313  1.0000
  C   C4384     1.0  0.72115  0.87006  0.39430  1.0000
  Fe  Fe726     1.0  0.74783  0.95628  0.58143  1.0000
  C   C4385     1.0  0.75879  0.98756  0.38756  1.0000
  Fe  Fe727     1.0  0.78394  0.86287  0.39280  1.0000
  H   H4357     1.0  0.83012  0.80640  0.40417  1.0000
  S   S1458     1.0  0.92966  0.74071  0.54414  1.0000
  H   H4358     1.0  0.87648  0.80100  0.56913  1.0000
  H   H4359     1.0  0.88281  0.74083  0.44030  1.0000
  C   C4386     1.0  0.82216  0.84307  0.39034  1.0000
  H   H4360     1.0  0.90953  0.78014  0.39058  1.0000
  H   H4361     1.0  0.93630  0.74134  0.42274  1.0000
  C   C4387     1.0  0.71736  0.92781  0.47812  1.0000
  H   H4362     1.0  0.82423  0.84971  0.38331  1.0000
  H   H4363     1.0  0.68530  0.91847  0.41073  1.0000
  H   H4364     1.0  0.79012  0.96398  0.39361  1.0000
  N   N366      1.0  0.90660  0.75459  0.40827  1.0000
  C   C4388     1.0  0.99121  0.76093  0.38804  1.0000
  H   H4365     1.0  0.88956  0.74086  0.40382  1.0000
  C   C4389     1.0  0.71385  0.86586  0.42527  1.0000
  H   H4366     1.0  0.89203  0.75199  0.54140  1.0000
  C   C4390     1.0  0.85862  0.76075  0.42724  1.0000
  H   H4367     1.0  0.85193  0.76627  0.42348  1.0000
  C   C4391     1.0  0.89706  0.75249  0.40710  1.0000
  H   H4368     1.0  0.70585  0.91355  0.47154  1.0000
  S   S1459     1.0  0.83169  0.79440  0.38641  1.0000
  H   H4369     1.0  0.80619  0.85275  0.39703  1.0000
  C   C4392     1.0  0.70518  0.92269  0.46933  1.0000
  H   H4370     1.0  0.85078  0.83013  0.57342  1.0000
  H   H4371     1.0  0.95697  0.75717  0.54382  1.0000
  S   S1460     1.0  0.77127  0.93323  0.38646  1.0000
  H   H4372     1.0  0.95792  0.77152  0.54150  1.0000
  H   H4373     1.0  0.76756  0.88492  0.40328  1.0000
  H   H4374     1.0  0.69822  0.92644  0.47551  1.0000
  H   H4375     1.0  0.70290  0.92600  0.46111  1.0000
  H   H4376     1.0  0.91855  0.78447  0.56104  1.0000
  H   H4377     1.0  0.71844  0.85792  0.42965  1.0000
  H   H4378     1.0  0.69767  0.92790  0.41489  1.0000
  H   H4379     1.0  0.94145  0.75994  0.53559  1.0000
  H   H4380     1.0  0.78469  0.94913  0.38835  1.0000
  S   S1461     1.0  0.78593  0.84718  0.38728  1.0000
  C   C4393     1.0  0.75166  0.91031  0.39485  1.0000
  H   H4381     1.0  0.74697  0.91489  0.38851  1.0000
  H   H4382     1.0  0.89881  0.77133  0.40977  1.0000
  C   C4394     1.0  0.95351  0.76497  0.54698  1.0000
  H   H4383     1.0  0.70765  0.86492  0.40722  1.0000
  H   H4384     1.0  0.86392  0.79387  0.56236  1.0000
  H   H4385     1.0  0.83738  0.83143  0.38563  1.0000
  H   H4386     1.0  0.93713  0.74797  0.55940  1.0000
  C   C4395     1.0  0.86817  0.80591  0.56846  1.0000
  H   H4387     1.0  0.87121  0.75367  0.46328  1.0000
  C   C4396     1.0  0.70894  0.88990  0.58069  1.0000
  C   C4397     1.0  0.69208  0.93459  0.38551  1.0000
  H   H4388     1.0  0.88396  0.75101  0.47590  1.0000
  H   H4389     1.0  0.98598  0.76442  0.39499  1.0000
  C   C4398     1.0  0.92356  0.77915  0.55538  1.0000
  S   S1462     1.0  0.86429  0.79090  0.38614  1.0000
  C   C4399     1.0  0.69707  0.91193  0.57888  1.0000
  C   C4400     1.0  0.87596  0.74640  0.43686  1.0000
  N   N367      1.0  0.68753  0.92664  0.39364  1.0000
  H   H4390     1.0  0.79303  0.92756  0.56213  1.0000
  S   S1463     1.0  0.86365  0.74197  0.39069  1.0000
  H   H4391     1.0  0.76481  0.88973  0.42691  1.0000
  H   H4392     1.0  0.91676  0.75525  0.56625  1.0000
  C   C4401     1.0  0.85365  0.82229  0.57077  1.0000
  H   H4393     1.0  0.75668  0.89516  0.38885  1.0000
  S   S1464     1.0  0.78931  0.85173  0.57899  1.0000
  C   C4402     1.0  0.90579  0.74406  0.57525  1.0000
  C   C4403     1.0  0.85031  0.80825  0.56403  1.0000
  C   C4404     1.0  0.81198  0.84473  0.39793  1.0000
  H   H4394     1.0  0.71897  0.93275  0.56045  1.0000
  C   C4405     1.0  0.77976  0.91210  0.38262  1.0000
  H   H4395     1.0  0.74897  0.88637  0.56649  1.0000
  S   S1465     1.0  0.95095  0.77092  0.57718  1.0000
  C   C4406     1.0  0.86590  0.74310  0.43856  1.0000
  H   H4396     1.0  0.69252  0.92048  0.57818  1.0000
  H   H4397     1.0  0.68037  0.91246  0.39687  1.0000
  H   H4398     1.0  0.81457  0.81895  0.41455  1.0000
  H   H4399     1.0  0.83491  0.82763  0.55723  1.0000
  Fe  Fe728     1.0  0.84968  0.78468  0.38520  1.0000
  H   H4400     1.0  0.76792  0.98672  0.39978  1.0000
  S   S1466     1.0  0.74031  0.94142  0.38468  1.0000
  H   H4401     1.0  0.92403  0.74865  0.40781  1.0000
  H   H4402     1.0  0.97057  0.78738  0.38523  1.0000
  H   H4403     1.0  0.80128  0.83730  0.41259  1.0000
  C   C4407     1.0  0.87990  0.74442  0.47636  1.0000
  C   C4408     1.0  0.89721  0.74247  0.40463  1.0000
  H   H4404     1.0  0.67181  0.92570  0.39168  1.0000
  H   H4405     1.0  0.68382  0.91907  0.38259  1.0000
  H   H4406     1.0  0.75025  0.91169  0.58181  1.0000
  Fe  Fe729     1.0  0.96394  0.75566  0.58206  1.0000
  Fe  Fe730     1.0  0.88138  0.77857  0.58209  1.0000
  H   H4407     1.0  0.86225  0.73847  0.46434  1.0000
  H   H4408     1.0  0.56149  0.96526  0.72573  1.0000
  H   H4409     1.0  0.54671  0.86463  0.76771  1.0000
  H   H4410     1.0  0.86675  0.75699  0.63138  1.0000
  S   S1467     1.0  0.81233  0.83123  0.58967  1.0000
  S   S1468     1.0  0.97406  0.75184  0.59509  1.0000
  Fe  Fe731     1.0  0.62027  0.90508  0.71735  1.0000
  S   S1469     1.0  0.62049  0.89652  0.70414  1.0000
  S   S1470     1.0  0.62619  0.89694  0.73317  1.0000
  Fe  Fe732     1.0  0.60643  0.92674  0.70732  1.0000
  S   S1471     1.0  0.60496  0.92011  0.69353  1.0000
  S   S1472     1.0  0.59818  0.94410  0.70924  1.0000
  Fe  Fe733     1.0  0.60225  0.90480  0.70648  1.0000
  S   S1473     1.0  0.58909  0.89513  0.70911  1.0000
  Fe  Fe734     1.0  0.62332  0.91261  0.69230  1.0000
  S   S1474     1.0  0.63324  0.91611  0.67466  1.0000
  S   S1475     1.0  0.60186  0.91219  0.72043  1.0000
  S   S1476     1.0  0.62493  0.92039  0.70533  1.0000
  N   N368      1.0  0.60784  0.91489  0.78008  1.0000
  Fe  Fe735     1.0  0.86880  0.79284  0.59874  1.0000
  H   H4411     1.0  0.91017  0.78140  0.58866  1.0000
  C   C4409     1.0  0.71295  0.94803  0.59082  1.0000
  C   C4410     1.0  0.80157  0.91748  0.58661  1.0000
  S   S1477     1.0  0.88572  0.76330  0.59490  1.0000
  N   N369      1.0  0.49901  0.88240  0.74704  1.0000
  S   S1478     1.0  0.55171  0.96462  0.74967  1.0000
  Fe  Fe736     1.0  0.86813  0.76836  0.60395  1.0000
  S   S1479     1.0  0.85718  0.75605  0.61230  1.0000
  S   S1480     1.0  0.51113  0.90775  0.75517  1.0000
  S   S1481     1.0  0.87208  0.77880  0.61323  1.0000
  Fe  Fe737     1.0  0.71743  0.89238  0.63299  1.0000
  S   S1482     1.0  0.70607  0.88144  0.63375  1.0000
  S   S1483     1.0  0.73546  0.88690  0.63434  1.0000
  Fe  Fe738     1.0  0.70057  0.91337  0.62641  1.0000
  S   S1484     1.0  0.68776  0.90432  0.62625  1.0000
  S   S1485     1.0  0.69872  0.93188  0.62173  1.0000
  Fe  Fe739     1.0  0.69235  0.89362  0.64217  1.0000
  S   S1486     1.0  0.68100  0.88724  0.65830  1.0000
  Fe  Fe740     1.0  0.70262  0.89298  0.61784  1.0000
  S   S1487     1.0  0.70547  0.88532  0.60319  1.0000
  S   S1488     1.0  0.70411  0.90355  0.64287  1.0000
  S   S1489     1.0  0.71487  0.90308  0.61660  1.0000
  C   C4411     1.0  0.78100  0.90461  0.61642  1.0000
  H   H4412     1.0  0.55692  0.92006  0.72971  1.0000
  H   H4413     1.0  0.84716  0.83281  0.59839  1.0000
  S   S1490     1.0  0.79200  0.85703  0.60147  1.0000
  S   S1491     1.0  0.76123  0.85779  0.59903  1.0000
  H   H4414     1.0  0.75389  0.97629  0.61118  1.0000
  S   S1492     1.0  0.79917  0.88552  0.59830  1.0000
  C   C4412     1.0  0.75839  0.98645  0.62466  1.0000
  N   N370      1.0  0.71482  0.93867  0.58560  1.0000
  H   H4415     1.0  0.88006  0.74269  0.61134  1.0000
  C   C4413     1.0  0.79074  0.92307  0.58538  1.0000
  C   C4414     1.0  0.86296  0.74178  0.61314  1.0000
  C   C4415     1.0  0.74105  0.89928  0.59213  1.0000
  H   H4416     1.0  0.88610  0.76003  0.62634  1.0000
  H   H4417     1.0  0.53338  0.89959  0.78149  1.0000
  C   C4416     1.0  0.59603  0.83530  0.77808  1.0000
  Fe  Fe741     1.0  0.75073  0.95112  0.60503  1.0000
  S   S1493     1.0  0.74373  0.94326  0.62249  1.0000
  S   S1494     1.0  0.76667  0.95721  0.60027  1.0000
  Fe  Fe742     1.0  0.58768  0.95888  0.76170  1.0000
  H   H4418     1.0  0.78954  0.89993  0.61627  1.0000
  S   S1495     1.0  0.60473  0.95055  0.75369  1.0000
  Fe  Fe743     1.0  0.56324  0.96410  0.76045  1.0000
  C   C4417     1.0  0.55721  0.90651  0.75826  1.0000
  C   C4418     1.0  0.57307  0.93787  0.72806  1.0000
  C   C4419     1.0  0.60354  0.84097  0.76989  1.0000
  S   S1496     1.0  0.57657  0.97403  0.75384  1.0000
  S   S1497     1.0  0.57485  0.94847  0.76675  1.0000
  Fe  Fe744     1.0  0.52870  0.91857  0.72669  1.0000
  S   S1498     1.0  0.53626  0.91105  0.74147  1.0000
  S   S1499     1.0  0.54039  0.92532  0.71131  1.0000
  S   S1500     1.0  0.90452  0.76795  0.61075  1.0000
  C   C4420     1.0  0.75919  0.91634  0.61640  1.0000
  Fe  Fe745     1.0  0.52104  0.92093  0.75064  1.0000
  S   S1501     1.0  0.52508  0.92613  0.76421  1.0000
  Fe  Fe746     1.0  0.52608  0.89835  0.74515  1.0000
  H   H4419     1.0  0.52405  0.94604  0.74685  1.0000
  S   S1502     1.0  0.51405  0.92975  0.73548  1.0000
  S   S1503     1.0  0.51993  0.90469  0.72929  1.0000
  C   C4421     1.0  0.53304  0.93640  0.75951  1.0000
  C   C4422     1.0  0.54148  0.93579  0.76487  1.0000
  C   C4423     1.0  0.54726  0.94442  0.76192  1.0000
  C   C4424     1.0  0.54465  0.95367  0.75355  1.0000
  C   C4425     1.0  0.53634  0.95417  0.74806  1.0000
  C   C4426     1.0  0.53062  0.94549  0.75095  1.0000
  C   C4427     1.0  0.74746  0.90425  0.58227  1.0000
  H   H4420     1.0  0.55363  0.94398  0.76620  1.0000
  H   H4421     1.0  0.53419  0.96139  0.74169  1.0000
  H   H4422     1.0  0.54852  0.90918  0.76229  1.0000
  C   C4428     1.0  0.73734  0.88984  0.59247  1.0000
  H   H4423     1.0  0.82502  0.80900  0.59321  1.0000
  N   N371      1.0  0.74019  0.88531  0.58333  1.0000
  H   H4424     1.0  0.72922  0.87397  0.59065  1.0000
  H   H4425     1.0  0.99544  0.76316  0.59135  1.0000
  S   S1504     1.0  0.78132  0.87749  0.58260  1.0000
  C   C4429     1.0  0.71548  0.92817  0.59206  1.0000
  H   H4426     1.0  0.80089  0.83215  0.62650  1.0000
  C   C4430     1.0  0.91780  0.77646  0.59109  1.0000
  S   S1505     1.0  0.88670  0.78977  0.58935  1.0000
  C   C4431     1.0  0.89343  0.74281  0.63188  1.0000
  C   C4432     1.0  0.71088  0.93526  0.62263  1.0000
  C   C4433     1.0  0.71268  0.94605  0.61812  1.0000
  C   C4434     1.0  0.72278  0.94855  0.61805  1.0000
  C   C4435     1.0  0.73085  0.94041  0.62301  1.0000
  C   C4436     1.0  0.72881  0.92978  0.62800  1.0000
  C   C4437     1.0  0.71899  0.92713  0.62755  1.0000
  H   H4427     1.0  0.70636  0.95244  0.61451  1.0000
  H   H4428     1.0  0.72424  0.95682  0.61432  1.0000
  H   H4429     1.0  0.73494  0.92348  0.63200  1.0000
  H   H4430     1.0  0.71774  0.91879  0.63103  1.0000
  C   C4438     1.0  0.79603  0.89973  0.59204  1.0000
  C   C4439     1.0  0.87361  0.74999  0.63300  1.0000
  H   H4431     1.0  0.54862  0.95553  0.72509  1.0000
  Fe  Fe747     1.0  0.75776  0.97157  0.58901  1.0000
  C   C4440     1.0  0.54384  0.87227  0.77070  1.0000
  H   H4432     1.0  0.81240  0.90176  0.59160  1.0000
  C   C4441     1.0  0.56535  0.91183  0.75849  1.0000
  C   C4442     1.0  0.74639  0.98126  0.61581  1.0000
  C   C4443     1.0  0.74276  0.87819  0.62510  1.0000
  C   C4444     1.0  0.73694  0.87327  0.62067  1.0000
  C   C4445     1.0  0.74271  0.86671  0.61292  1.0000
  C   C4446     1.0  0.75429  0.86539  0.60926  1.0000
  C   C4447     1.0  0.76019  0.87022  0.61371  1.0000
  C   C4448     1.0  0.75443  0.87644  0.62181  1.0000
  H   H4433     1.0  0.72797  0.87447  0.62321  1.0000
  H   H4434     1.0  0.73813  0.86289  0.60958  1.0000
  H   H4435     1.0  0.76916  0.86917  0.61095  1.0000
  H   H4436     1.0  0.75897  0.88001  0.62541  1.0000
  C   C4449     1.0  0.84682  0.81619  0.59801  1.0000
  C   C4450     1.0  0.83162  0.83237  0.59494  1.0000
  Fe  Fe748     1.0  0.79586  0.87321  0.59067  1.0000
  H   H4437     1.0  0.51745  0.87655  0.72372  1.0000
  S   S1506     1.0  0.95853  0.73941  0.58757  1.0000
  H   H4438     1.0  0.58094  0.88661  0.73423  1.0000
  C   C4451     1.0  0.92737  0.76337  0.60479  1.0000
  H   H4439     1.0  0.84388  0.80070  0.59720  1.0000
  C   C4452     1.0  0.53369  0.89137  0.76890  1.0000
  H   H4440     1.0  0.82827  0.84121  0.59421  1.0000
  H   H4441     1.0  0.59877  0.94272  0.77682  1.0000
  C   C4453     1.0  0.60134  0.93415  0.78092  1.0000
  C   C4454     1.0  0.49971  0.87729  0.72714  1.0000
  H   H4442     1.0  0.78401  0.84328  0.63689  1.0000
  H   H4443     1.0  0.78631  0.92972  0.60669  1.0000
  H   H4444     1.0  0.92712  0.75827  0.61306  1.0000
  H   H4445     1.0  0.57468  0.95977  0.71724  1.0000
  H   H4446     1.0  0.57645  0.92012  0.72963  1.0000
  C   C4455     1.0  0.57648  0.90825  0.75333  1.0000
  H   H4447     1.0  0.57286  0.95755  0.73214  1.0000
  C   C4456     1.0  0.76780  0.92182  0.61481  1.0000
  C   C4457     1.0  0.64612  0.90749  0.67005  1.0000
  C   C4458     1.0  0.65201  0.91051  0.65912  1.0000
  C   C4459     1.0  0.66263  0.90422  0.65533  1.0000
  C   C4460     1.0  0.66735  0.89480  0.66244  1.0000
  C   C4461     1.0  0.66127  0.89156  0.67326  1.0000
  C   C4462     1.0  0.65068  0.89791  0.67709  1.0000
  H   H4448     1.0  0.64845  0.91788  0.65363  1.0000
  H   H4449     1.0  0.66721  0.90669  0.64694  1.0000
  H   H4450     1.0  0.66490  0.88425  0.67877  1.0000
  H   H4451     1.0  0.64617  0.89552  0.68553  1.0000
  C   C4463     1.0  0.60110  0.94623  0.72096  1.0000
  C   C4464     1.0  0.59661  0.95645  0.72408  1.0000
  C   C4465     1.0  0.59788  0.95783  0.73407  1.0000
  C   C4466     1.0  0.60394  0.94911  0.74079  1.0000
  C   C4467     1.0  0.60883  0.93902  0.73746  1.0000
  C   C4468     1.0  0.60731  0.93754  0.72761  1.0000
  H   H4452     1.0  0.59206  0.96327  0.71884  1.0000
  H   H4453     1.0  0.59432  0.96572  0.73649  1.0000
  H   H4454     1.0  0.61357  0.93228  0.74261  1.0000
  H   H4455     1.0  0.61087  0.92963  0.72523  1.0000
  C   C4469     1.0  0.57559  0.90355  0.70949  1.0000
  C   C4470     1.0  0.57407  0.91489  0.70459  1.0000
  C   C4471     1.0  0.56322  0.92146  0.70478  1.0000
  C   C4472     1.0  0.55388  0.91680  0.71024  1.0000
  C   C4473     1.0  0.55541  0.90550  0.71532  1.0000
  C   C4474     1.0  0.56625  0.89885  0.71477  1.0000
  H   H4456     1.0  0.58122  0.91860  0.70052  1.0000
  H   H4457     1.0  0.56207  0.93022  0.70093  1.0000
  H   H4458     1.0  0.54822  0.90185  0.71952  1.0000
  H   H4459     1.0  0.56738  0.89006  0.71847  1.0000
  C   C4475     1.0  0.61689  0.88860  0.74166  1.0000
  C   C4476     1.0  0.61463  0.88712  0.75321  1.0000
  C   C4477     1.0  0.60687  0.88073  0.75995  1.0000
  C   C4478     1.0  0.60171  0.87551  0.75510  1.0000
  C   C4479     1.0  0.60414  0.87682  0.74358  1.0000
  C   C4480     1.0  0.61153  0.88354  0.73686  1.0000
  H   H4460     1.0  0.61879  0.89102  0.75691  1.0000
  H   H4461     1.0  0.50692  0.88419  0.75902  1.0000
  H   H4462     1.0  0.60023  0.87274  0.73981  1.0000
  H   H4463     1.0  0.61327  0.88462  0.72796  1.0000
  C   C4481     1.0  0.78528  0.90522  0.59028  1.0000
  C   C4482     1.0  0.70386  0.89407  0.59029  1.0000
  C   C4483     1.0  0.53726  0.88152  0.76499  1.0000
  C   C4484     1.0  0.91738  0.76944  0.60159  1.0000
  H   H4464     1.0  0.73890  0.90271  0.59948  1.0000
  C   C4485     1.0  0.93769  0.76384  0.59732  1.0000
  H   H4465     1.0  0.76583  0.93080  0.61365  1.0000
  H   H4466     1.0  0.94537  0.75904  0.59979  1.0000
  N   N372      1.0  0.57122  0.89442  0.74754  1.0000
  H   H4467     1.0  0.74227  0.97564  0.62306  1.0000
  N   N373      1.0  0.78181  0.83225  0.61258  1.0000
  C   C4486     1.0  0.77241  0.83792  0.61855  1.0000
  C   C4487     1.0  0.79187  0.82988  0.61558  1.0000
  S   S1507     1.0  0.86327  0.78273  0.59029  1.0000
  H   H4468     1.0  0.60467  0.92802  0.76615  1.0000
  N   N374      1.0  0.87165  0.73952  0.63760  1.0000
  C   C4488     1.0  0.84052  0.80951  0.59658  1.0000
  H   H4469     1.0  0.76436  0.83949  0.61641  1.0000
  H   H4470     1.0  0.79928  0.82514  0.61104  1.0000
  Fe  Fe749     1.0  0.57172  0.97851  0.77054  1.0000
  H   H4471     1.0  0.77893  0.90049  0.59186  1.0000
  H   H4472     1.0  0.57759  0.87733  0.74756  1.0000
  C   C4489     1.0  0.61948  0.85020  0.76403  1.0000
  C   C4490     1.0  0.98723  0.73955  0.61896  1.0000
  C   C4491     1.0  0.82982  0.81423  0.59436  1.0000
  H   H4473     1.0  0.58156  0.93784  0.72820  1.0000
  N   N375      1.0  0.61207  0.90293  0.67265  1.0000
  C   C4492     1.0  0.60587  0.89701  0.68161  1.0000
  C   C4493     1.0  0.62300  0.89840  0.66854  1.0000
  C   C4494     1.0  0.61068  0.88634  0.68682  1.0000
  C   C4495     1.0  0.62812  0.88782  0.67363  1.0000
  C   C4496     1.0  0.62190  0.88177  0.68285  1.0000
  C   C4497     1.0  0.60710  0.91421  0.66732  1.0000
  H   H4474     1.0  0.59720  0.90057  0.68493  1.0000
  H   H4475     1.0  0.62795  0.90315  0.66151  1.0000
  H   H4476     1.0  0.60578  0.88179  0.69408  1.0000
  H   H4477     1.0  0.63692  0.88446  0.67056  1.0000
  H   H4478     1.0  0.62581  0.87362  0.68698  1.0000
  H   H4479     1.0  0.59855  0.91729  0.67201  1.0000
  H   H4480     1.0  0.61231  0.92007  0.66693  1.0000
  H   H4481     1.0  0.60660  0.91438  0.65879  1.0000
  S   S1508     1.0  0.58393  0.96394  0.77796  1.0000
  C   C4498     1.0  0.57928  0.89947  0.74786  1.0000
  C   C4499     1.0  0.82538  0.82568  0.59342  1.0000
  N   N376      1.0  0.67435  0.92354  0.65912  1.0000
  C   C4500     1.0  0.67873  0.91413  0.66605  1.0000
  C   C4501     1.0  0.66397  0.92975  0.66262  1.0000
  C   C4502     1.0  0.67279  0.91086  0.67687  1.0000
  C   C4503     1.0  0.65778  0.92670  0.67339  1.0000
  C   C4504     1.0  0.66225  0.91721  0.68055  1.0000
  C   C4505     1.0  0.68061  0.92655  0.64771  1.0000
  H   H4482     1.0  0.68671  0.90889  0.66313  1.0000
  H   H4483     1.0  0.66030  0.93697  0.65702  1.0000
  H   H4484     1.0  0.67616  0.90322  0.68220  1.0000
  H   H4485     1.0  0.64940  0.93142  0.67604  1.0000
  H   H4486     1.0  0.65738  0.91458  0.68879  1.0000
  H   H4487     1.0  0.68956  0.92590  0.64752  1.0000
  H   H4488     1.0  0.68014  0.92092  0.64272  1.0000
  H   H4489     1.0  0.67734  0.93524  0.64361  1.0000
  H   H4490     1.0  0.78709  0.92405  0.62107  1.0000
  C   C4506     1.0  0.56875  0.95809  0.72535  1.0000
  H   H4491     1.0  0.76563  0.84692  0.63172  1.0000
  H   H4492     1.0  0.74373  0.86778  0.58584  1.0000
  C   C4507     1.0  0.78739  0.92193  0.61317  1.0000
  H   H4493     1.0  0.55402  0.89350  0.75278  1.0000
  C   C4508     1.0  0.55146  0.93782  0.72753  1.0000
  C   C4509     1.0  0.93810  0.77074  0.58678  1.0000
  H   H4494     1.0  0.79582  0.91689  0.61032  1.0000
  S   S1509     1.0  0.55737  0.96965  0.77660  1.0000
  N   N377      1.0  0.77856  0.91596  0.61470  1.0000
  H   H4495     1.0  0.77847  0.82025  0.60609  1.0000
  H   H4496     1.0  0.77465  0.88989  0.61907  1.0000
  H   H4497     1.0  0.75070  0.92106  0.61639  1.0000
  Fe  Fe750     1.0  0.50565  0.91530  0.73909  1.0000
  C   C4510     1.0  0.99255  0.74576  0.62251  1.0000
  C   C4511     1.0  0.79282  0.83379  0.62437  1.0000
  C   C4512     1.0  0.57020  0.92781  0.72904  1.0000
  C   C4513     1.0  0.77258  0.89886  0.61802  1.0000
  H   H4498     1.0  0.62039  0.90349  0.77168  1.0000
  C   C4514     1.0  0.84230  0.82761  0.59729  1.0000
  H   H4499     1.0  0.77476  0.83449  0.59867  1.0000
  C   C4515     1.0  0.56035  0.89769  0.75282  1.0000
  C   C4516     1.0  0.78099  0.82837  0.60316  1.0000
  H   H4500     1.0  0.78911  0.82749  0.59702  1.0000
  C   C4517     1.0  0.57437  0.88514  0.74192  1.0000
  Fe  Fe751     1.0  0.88951  0.77481  0.60302  1.0000
  S   S1510     1.0  0.59244  0.86702  0.76321  1.0000
  C   C4518     1.0  0.76158  0.90478  0.61807  1.0000
  Fe  Fe752     1.0  0.77854  0.86069  0.59207  1.0000
  H   H4501     1.0  0.75490  0.90046  0.61944  1.0000
  S   S1511     1.0  0.53380  0.88100  0.75280  1.0000
  C   C4519     1.0  0.55927  0.92779  0.72896  1.0000
  H   H4502     1.0  0.58290  0.91224  0.75353  1.0000
  H   H4503     1.0  0.56303  0.91868  0.76268  1.0000
  C   C4520     1.0  0.55470  0.94776  0.72631  1.0000
  H   H4504     1.0  0.69376  0.90831  0.59680  1.0000
  H   H4505     1.0  0.58794  0.89675  0.74385  1.0000
  N   N378      1.0  0.56535  0.94766  0.72675  1.0000
  H   H4506     1.0  0.54300  0.93789  0.72720  1.0000
  H   H4507     1.0  0.85448  0.74463  0.63632  1.0000
  C   C4521     1.0  0.92816  0.77731  0.58380  1.0000
  H   H4508     1.0  0.56710  0.88403  0.73942  1.0000
  H   H4509     1.0  0.71780  0.91072  0.59237  1.0000
  C   C4522     1.0  0.80412  0.90592  0.59017  1.0000
  C   C4523     1.0  0.54674  0.87291  0.78027  1.0000
  H   H4510     1.0  0.71220  0.95613  0.58476  1.0000
  H   H4511     1.0  0.54350  0.92867  0.77136  1.0000
  C   C4524     1.0  0.78336  0.84001  0.63019  1.0000
  C   C4525     1.0  0.88452  0.75177  0.63005  1.0000
  H   H4512     1.0  0.73214  0.88616  0.60008  1.0000
  S   S1512     1.0  0.86059  0.81065  0.60001  1.0000
  Fe  Fe753     1.0  0.77085  0.94816  0.58640  1.0000
  H   H4513     1.0  0.70517  0.94827  0.59741  1.0000
  H   H4514     1.0  0.60238  0.84337  0.76143  1.0000
  H   H4515     1.0  0.60504  0.87969  0.76886  1.0000
  H   H4516     1.0  0.72019  0.94716  0.59450  1.0000
  C   C4526     1.0  0.77306  0.84205  0.62732  1.0000
  H   H4517     1.0  0.52894  0.89867  0.76450  1.0000
  H   H4518     1.0  0.98750  0.75163  0.62758  1.0000
  S   S1513     1.0  0.74141  0.96596  0.59487  1.0000
  S   S1514     1.0  0.75566  0.94083  0.59223  1.0000
  C   C4527     1.0  0.71762  0.91902  0.58726  1.0000
  C   C4528     1.0  0.91249  0.74435  0.59395  1.0000
  H   H4519     1.0  0.71427  0.92687  0.60098  1.0000
  H   H4520     1.0  0.90196  0.74407  0.62945  1.0000
  C   C4529     1.0  0.60469  0.92575  0.77493  1.0000
  C   C4530     1.0  0.69783  0.90509  0.58940  1.0000
  H   H4521     1.0  0.91481  0.74461  0.60138  1.0000
  H   H4522     1.0  0.77423  0.92119  0.58602  1.0000
  H   H4523     1.0  0.77498  0.98246  0.59795  1.0000
  H   H4524     1.0  0.74063  0.98514  0.61001  1.0000
  H   H4525     1.0  0.60754  0.89877  0.77881  1.0000
  H   H4526     1.0  0.80794  0.92216  0.58517  1.0000
  H   H4527     1.0  0.94695  0.74120  0.61147  1.0000
  C   C4531     1.0  0.49845  0.88553  0.75736  1.0000
  H   H4528     1.0  0.92754  0.74004  0.61284  1.0000
  H   H4529     1.0  0.76300  0.97789  0.62592  1.0000
  Fe  Fe754     1.0  0.80328  0.84933  0.58746  1.0000
  C   C4532     1.0  0.73684  0.87503  0.58400  1.0000
  H   H4530     1.0  0.51669  0.88091  0.74152  1.0000
  C   C4533     1.0  0.78257  0.91694  0.58712  1.0000
  Fe  Fe755     1.0  0.58615  0.86864  0.78093  1.0000
  H   H4531     1.0  0.60801  0.90890  0.76601  1.0000
  C   C4534     1.0  0.53632  0.89192  0.77858  1.0000
  C   C4535     1.0  0.61113  0.90608  0.77382  1.0000
  H   H4532     1.0  0.61972  0.85773  0.76660  1.0000
  H   H4533     1.0  0.97818  0.74053  0.62124  1.0000
  H   H4534     1.0  0.49991  0.87552  0.71929  1.0000
  H   H4535     1.0  0.58921  0.83332  0.77599  1.0000
  C   C4536     1.0  0.50952  0.87791  0.72961  1.0000
  H   H4536     1.0  0.62803  0.84490  0.76261  1.0000
  H   H4537     1.0  0.61670  0.85317  0.75603  1.0000
  C   C4537     1.0  0.50902  0.88044  0.73968  1.0000
  N   N379      1.0  0.61181  0.84398  0.77259  1.0000
  H   H4538     1.0  0.92277  0.75552  0.58311  1.0000
  C   C4538     1.0  0.91687  0.75056  0.58369  1.0000
  Fe  Fe756     1.0  0.98832  0.74485  0.58235  1.0000
  Fe  Fe757     1.0  0.56983  0.76456  0.97223  1.0000
  S   S1515     1.0  0.57617  0.74937  0.96510  1.0000
  S   S1516     1.0  0.56350  0.78030  0.96060  1.0000
  H   H4539     1.0  0.60566  0.73980  0.87594  1.0000
  C   C4539     1.0  0.54877  0.81257  0.86562  1.0000
  H   H4540     1.0  0.55976  0.83510  0.84134  1.0000
  H   H4541     1.0  0.62871  0.75370  0.91569  1.0000
  N   N380      1.0  0.62426  0.76814  0.88610  1.0000
  S   S1517     1.0  0.59597  0.86405  0.79419  1.0000
  Fe  Fe758     1.0  0.56420  0.87554  0.79640  1.0000
  S   S1518     1.0  0.57183  0.87169  0.81119  1.0000
  S   S1519     1.0  0.54632  0.88379  0.79623  1.0000
  Fe  Fe759     1.0  0.58521  0.87988  0.79902  1.0000
  S   S1520     1.0  0.59225  0.89222  0.80303  1.0000
  Fe  Fe760     1.0  0.58180  0.85616  0.80523  1.0000
  S   S1521     1.0  0.58440  0.83814  0.81466  1.0000
  C   C4540     1.0  0.63033  0.75745  0.88811  1.0000
  S   S1522     1.0  0.57292  0.85945  0.79137  1.0000
  Fe  Fe761     1.0  0.58022  0.80403  0.87592  1.0000
  S   S1523     1.0  0.57213  0.79280  0.87143  1.0000
  S   S1524     1.0  0.58107  0.82168  0.86660  1.0000
  Fe  Fe762     1.0  0.58369  0.78790  0.89795  1.0000
  S   S1525     1.0  0.57518  0.77593  0.89545  1.0000
  S   S1526     1.0  0.59282  0.78163  0.91192  1.0000
  Fe  Fe763     1.0  0.58539  0.77892  0.87814  1.0000
  S   S1527     1.0  0.59496  0.76323  0.87238  1.0000
  Fe  Fe764     1.0  0.56290  0.79084  0.88918  1.0000
  S   S1528     1.0  0.54454  0.79126  0.89429  1.0000
  S   S1529     1.0  0.59449  0.79034  0.88082  1.0000
  S   S1530     1.0  0.57023  0.80271  0.89351  1.0000
  N   N381      1.0  0.53348  0.78109  0.94588  1.0000
  S   S1531     1.0  0.56669  0.94257  0.79883  1.0000
  C   C4541     1.0  0.60114  0.75818  0.89221  1.0000
  C   C4542     1.0  0.60104  0.75417  0.88318  1.0000
  C   C4543     1.0  0.63218  0.75218  0.89873  1.0000
  H   H4542     1.0  0.59799  0.76685  0.89236  1.0000
  H   H4543     1.0  0.55814  0.74994  0.93352  1.0000
  C   C4544     1.0  0.58376  0.83373  0.82906  1.0000
  C   C4545     1.0  0.58228  0.84124  0.83572  1.0000
  C   C4546     1.0  0.58172  0.83738  0.84718  1.0000
  C   C4547     1.0  0.58253  0.82602  0.85208  1.0000
  C   C4548     1.0  0.58399  0.81851  0.84543  1.0000
  C   C4549     1.0  0.58465  0.82236  0.83396  1.0000
  H   H4544     1.0  0.58162  0.85001  0.83203  1.0000
  H   H4545     1.0  0.58059  0.84323  0.85228  1.0000
  H   H4546     1.0  0.58460  0.80976  0.84913  1.0000
  H   H4547     1.0  0.58580  0.81651  0.82886  1.0000
  C   C4550     1.0  0.60127  0.93144  0.79220  1.0000
  H   H4548     1.0  0.55697  0.90930  0.80878  1.0000
  C   C4551     1.0  0.60572  0.75109  0.90098  1.0000
  C   C4552     1.0  0.61960  0.77368  0.89456  1.0000
  C   C4553     1.0  0.52753  0.92293  0.79191  1.0000
  C   C4554     1.0  0.58397  0.90579  0.80191  1.0000
  C   C4555     1.0  0.58098  0.91189  0.79190  1.0000
  C   C4556     1.0  0.57581  0.92327  0.79075  1.0000
  C   C4557     1.0  0.57345  0.92846  0.79968  1.0000
  C   C4558     1.0  0.57604  0.92220  0.80978  1.0000
  C   C4559     1.0  0.58146  0.91097  0.81082  1.0000
  C   C4560     1.0  0.62128  0.76866  0.90528  1.0000
  H   H4549     1.0  0.57410  0.92611  0.81675  1.0000
  H   H4550     1.0  0.58382  0.90633  0.81855  1.0000
  C   C4561     1.0  0.53794  0.75908  0.89117  1.0000
  C   C4562     1.0  0.52968  0.76615  0.89729  1.0000
  C   C4563     1.0  0.53162  0.77620  0.89792  1.0000
  C   C4564     1.0  0.54197  0.77903  0.89276  1.0000
  C   C4565     1.0  0.55025  0.77200  0.88659  1.0000
  C   C4566     1.0  0.54815  0.76213  0.88564  1.0000
  H   H4551     1.0  0.52169  0.76398  0.90135  1.0000
  H   H4552     1.0  0.52513  0.78174  0.90246  1.0000
  H   H4553     1.0  0.55822  0.77420  0.88246  1.0000
  H   H4554     1.0  0.55451  0.75677  0.88077  1.0000
  C   C4567     1.0  0.57175  0.78094  0.94709  1.0000
  C   C4568     1.0  0.56746  0.78800  0.93805  1.0000
  C   C4569     1.0  0.57378  0.78813  0.92718  1.0000
  C   C4570     1.0  0.58461  0.78157  0.92537  1.0000
  C   C4571     1.0  0.58903  0.77479  0.93443  1.0000
  C   C4572     1.0  0.58255  0.77433  0.94524  1.0000
  H   H4555     1.0  0.55929  0.79342  0.93947  1.0000
  H   H4556     1.0  0.57041  0.79354  0.92023  1.0000
  H   H4557     1.0  0.59746  0.76983  0.93309  1.0000
  H   H4558     1.0  0.58603  0.76906  0.95218  1.0000
  C   C4573     1.0  0.60823  0.91218  0.79106  1.0000
  H   H4559     1.0  0.61435  0.78197  0.89314  1.0000
  H   H4560     1.0  0.57816  0.74983  0.88501  1.0000
  C   C4574     1.0  0.59720  0.83249  0.78904  1.0000
  C   C4575     1.0  0.60580  0.83538  0.79169  1.0000
  Fe  Fe765     1.0  0.56585  0.74114  0.98061  1.0000
  H   H4561     1.0  0.62046  0.78259  0.87351  1.0000
  C   C4576     1.0  0.53782  0.78217  0.95491  1.0000
  C   C4577     1.0  0.54840  0.74586  0.96315  1.0000
  C   C4578     1.0  0.54994  0.82243  0.87909  1.0000
  C   C4579     1.0  0.62763  0.75784  0.90735  1.0000
  C   C4580     1.0  0.53545  0.91416  0.79643  1.0000
  H   H4562     1.0  0.57360  0.92797  0.78301  1.0000
  S   S1532     1.0  0.51515  0.74639  0.91989  1.0000
  S   S1533     1.0  0.53024  0.74982  0.94060  1.0000
  H   H4563     1.0  0.54844  0.81465  0.88519  1.0000
  C   C4581     1.0  0.55024  0.81152  0.85472  1.0000
  C   C4582     1.0  0.55419  0.81968  0.84593  1.0000
  H   H4564     1.0  0.54843  0.80437  0.85313  1.0000
  H   H4565     1.0  0.55555  0.81892  0.83743  1.0000
  H   H4566     1.0  0.55217  0.75109  0.96571  1.0000
  C   C4583     1.0  0.55652  0.82879  0.84811  1.0000
  H   H4567     1.0  0.54106  0.78228  0.91822  1.0000
  C   C4584     1.0  0.53605  0.78111  0.92662  1.0000
  H   H4568     1.0  0.54273  0.82929  0.88106  1.0000
  N   N382      1.0  0.55138  0.82140  0.86768  1.0000
  C   C4585     1.0  0.55512  0.82949  0.85911  1.0000
  C   C4586     1.0  0.60563  0.74293  0.88296  1.0000
  H   H4569     1.0  0.53481  0.90570  0.79723  1.0000
  C   C4587     1.0  0.52596  0.77776  0.92891  1.0000
  S   S1534     1.0  0.57670  0.88506  0.78481  1.0000
  H   H4570     1.0  0.55152  0.92860  0.80100  1.0000
  H   H4571     1.0  0.50407  0.74403  0.90117  1.0000
  H   H4572     1.0  0.60589  0.75436  0.90782  1.0000
  H   H4573     1.0  0.59836  0.93789  0.79696  1.0000
  C   C4588     1.0  0.60077  0.74072  0.93672  1.0000
  Fe  Fe766     1.0  0.57012  0.95460  0.78243  1.0000
  H   H4574     1.0  0.55737  0.83638  0.86074  1.0000
  H   H4575     1.0  0.59062  0.75784  0.92301  1.0000
  H   H4576     1.0  0.54770  0.78506  0.93346  1.0000
  C   C4589     1.0  0.52361  0.77771  0.94820  1.0000
  H   H4577     1.0  0.54573  0.80617  0.87240  1.0000
  H   H4578     1.0  0.58301  0.90796  0.78494  1.0000
  H   H4579     1.0  0.54199  0.75895  0.95050  1.0000
  C   C4590     1.0  0.55246  0.90688  0.80382  1.0000
  C   C4591     1.0  0.53758  0.74369  0.95125  1.0000
  C   C4592     1.0  0.51965  0.77611  0.93974  1.0000
  H   H4580     1.0  0.54414  0.77455  0.95733  1.0000
  C   C4593     1.0  0.60485  0.92039  0.79730  1.0000
  S   S1535     1.0  0.53575  0.74622  0.89084  1.0000
  C   C4594     1.0  0.61035  0.73991  0.90080  1.0000
  H   H4581     1.0  0.52320  0.77606  0.92239  1.0000
  H   H4582     1.0  0.55764  0.82419  0.88015  1.0000
  C   C4595     1.0  0.57400  0.75494  0.92732  1.0000
  H   H4583     1.0  0.55614  0.73946  0.89762  1.0000
  H   H4584     1.0  0.57091  0.76235  0.92153  1.0000
  H   H4585     1.0  0.55866  0.90384  0.79674  1.0000
  H   H4586     1.0  0.53109  0.78342  0.96235  1.0000
  C   C4596     1.0  0.53974  0.78270  0.93527  1.0000
  H   H4587     1.0  0.53796  0.94435  0.79286  1.0000
  H   H4588     1.0  0.56812  0.75041  0.89791  1.0000
  H   H4589     1.0  0.58255  0.74412  0.89804  1.0000
  H   H4590     1.0  0.61736  0.77304  0.91198  1.0000
  H   H4591     1.0  0.63352  0.75283  0.88157  1.0000
  C   C4597     1.0  0.58518  0.75235  0.92820  1.0000
  H   H4592     1.0  0.62955  0.77079  0.86849  1.0000
  H   H4593     1.0  0.60471  0.91814  0.80611  1.0000
  N   N383      1.0  0.54392  0.91622  0.79969  1.0000
  C   C4598     1.0  0.54290  0.88273  0.78427  1.0000
  H   H4594     1.0  0.51890  0.77589  0.95667  1.0000
  C   C4599     1.0  0.56686  0.74803  0.93407  1.0000
  H   H4595     1.0  0.51206  0.77300  0.94166  1.0000
  H   H4596     1.0  0.54862  0.89987  0.80919  1.0000
  H   H4597     1.0  0.60113  0.74368  0.94395  1.0000
  H   H4598     1.0  0.52247  0.94072  0.78686  1.0000
  C   C4600     1.0  0.54480  0.92692  0.79850  1.0000
  H   H4599     1.0  0.60616  0.74479  0.92917  1.0000
  Fe  Fe767     1.0  0.58929  0.74518  0.97490  1.0000
  S   S1536     1.0  0.58406  0.76118  0.98081  1.0000
  H   H4600     1.0  0.63668  0.74358  0.90038  1.0000
  H   H4601     1.0  0.54189  0.78940  0.95234  1.0000
  C   C4601     1.0  0.53706  0.93590  0.79398  1.0000
  H   H4602     1.0  0.61486  0.77094  0.87392  1.0000
  N   N384      1.0  0.58915  0.74312  0.93557  1.0000
  C   C4602     1.0  0.54254  0.75034  0.95462  1.0000
  C   C4603     1.0  0.62218  0.77337  0.87497  1.0000
  H   H4603     1.0  0.60659  0.83341  0.80026  1.0000
  H   H4604     1.0  0.61078  0.90357  0.79515  1.0000
  C   C4604     1.0  0.52835  0.93386  0.79069  1.0000
  H   H4605     1.0  0.52100  0.92126  0.78905  1.0000
  H   H4606     1.0  0.59131  0.82828  0.79554  1.0000
  H   H4607     1.0  0.61956  0.84363  0.78548  1.0000
  H   H4608     1.0  0.55170  0.86571  0.78471  1.0000
  C   C4605     1.0  0.57095  0.73871  0.94165  1.0000
  C   C4606     1.0  0.57576  0.74521  0.89369  1.0000
  C   C4607     1.0  0.61307  0.84117  0.78331  1.0000
  C   C4608     1.0  0.49859  0.74059  0.89852  1.0000
  Fe  Fe768     1.0  0.52626  0.73869  0.93204  1.0000
