data_image0
_chemical_formula_structural       CH2SHCHSH4CHCH2C2HC4NHNHCH2CHC2HSCHFeS2CSFeSHSH3CH2NFeS2FeS2FeSFeS3NHCFeSHC2FeSCSFeS2FeS2FeSFeS3FeS2CHFeHCSHNCHFeC4HCH3C6H7CHC6H4C6H4C6H4C3HC2H3C6H2CSC6H4SH4CHNH2CH2CNHSNC2NC6H8NCH2CHC2HSC2HCHSC3HCSHCH5CNCH3CSHFeHCHC2FeHCHCHC5H3CNHC3SHC2H3SHCH2CFeH3CHCH2CFeCH2CHSHCSHCH5CSH2CS2C3HFe2CSC2H6C2FeS2FeS2FeSFeS3C2SCHC2NH3CHFeS2HSCFeSFeSCSFeH3CNSCHC4SHC6HCH3C2HC3SHSH2CH3CHCHNHCH4CSCHC3H2C6H4C2HCH2NC6H4N2C4HC2HCHC2FeHNC6H5C2HC3S2CH3CFeHSCH3CH6CHCH2NHC2H3CSC2SH3NCHSFeHC2H2CSH2FeS2FeS2FeCFeHS2CHSHSFeHCH2CHC6H5C2H3NC2HCH2C4H3CSCH5C3NC3SHSHCHCH3CH2SCNHCH4CHC3HC3SHC2H4SCHCSC2H2C3HNHCFeH2C2H2SH3CSFeSNFeS2FeHFeSHSCSHFeSHFeSHCSHC6H4CHCHCHSC2HC7H3FeCHNCFeC2H2C2H2FeCHCSHNC6H3SHFeH2CHSH2CHSH2CSCH3C2FeSH2FeHSNC3HFeS2FeNHFeHSC2FeS2FeSFe2NS2HCSC3H3SC2HS2C3H2CHCHC7H2CHCHCH2SHCH2C2NHC3HCH3FeCH2CHFe2C3H3CHCH3CS2H3CHSH2C2HC4HC2SC2H3C2HC2H3C7HC3HCH6CS3H2SC2HCHN2H2CHC2HCHSNC2H2FeH2FeS2FeSFeSFeS4FeSFeS2FeS2FeSFeS3CH4CHFeSHCHC2H2SCFeSFeSNS3H3C2HC3NC2H2CNHSH2C3H2C3SCHC3H5CSC2HNSC2SN2C6H3C2HC3HSH2C6H5CH3CHC6H4C6H4CH2C4HCH2C3HC2HSH4C3H2C2HCHN2C6H8NCH2C2H3CFeH5C2HCSHC2H2CH2FeHCHSCHC2NHCH2CH3C2HSC2HC3FeH3CSH2CNCSH4C2HSHCFeCHC2H3CHCHFeH2CH2C2HC4HCH2C2HC2H2SHFeHC3H2Fe2HFeS2FeS2FeCFeCS3HS2C6H4CHCHCHC2H2CSC3SH3C2H4SHCHCSCHNSC2HC6HC2NC6H2SHCH2CHCNCHFeS2CH2C3S2CHFeHSCFeC2H2CH2C2H3NHSH3CH2CHFeH2CNHFeS2FeSCFeSFeS3HSH2Fe2CHCH2CFeS2FeS2FeSHS3HFeHCSC2HFeHCSH5C2NCFeCNHSHCHCHFeS3H2C7SH3C6H2CHC6H6CH2CSCHCNC3H2FeHCHC2HSCNFeHNHC2SCSFeC2NC6H7C2HC2FeC3HSHC3SH2C2H3CNH3CSFeSH3C3H2C2SH2C2HC3HC2H2S2Fe2SNCHC2HSFeHCHC2H3CH3SHSH2CHNC2H5C2H2FeCSFeCSHC3SH2CSH2SCFeS2C2H2C3H4CSCHC6H4C6FeH3C3HC4SHNH2SH2CHFeHSCH2CH7C3NSHC5FeCH2NHCHCHCH4NH3CSHSHFeSCFeSHFeS2FeS2FeS2FeSFeS3H3SHSCHFeS2FeS2FeSFeHS2C2FeSCFeS2FeSH2SH2NC3FeC2H2CHC6H4C2HSHCH2NC7H4C6H4C2H3C2HC2HC3HCH2C2HSHCSH3CH2CSH2CHCSCH4FeHC3SHCH2CHCSHCH3NHC4NC2H2CNC2HNHCH3CH2C2HCH2CHC2SCH2NH2CHCFeCH3C4H3CH2C3SHC3H2C4HFeNCFeH2SH2CFeCHCH5CH5S2FeSCSHCH2NS2FeCFe2SFeCSCHSHNH4S2CHC3H2SFeC3HFeHC3HSCFeCH2NS2HCH2C2SFeC2HFeHCSC7H3C7H4C2H3C2H2SH4CHCFeCHCHC2HC2SH3NHCH3C2HCSFeHCHFeCH2SFeS2CH3SCHCH2FeSNCS2FeSFeHSCH2C7H7C2H4C7H3CSCHSCSC2HCFeSCSH2SHC4NCFeHC2HC2NH2C3HCSH2SH5CSFeS2FeS2FeSFeS3FeCFeS2FeS2FeSFeS3FeS2FeS2FeSFeS3FeS2CHFeSH3CH2CHC4HSC6H5C4H4C7H4C6H4C6H4C6H4C6H4CHC2H3SCHC3H3FeC2NSC2SHCH4C2NHCHCH2CH2CHCNC4FeHNC6H4CH4SH5C3SHCH2NC6H8NC6H8NC6H3FeH3C2HCH2SC5SNH2SH2FeNCNH2SC2NSH3CH2S2C2HC4HCHCHC5SHFe2H2SHNC3H14C3H3FeHCSCNHSH2CHC2HCH8CSCHCH2C2FeS2H2CS2CHC3H3SH2CH2C4FeHC3HCHCH2C2FeCFeC2SC2HFeHS2HN2C2SHCH3CH4S2HCH3CHFe2C2H2FeSFeS2FeSFeS3FeS2FeS2FeCFeS4HCH2C5H2CH2NC2H2C3HSH2C2HCHC7H3CH4C6H4CHC5H7CHCHCH2NC6H7CNC2H4NC2HC4HC2H3C2H2CSH2CHCSH2CSH2SH4C2HSCHCH3CHCHCH4CH2CH2FeNHC2H2CHCSHNSFeS2FeS2FeSFeS4CFeSFeSC4H2C5H2C6H4C3H4C3HSH2FeH2C4H3CH2SHCH2C2HCHNC6H3CHSHCHCNH2CHC2H4CHC2HSHCNHCNC5HCHCH3C3H2SHC2SFeHCNHCSCH2C3FeC3SCH2C4H5FeHSFeH3CH3CH2SCH6C4HSC2SNCSFeS2FeSCFeSCFeS2HCFeCSFeHSHFeHS2NFeS2FeSFe2SHSCHSCFeCSH2CS2HC4FeC3H5C2H2CHC2FeC2HC6H2CHC2H5C6HC2HC6H4CHC2H3CH2SCH3C6H3SHCHSFeHCNH2NC2H2C2S2CHCH2FeCHC6HSCFeH3CH2CHCNH3C3HSCHC2HSHS2H2NC2HCHCH4CSHCH2C2H2CHFeS2FeS2FeSFeHS2CHCFeS2FeS2Fe2S4FeSCSHSHS2CHS2CNHC6HCSNH2C6H2CHC6H4C6H4FeHC7H4CHC5FeH2CHFeSH3FeCSHC3HCHC7H2CNC6H4NH5C2NCNC2H6CSH3CFeH4SH7CHC2NHNFeHC2HNSH3C2HS2C2SHFeSC3SCFeCHC2HSFeC3HSHCNSCFeC3H2SCH2NH3CSHNHC2H3C2HSC2H2C3HC5H3CH4CHCHC2H2S2HFeCHCHFeSHC3HFeHCFeS3NHSCHCH2SHCH3CH2FeS2FeSC2NFeS4C6H4FeH2SH2C2SCHS2HC2SH9S2C6H5C2HCHSFeNC3H2CH2C4HCHC2NC6H4CH4CFeC2HC3FeH2CSHC2HSHC2NH2CH2FeCH3C3FeCSCNCH3CFeC2SCSC2H3C2H2CHCHCHSFeSFeSHSCH2C2H2S2CH2FeSH2SHCHFeSHSH4SFeC9HFeCNH5C3SH3SC6SCNCH3CH2CNC2SH2CSH4CSC2HCFeCFeCHC2FeH3FeHCS2CSHC2HC2H2C2H2FeHCH2FeCSCHC3SFeH3SC4NCH3CSHC7H3CNCHCHSFeH4C2SNHC3SCHSCH3C3H3C2FeCHSC2FeH4C3HNH3FeH2CH2SH5SCHNCFeS2FeS2FeSFeS4HCSH2CHCH2FeHSFeHS2FeCS2FeHSFeNS3NHS2FeCHSCFeCHSCH2CH2CHFeC6H2C2SC3HCH2C3H2SHCSCHC6H4C4HCH2CHC4H2CHC2HCHCFeC2HCNCNH3C4FeCHFeSHC2HC3H6CHCNC6H9C3H5C2SCHC3HCSC3NC2HFeHCH2C2HSCH2CSC2H3C5HCH2SFeCH2CH4C4HCNC
_chemical_formula_sum              "C1728 H1728 S576 N144 Fe288"
_cell_length_a       77.0051
_cell_length_b       77.8493
_cell_length_c       77.4102
_cell_angle_alpha    74.2424
_cell_angle_beta     73.9787
_cell_angle_gamma    73.9422

_space_group_name_H-M_alt    "P 1"
_space_group_IT_number       1

loop_
  _space_group_symop_operation_xyz
  'x, y, z'

loop_
  _atom_site_type_symbol
  _atom_site_label
  _atom_site_symmetry_multiplicity
  _atom_site_fract_x
  _atom_site_fract_y
  _atom_site_fract_z
  _atom_site_occupancy
  C   C1        1.0  0.46913  0.07351  0.30095  1.0000
  H   H1        1.0  0.47569  0.18494  0.06192  1.0000
  H   H2        1.0  0.47577  0.99159  0.15617  1.0000
  S   S1        1.0  0.47419  0.21740  0.10176  1.0000
  H   H3        1.0  0.48056  0.21910  0.13768  1.0000
  C   C2        1.0  0.46485  0.01541  0.27348  1.0000
  H   H4        1.0  0.46748  0.22009  0.16085  1.0000
  S   S2        1.0  0.48440  0.06886  0.26564  1.0000
  H   H5        1.0  0.47340  0.22429  0.00479  1.0000
  H   H6        1.0  0.46102  0.06379  0.30198  1.0000
  H   H7        1.0  0.46335  0.20271  0.07472  1.0000
  H   H8        1.0  0.45609  0.22287  0.14234  1.0000
  C   C3        1.0  0.49194  0.09120  0.28318  1.0000
  H   H9        1.0  0.48880  0.03107  0.19082  1.0000
  C   C4        1.0  0.47274  0.01314  0.25547  1.0000
  H   H10       1.0  0.46824  0.20055  0.03289  1.0000
  H   H11       1.0  0.43472  0.22780  0.10911  1.0000
  C   C5        1.0  0.48154  0.07862  0.28444  1.0000
  C   C6        1.0  0.48970  0.09900  0.29813  1.0000
  H   H12       1.0  0.46890  0.02173  0.29719  1.0000
  C   C7        1.0  0.47518  0.01994  0.28322  1.0000
  C   C8        1.0  0.46711  0.08109  0.31612  1.0000
  C   C9        1.0  0.49079  0.01540  0.24747  1.0000
  C   C10       1.0  0.47639  0.19776  0.06516  1.0000
  N   N1        1.0  0.47939  0.21199  0.04848  1.0000
  H   H13       1.0  0.49470  0.03518  0.29539  1.0000
  N   N2        1.0  0.49283  0.02223  0.27523  1.0000
  H   H14       1.0  0.48800  0.19427  0.07232  1.0000
  C   C11       1.0  0.47409  0.21164  0.03312  1.0000
  H   H15       1.0  0.49217  0.13706  0.31510  1.0000
  H   H16       1.0  0.46490  0.00966  0.24771  1.0000
  C   C12       1.0  0.47698  0.22510  0.01711  1.0000
  H   H17       1.0  0.45081  0.01373  0.27994  1.0000
  C   C13       1.0  0.48707  0.22584  0.04856  1.0000
  C   C14       1.0  0.46767  0.22600  0.14606  1.0000
  H   H18       1.0  0.49103  0.22620  0.06083  1.0000
  S   S3        1.0  0.49354  0.99524  0.18424  1.0000
  C   C15       1.0  0.47732  0.09397  0.31459  1.0000
  H   H19       1.0  0.49712  0.01358  0.23352  1.0000
  Fe  Fe1       1.0  0.43580  0.06526  0.38523  1.0000
  S   S4        1.0  0.42994  0.09462  0.37057  1.0000
  S   S5        1.0  0.41657  0.04722  0.38811  1.0000
  C   C16       1.0  0.25319  0.04824  0.55315  1.0000
  S   S6        1.0  0.46536  0.09803  0.38401  1.0000
  Fe  Fe2       1.0  0.43505  0.09991  0.39557  1.0000
  S   S7        1.0  0.41836  0.12494  0.40619  1.0000
  H   H20       1.0  0.25413  0.17461  0.49450  1.0000
  S   S8        1.0  0.43869  0.07080  0.41116  1.0000
  H   H21       1.0  0.26547  0.11104  0.53936  1.0000
  H   H22       1.0  0.22018  0.17656  0.50462  1.0000
  H   H23       1.0  0.22971  0.13052  0.54887  1.0000
  C   C17       1.0  0.25633  0.05016  0.59997  1.0000
  H   H24       1.0  0.25864  0.06424  0.59584  1.0000
  H   H25       1.0  0.47360  0.00641  0.34579  1.0000
  N   N3        1.0  0.25376  0.13932  0.53142  1.0000
  Fe  Fe3       1.0  0.20895  0.09712  0.56939  1.0000
  S   S9        1.0  0.18891  0.12235  0.55897  1.0000
  S   S10       1.0  0.23729  0.09686  0.57293  1.0000
  Fe  Fe4       1.0  0.18970  0.07137  0.56075  1.0000
  S   S11       1.0  0.16822  0.09464  0.54947  1.0000
  S   S12       1.0  0.19729  0.04141  0.55904  1.0000
  Fe  Fe5       1.0  0.19159  0.10907  0.53587  1.0000
  S   S13       1.0  0.19444  0.12586  0.50707  1.0000
  Fe  Fe6       1.0  0.16702  0.10619  0.57359  1.0000
  S   S14       1.0  0.13992  0.12010  0.58987  1.0000
  S   S15       1.0  0.21308  0.08504  0.54494  1.0000
  S   S16       1.0  0.18699  0.08163  0.58616  1.0000
  N   N4        1.0  0.23486  0.07174  0.49163  1.0000
  H   H26       1.0  0.08324  0.12579  0.57864  1.0000
  C   C18       1.0  0.22955  0.16646  0.51248  1.0000
  Fe  Fe7       1.0  0.29604  0.09336  0.63635  1.0000
  S   S17       1.0  0.30483  0.06699  0.62689  1.0000
  H   H27       1.0  0.41179  0.00416  0.61498  1.0000
  C   C19       1.0  0.12733  0.19252  0.55729  1.0000
  C   C20       1.0  0.43480  0.04214  0.35334  1.0000
  Fe  Fe8       1.0  0.33138  0.07577  0.61264  1.0000
  S   S18       1.0  0.34691  0.07211  0.58425  1.0000
  C   C21       1.0  0.24238  0.03116  0.58957  1.0000
  S   S19       1.0  0.32175  0.10329  0.62007  1.0000
  Fe  Fe9       1.0  0.30559  0.08768  0.50627  1.0000
  S   S20       1.0  0.29056  0.09332  0.48381  1.0000
  S   S21       1.0  0.29444  0.07249  0.53435  1.0000
  Fe  Fe10      1.0  0.33545  0.10708  0.48202  1.0000
  S   S22       1.0  0.32306  0.11443  0.45724  1.0000
  S   S23       1.0  0.36070  0.11584  0.48233  1.0000
  Fe  Fe11      1.0  0.29606  0.12124  0.47708  1.0000
  S   S24       1.0  0.27288  0.14491  0.47065  1.0000
  Fe  Fe12      1.0  0.31880  0.08573  0.46642  1.0000
  S   S25       1.0  0.32347  0.06618  0.44836  1.0000
  S   S26       1.0  0.30873  0.11648  0.50120  1.0000
  S   S27       1.0  0.33357  0.07767  0.48948  1.0000
  Fe  Fe13      1.0  0.06118  0.20186  0.55753  1.0000
  S   S28       1.0  0.04488  0.19549  0.58647  1.0000
  S   S29       1.0  0.08746  0.18376  0.54488  1.0000
  C   C22       1.0  0.02215  0.15159  0.60134  1.0000
  H   H28       1.0  0.29083  0.01830  0.45470  1.0000
  Fe  Fe14      1.0  0.01992  0.20590  0.57376  1.0000
  H   H29       1.0  0.08192  0.14369  0.54695  1.0000
  C   C23       1.0  0.24858  0.16544  0.50686  1.0000
  S   S30       1.0  0.03629  0.21000  0.54477  1.0000
  H   H30       1.0  0.45823  0.14282  0.37408  1.0000
  N   N5        1.0  0.25144  0.04510  0.58531  1.0000
  C   C24       1.0  0.25255  0.07631  0.48105  1.0000
  H   H31       1.0  0.26920  0.04067  0.60341  1.0000
  Fe  Fe15      1.0  0.04266  0.22506  0.58604  1.0000
  C   C25       1.0  0.05460  0.13720  0.58995  1.0000
  C   C26       1.0  0.30935  0.05070  0.46058  1.0000
  C   C27       1.0  0.30215  0.04955  0.47946  1.0000
  C   C28       1.0  0.29010  0.03794  0.48921  1.0000
  H   H32       1.0  0.24731  0.04369  0.50057  1.0000
  C   C29       1.0  0.30511  0.03952  0.45163  1.0000
  H   H33       1.0  0.30635  0.05712  0.48676  1.0000
  H   H34       1.0  0.28469  0.03712  0.50381  1.0000
  H   H35       1.0  0.26393  0.06473  0.56398  1.0000
  C   C30       1.0  0.33268  0.07100  0.57055  1.0000
  C   C31       1.0  0.33776  0.07663  0.55146  1.0000
  C   C32       1.0  0.32587  0.07731  0.54040  1.0000
  C   C33       1.0  0.30920  0.07160  0.54831  1.0000
  C   C34       1.0  0.30460  0.06492  0.56728  1.0000
  C   C35       1.0  0.31624  0.06482  0.57841  1.0000
  H   H36       1.0  0.35077  0.08065  0.54518  1.0000
  H   H37       1.0  0.32970  0.08222  0.52575  1.0000
  H   H38       1.0  0.29198  0.06009  0.57348  1.0000
  H   H39       1.0  0.31256  0.05968  0.59297  1.0000
  H   H40       1.0  0.34526  0.12964  0.53710  1.0000
  H   H41       1.0  0.25119  0.09127  0.47537  1.0000
  H   H42       1.0  0.21888  0.09879  0.48442  1.0000
  C   C36       1.0  0.29367  0.02729  0.46157  1.0000
  H   H43       1.0  0.24503  0.04965  0.61254  1.0000
  C   C37       1.0  0.10136  0.16572  0.55781  1.0000
  C   C38       1.0  0.11758  0.15565  0.54842  1.0000
  C   C39       1.0  0.12935  0.14149  0.55813  1.0000
  C   C40       1.0  0.12488  0.13716  0.57734  1.0000
  C   C41       1.0  0.10843  0.14696  0.58676  1.0000
  C   C42       1.0  0.09675  0.16131  0.57704  1.0000
  H   H44       1.0  0.12121  0.15896  0.53354  1.0000
  H   H45       1.0  0.14196  0.13403  0.55073  1.0000
  H   H46       1.0  0.10492  0.14365  0.60164  1.0000
  H   H47       1.0  0.08426  0.16895  0.58439  1.0000
  C   C43       1.0  0.21644  0.13065  0.49695  1.0000
  C   C44       1.0  0.21857  0.14455  0.48120  1.0000
  C   C45       1.0  0.23598  0.14876  0.47304  1.0000
  C   C46       1.0  0.25140  0.13879  0.48035  1.0000
  C   C47       1.0  0.24932  0.12469  0.49597  1.0000
  C   C48       1.0  0.23185  0.12069  0.50431  1.0000
  H   H48       1.0  0.20671  0.15224  0.47541  1.0000
  H   H49       1.0  0.23751  0.15972  0.46101  1.0000
  H   H50       1.0  0.26100  0.11737  0.50210  1.0000
  H   H51       1.0  0.23034  0.11005  0.51652  1.0000
  C   C49       1.0  0.24455  0.10130  0.59074  1.0000
  C   C50       1.0  0.23221  0.10714  0.60612  1.0000
  C   C51       1.0  0.23907  0.11005  0.61999  1.0000
  C   C52       1.0  0.25825  0.10681  0.61866  1.0000
  C   C53       1.0  0.27047  0.10106  0.60321  1.0000
  C   C54       1.0  0.26366  0.09851  0.58929  1.0000
  H   H52       1.0  0.21745  0.10931  0.60740  1.0000
  H   H53       1.0  0.22953  0.11451  0.63191  1.0000
  H   H54       1.0  0.28525  0.09874  0.60188  1.0000
  H   H55       1.0  0.27332  0.09402  0.57744  1.0000
  C   C55       1.0  0.18299  0.03012  0.55387  1.0000
  C   C56       1.0  0.16390  0.03691  0.55579  1.0000
  C   C57       1.0  0.15287  0.02653  0.55310  1.0000
  H   H56       1.0  0.25742  0.05524  0.53903  1.0000
  C   C58       1.0  0.47807  0.01727  0.40131  1.0000
  C   C59       1.0  0.19101  0.01327  0.54867  1.0000
  H   H57       1.0  0.15756  0.04989  0.55982  1.0000
  H   H58       1.0  0.13804  0.03167  0.55496  1.0000
  H   H59       1.0  0.20579  0.00809  0.54695  1.0000
  C   C60       1.0  0.43024  0.01936  0.33988  1.0000
  C   C61       1.0  0.41612  0.01536  0.35515  1.0000
  C   C62       1.0  0.26058  0.15160  0.51644  1.0000
  C   C63       1.0  0.26636  0.12449  0.54111  1.0000
  C   C64       1.0  0.11154  0.20345  0.56614  1.0000
  C   C65       1.0  0.23509  0.14041  0.53719  1.0000
  H   H60       1.0  0.30981  0.99698  0.50871  1.0000
  H   H61       1.0  0.13061  0.19447  0.54241  1.0000
  C   C66       1.0  0.41156  0.02445  0.36964  1.0000
  S   S31       1.0  0.43783  0.00583  0.32332  1.0000
  C   C67       1.0  0.40274  0.12158  0.42754  1.0000
  C   C68       1.0  0.39699  0.10503  0.43531  1.0000
  C   C69       1.0  0.38366  0.10326  0.45196  1.0000
  C   C70       1.0  0.37655  0.11786  0.46105  1.0000
  C   C71       1.0  0.38264  0.13419  0.45345  1.0000
  C   C72       1.0  0.39544  0.13614  0.43661  1.0000
  H   H62       1.0  0.40251  0.09376  0.42831  1.0000
  H   H63       1.0  0.37913  0.09053  0.45791  1.0000
  H   H64       1.0  0.37725  0.14548  0.46045  1.0000
  H   H65       1.0  0.39982  0.14895  0.43066  1.0000
  S   S32       1.0  0.14636  0.99613  0.54649  1.0000
  H   H66       1.0  0.44205  0.05245  0.35261  1.0000
  H   H67       1.0  0.26248  0.12453  0.55602  1.0000
  H   H68       1.0  0.27538  0.15039  0.51134  1.0000
  H   H69       1.0  0.28100  0.12576  0.53603  1.0000
  C   C73       1.0  0.25690  0.05356  0.56738  1.0000
  H   H70       1.0  0.31079  0.04019  0.43707  1.0000
  N   N6        1.0  0.37037  0.10944  0.53236  1.0000
  H   H71       1.0  0.26265  0.07210  0.49005  1.0000
  H   H72       1.0  0.05540  0.12965  0.60382  1.0000
  C   C74       1.0  0.23844  0.02546  0.57568  1.0000
  H   H73       1.0  0.02257  0.13978  0.61322  1.0000
  H   H74       1.0  0.18863  0.05943  0.52071  1.0000
  C   C75       1.0  0.22271  0.15391  0.52778  1.0000
  N   N7        1.0  0.47485  0.00267  0.37361  1.0000
  H   H75       1.0  0.35817  0.13226  0.51373  1.0000
  S   S33       1.0  0.34506  0.06247  0.63638  1.0000
  N   N8        1.0  0.34234  0.00434  0.62062  1.0000
  C   C76       1.0  0.16083  0.00940  0.54838  1.0000
  C   C77       1.0  0.03777  0.15895  0.56899  1.0000
  N   N9        1.0  0.37076  0.08377  0.40666  1.0000
  C   C78       1.0  0.36097  0.09386  0.41961  1.0000
  C   C79       1.0  0.38194  0.09132  0.39100  1.0000
  C   C80       1.0  0.36207  0.11209  0.41691  1.0000
  C   C81       1.0  0.38321  0.10956  0.38783  1.0000
  C   C82       1.0  0.37335  0.11991  0.40096  1.0000
  C   C83       1.0  0.37019  0.06444  0.41016  1.0000
  H   H76       1.0  0.35243  0.08776  0.43222  1.0000
  H   H77       1.0  0.39013  0.08317  0.38096  1.0000
  H   H78       1.0  0.35476  0.11997  0.42736  1.0000
  H   H79       1.0  0.39210  0.11557  0.37547  1.0000
  H   H80       1.0  0.37486  0.13382  0.39902  1.0000
  H   H81       1.0  0.37323  0.05970  0.39709  1.0000
  H   H82       1.0  0.38074  0.05597  0.41812  1.0000
  H   H83       1.0  0.35627  0.06208  0.41797  1.0000
  N   N10       1.0  0.10687  0.20060  0.58493  1.0000
  C   C84       1.0  0.23460  0.05416  0.50111  1.0000
  H   H84       1.0  0.44839  0.02068  0.40999  1.0000
  H   H85       1.0  0.46874  0.14035  0.34144  1.0000
  C   C85       1.0  0.48597  0.13693  0.37839  1.0000
  H   H86       1.0  0.02516  0.16856  0.56628  1.0000
  C   C86       1.0  0.13312  0.17534  0.58692  1.0000
  C   C87       1.0  0.11729  0.18661  0.59533  1.0000
  H   H87       1.0  0.34395  0.99474  0.49120  1.0000
  S   S34       1.0  0.25824  0.01257  0.63388  1.0000
  C   C88       1.0  0.20194  0.08063  0.50242  1.0000
  C   C89       1.0  0.33433  0.02403  0.61745  1.0000
  H   H88       1.0  0.33821  0.03067  0.62643  1.0000
  C   C90       1.0  0.47896  0.13859  0.34938  1.0000
  H   H89       1.0  0.05286  0.16546  0.54086  1.0000
  S   S35       1.0  0.38738  0.99745  0.65017  1.0000
  C   C91       1.0  0.34805  0.99548  0.63663  1.0000
  C   C92       1.0  0.24387  0.03410  0.55738  1.0000
  C   C93       1.0  0.31291  0.00573  0.51572  1.0000
  H   H90       1.0  0.18929  0.09119  0.50296  1.0000
  C   C94       1.0  0.30112  0.00918  0.53234  1.0000
  S   S36       1.0  0.06090  0.23070  0.55796  1.0000
  H   H91       1.0  0.07796  0.20544  0.59621  1.0000
  C   C95       1.0  0.42002  0.99952  0.62533  1.0000
  H   H92       1.0  0.24287  0.99144  0.51713  1.0000
  H   H93       1.0  0.09105  0.21324  0.60747  1.0000
  H   H94       1.0  0.16829  0.00484  0.58636  1.0000
  H   H95       1.0  0.48294  0.09084  0.41524  1.0000
  H   H96       1.0  0.35753  0.10651  0.56094  1.0000
  C   C96       1.0  0.33204  0.02430  0.51722  1.0000
  N   N11       1.0  0.32814  0.01323  0.50840  1.0000
  C   C97       1.0  0.21879  0.08487  0.49202  1.0000
  H   H97       1.0  0.38405  0.08374  0.57116  1.0000
  H   H98       1.0  0.14104  0.16387  0.59516  1.0000
  H   H99       1.0  0.20799  0.15422  0.53193  1.0000
  C   C98       1.0  0.21797  0.04945  0.51165  1.0000
  S   S37       1.0  0.46623  0.06007  0.37253  1.0000
  H   H100      1.0  0.32404  0.03626  0.54112  1.0000
  Fe  Fe16      1.0  0.46061  0.09008  0.36039  1.0000
  H   H101      1.0  0.25894  0.04426  0.64556  1.0000
  C   C99       1.0  0.18001  0.00292  0.54597  1.0000
  H   H102      1.0  0.23128  0.01439  0.57904  1.0000
  C   C100      1.0  0.36985  0.10255  0.55071  1.0000
  C   C101      1.0  0.38484  0.08956  0.55659  1.0000
  Fe  Fe17      1.0  0.46867  0.06842  0.39715  1.0000
  H   H103      1.0  0.23839  0.02423  0.60378  1.0000
  C   C102      1.0  0.40044  0.08367  0.54358  1.0000
  H   H104      1.0  0.41206  0.07342  0.54799  1.0000
  C   C103      1.0  0.42111  0.03760  0.36890  1.0000
  H   H105      1.0  0.34565  0.11421  0.52318  1.0000
  C   C104      1.0  0.28617  0.02654  0.48035  1.0000
  C   C105      1.0  0.35404  0.12203  0.52638  1.0000
  C   C106      1.0  0.43929  0.03308  0.33876  1.0000
  C   C107      1.0  0.38557  0.10366  0.51950  1.0000
  C   C108      1.0  0.40087  0.09078  0.52490  1.0000
  H   H106      1.0  0.41283  0.08616  0.51462  1.0000
  H   H107      1.0  0.38588  0.10886  0.50493  1.0000
  H   H108      1.0  0.25825  0.06908  0.46945  1.0000
  C   C109      1.0  0.20157  0.06282  0.51235  1.0000
  N   N12       1.0  0.03849  0.14891  0.58637  1.0000
  H   H109      1.0  0.24061  0.02993  0.54658  1.0000
  C   C110      1.0  0.47293  0.14000  0.36783  1.0000
  C   C111      1.0  0.32070  0.02783  0.53396  1.0000
  C   C112      1.0  0.07037  0.13489  0.57579  1.0000
  S   S38       1.0  0.26695  0.10991  0.63622  1.0000
  H   H110      1.0  0.21777  0.03559  0.51941  1.0000
  C   C113      1.0  0.13816  0.17838  0.56778  1.0000
  C   C114      1.0  0.27009  0.03322  0.64969  1.0000
  H   H111      1.0  0.11320  0.18389  0.61022  1.0000
  H   H112      1.0  0.33942  0.03082  0.60299  1.0000
  H   H113      1.0  0.31899  0.02640  0.62049  1.0000
  S   S39       1.0  0.27448  0.00933  0.49327  1.0000
  H   H114      1.0  0.45014  0.03631  0.32692  1.0000
  C   C115      1.0  0.06964  0.14490  0.55798  1.0000
  H   H115      1.0  0.40085  0.02105  0.38156  1.0000
  H   H116      1.0  0.33836  0.00175  0.59532  1.0000
  C   C116      1.0  0.46074  0.01585  0.40022  1.0000
  Fe  Fe18      1.0  0.27442  0.99039  0.61885  1.0000
  H   H117      1.0  0.40865  0.00525  0.35576  1.0000
  H   H118      1.0  0.47933  0.02299  0.41211  1.0000
  H   H119      1.0  0.00926  0.15328  0.59659  1.0000
  C   C117      1.0  0.05331  0.15713  0.55455  1.0000
  H   H120      1.0  0.10280  0.21392  0.55787  1.0000
  C   C118      1.0  0.41144  0.99539  0.64393  1.0000
  H   H121      1.0  0.29641  0.02280  0.55459  1.0000
  H   H122      1.0  0.34401  0.03038  0.51143  1.0000
  C   C119      1.0  0.33997  0.00968  0.49077  1.0000
  Fe  Fe19      1.0  0.33316  0.08912  0.64535  1.0000
  C   C120      1.0  0.08991  0.21177  0.59396  1.0000
  H   H123      1.0  0.14999  0.16929  0.56111  1.0000
  H   H124      1.0  0.08689  0.22584  0.58553  1.0000
  C   C121      1.0  0.30512  0.02029  0.54150  1.0000
  H   H125      1.0  0.48147  0.13753  0.39283  1.0000
  S   S40       1.0  0.47569  0.10339  0.33322  1.0000
  H   H126      1.0  0.45753  0.07716  0.32886  1.0000
  C   C122      1.0  0.49184  0.00427  0.37441  1.0000
  S   S41       1.0  0.04456  0.23370  0.61087  1.0000
  H   H127      1.0  0.00726  0.18988  0.54571  1.0000
  C   C123      1.0  0.43931  0.99730  0.62003  1.0000
  H   H128      1.0  0.34730  0.00302  0.64682  1.0000
  H   H129      1.0  0.02116  0.16420  0.60603  1.0000
  H   H130      1.0  0.44587  0.00750  0.38538  1.0000
  H   H131      1.0  0.35297  0.01462  0.48747  1.0000
  H   H132      1.0  0.33244  0.01665  0.47954  1.0000
  C   C124      1.0  0.45938  0.00848  0.38618  1.0000
  S   S42       1.0  0.27839  0.99468  0.58848  1.0000
  H   H133      1.0  0.44591  0.00017  0.60558  1.0000
  H   H134      1.0  0.28922  0.00298  0.53822  1.0000
  C   C125      1.0  0.34317  0.99477  0.60788  1.0000
  S   S43       1.0  0.01617  0.23475  0.57622  1.0000
  S   S44       1.0  0.49323  0.05370  0.40954  1.0000
  C   C126      1.0  0.47320  0.99560  0.35855  1.0000
  C   C127      1.0  0.27219  0.01585  0.64654  1.0000
  C   C128      1.0  0.45007  0.99136  0.63330  1.0000
  H   H135      1.0  0.19317  0.01195  0.59582  1.0000
  Fe  Fe20      1.0  0.48947  0.98840  0.64652  1.0000
  Fe  Fe21      1.0  0.31759  0.05602  0.65145  1.0000
  C   C129      1.0  0.49373  0.01159  0.38825  1.0000
  S   S45       1.0  0.47430  0.98729  0.62606  1.0000
  C   C130      1.0  0.19162  0.99791  0.59889  1.0000
  C   C131      1.0  0.17761  0.99380  0.59345  1.0000
  H   H136      1.0  0.46002  0.99096  0.36183  1.0000
  H   H137      1.0  0.18638  0.98987  0.54225  1.0000
  H   H138      1.0  0.35737  0.99054  0.38649  1.0000
  H   H139      1.0  0.28733  0.98787  0.65092  1.0000
  H   H140      1.0  0.29411  0.13064  0.64166  1.0000
  H   H141      1.0  0.32179  0.13890  0.64497  1.0000
  C   C132      1.0  0.44144  0.98749  0.65196  1.0000
  C   C133      1.0  0.28639  0.00154  0.65227  1.0000
  Fe  Fe22      1.0  0.41624  0.08215  0.73858  1.0000
  S   S46       1.0  0.39440  0.10420  0.75071  1.0000
  S   S47       1.0  0.44216  0.08465  0.71726  1.0000
  Fe  Fe23      1.0  0.39625  0.05227  0.76021  1.0000
  S   S48       1.0  0.37283  0.07128  0.77428  1.0000
  S   S49       1.0  0.39716  0.02263  0.76499  1.0000
  Fe  Fe24      1.0  0.37455  0.08987  0.74642  1.0000
  S   S50       1.0  0.34802  0.10014  0.73619  1.0000
  Fe  Fe25      1.0  0.39492  0.08320  0.77734  1.0000
  S   S51       1.0  0.39527  0.08362  0.80618  1.0000
  S   S52       1.0  0.39653  0.06968  0.73218  1.0000
  S   S53       1.0  0.41831  0.06243  0.76531  1.0000
  C   C134      1.0  0.48024  0.16252  0.92176  1.0000
  C   C135      1.0  0.28291  0.12472  0.67080  1.0000
  S   S54       1.0  0.33675  0.01160  0.73083  1.0000
  C   C136      1.0  0.28298  0.03657  0.65735  1.0000
  H   H142      1.0  0.46818  0.01095  0.80416  1.0000
  C   C137      1.0  0.45440  0.03267  0.72019  1.0000
  C   C138      1.0  0.47496  0.11568  0.78260  1.0000
  N   N13       1.0  0.36663  0.03934  0.68410  1.0000
  H   H143      1.0  0.37895  0.10425  0.67135  1.0000
  H   H144      1.0  0.48458  0.10624  0.69351  1.0000
  H   H145      1.0  0.46235  0.06987  0.82020  1.0000
  C   C139      1.0  0.39317  0.05156  0.69278  1.0000
  H   H146      1.0  0.43564  0.06355  0.81296  1.0000
  Fe  Fe26      1.0  0.47297  0.08358  0.86280  1.0000
  S   S55       1.0  0.44736  0.10528  0.86942  1.0000
  S   S56       1.0  0.47810  0.05277  0.86735  1.0000
  H   H147      1.0  0.47798  0.16660  0.93464  1.0000
  S   S57       1.0  0.47359  0.13556  0.84834  1.0000
  C   C140      1.0  0.35232  0.03335  0.67958  1.0000
  Fe  Fe27      1.0  0.46615  0.11880  0.87678  1.0000
  S   S58       1.0  0.45914  0.13115  0.90202  1.0000
  Fe  Fe28      1.0  0.45708  0.12029  0.84052  1.0000
  S   S59       1.0  0.44161  0.13352  0.81785  1.0000
  C   C141      1.0  0.46384  0.20035  0.88642  1.0000
  S   S60       1.0  0.48123  0.09780  0.83354  1.0000
  Fe  Fe29      1.0  0.49537  0.01249  0.66780  1.0000
  H   H148      1.0  0.47273  0.19786  0.87337  1.0000
  H   H149      1.0  0.46994  0.12777  0.73015  1.0000
  H   H150      1.0  0.49697  0.14312  0.77808  1.0000
  C   C142      1.0  0.45639  0.10846  0.72671  1.0000
  N   N14       1.0  0.29730  0.99635  0.71553  1.0000
  S   S61       1.0  0.42544  0.01165  0.85135  1.0000
  C   C143      1.0  0.43056  0.20876  0.93847  1.0000
  H   H151      1.0  0.31099  0.99407  0.66318  1.0000
  C   C144      1.0  0.49710  0.16237  0.89041  1.0000
  C   C145      1.0  0.29676  0.01521  0.71592  1.0000
  C   C146      1.0  0.28542  0.12408  0.68816  1.0000
  C   C147      1.0  0.38408  0.03777  0.67319  1.0000
  S   S62       1.0  0.38273  0.99165  0.70284  1.0000
  H   H152      1.0  0.45878  0.14704  0.93157  1.0000
  C   C148      1.0  0.46320  0.04174  0.86277  1.0000
  C   C149      1.0  0.46970  0.02344  0.86099  1.0000
  C   C150      1.0  0.45839  0.01420  0.85710  1.0000
  C   C151      1.0  0.44028  0.02306  0.85549  1.0000
  C   C152      1.0  0.43370  0.04131  0.85742  1.0000
  C   C153      1.0  0.44520  0.05073  0.86080  1.0000
  H   H153      1.0  0.43440  0.99895  0.70385  1.0000
  C   C154      1.0  0.35240  0.09736  0.67697  1.0000
  H   H154      1.0  0.41968  0.04824  0.85622  1.0000
  H   H155      1.0  0.44004  0.06481  0.86222  1.0000
  H   H156      1.0  0.44744  0.18112  0.88863  1.0000
  C   C155      1.0  0.45023  0.03698  0.80781  1.0000
  C   C156      1.0  0.43603  0.99348  0.71827  1.0000
  H   H157      1.0  0.42308  0.22333  0.93731  1.0000
  C   C157      1.0  0.44873  0.05366  0.81212  1.0000
  C   C158      1.0  0.31148  0.13499  0.65716  1.0000
  C   C159      1.0  0.43882  0.19377  0.91218  1.0000
  S   S63       1.0  0.48942  0.03958  0.67537  1.0000
  H   H158      1.0  0.40343  0.05654  0.69612  1.0000
  S   S64       1.0  0.49491  0.22730  0.92190  1.0000
  H   H159      1.0  0.44399  0.11860  0.72425  1.0000
  H   H160      1.0  0.48875  0.07286  0.77398  1.0000
  C   C160      1.0  0.49602  0.09946  0.68421  1.0000
  H   H161      1.0  0.42812  0.18606  0.91889  1.0000
  H   H162      1.0  0.46352  0.00010  0.85584  1.0000
  H   H163      1.0  0.37738  0.10410  0.70383  1.0000
  C   C161      1.0  0.36217  0.04682  0.69923  1.0000
  H   H164      1.0  0.30282  0.12866  0.70318  1.0000
  C   C162      1.0  0.48640  0.15117  0.88870  1.0000
  H   H165      1.0  0.42022  0.20003  0.94412  1.0000
  N   N15       1.0  0.44137  0.00649  0.72535  1.0000
  H   H166      1.0  0.44161  0.01498  0.76586  1.0000
  C   C163      1.0  0.48191  0.02799  0.81123  1.0000
  H   H167      1.0  0.43830  0.03394  0.80533  1.0000
  H   H168      1.0  0.29526  0.01662  0.73020  1.0000
  H   H169      1.0  0.38760  0.03182  0.66116  1.0000
  H   H170      1.0  0.42254  0.99039  0.72663  1.0000
  C   C164      1.0  0.47109  0.11365  0.72992  1.0000
  S   S65       1.0  0.43391  0.99125  0.81013  1.0000
  C   C165      1.0  0.37535  0.05298  0.70384  1.0000
  H   H171      1.0  0.43272  0.99350  0.75337  1.0000
  C   C166      1.0  0.35042  0.09769  0.71371  1.0000
  C   C167      1.0  0.33595  0.09361  0.70892  1.0000
  C   C168      1.0  0.33706  0.09315  0.69061  1.0000
  H   H172      1.0  0.32377  0.09104  0.71938  1.0000
  H   H173      1.0  0.34090  0.04523  0.67655  1.0000
  C   C169      1.0  0.37956  0.01976  0.75654  1.0000
  C   C170      1.0  0.36441  0.03412  0.75327  1.0000
  C   C171      1.0  0.35056  0.03143  0.74631  1.0000
  C   C172      1.0  0.35216  0.01452  0.74225  1.0000
  C   C173      1.0  0.36712  0.00017  0.74595  1.0000
  C   C174      1.0  0.38076  0.00278  0.75309  1.0000
  H   H174      1.0  0.36337  0.04731  0.75598  1.0000
  H   H175      1.0  0.33899  0.04260  0.74355  1.0000
  H   H176      1.0  0.47792  0.14072  0.79783  1.0000
  H   H177      1.0  0.49476  0.01775  0.81110  1.0000
  C   C175      1.0  0.45819  0.09038  0.72566  1.0000
  C   C176      1.0  0.47420  0.07734  0.72880  1.0000
  H   H178      1.0  0.46314  0.12714  0.78261  1.0000
  C   C177      1.0  0.36708  0.10092  0.68187  1.0000
  H   H179      1.0  0.39225  0.00201  0.85136  1.0000
  H   H180      1.0  0.47538  0.06329  0.72846  1.0000
  N   N16       1.0  0.44193  0.20575  0.92048  1.0000
  C   C178      1.0  0.40856  0.09737  0.80891  1.0000
  C   C179      1.0  0.41399  0.11161  0.79469  1.0000
  C   C180      1.0  0.42401  0.12280  0.79756  1.0000
  C   C181      1.0  0.42919  0.11935  0.81440  1.0000
  C   C182      1.0  0.42436  0.10467  0.82835  1.0000
  C   C183      1.0  0.41374  0.09395  0.82573  1.0000
  H   H181      1.0  0.40996  0.11436  0.78171  1.0000
  H   H182      1.0  0.42761  0.13422  0.78677  1.0000
  H   H183      1.0  0.42824  0.10196  0.84138  1.0000
  H   H184      1.0  0.40954  0.08296  0.83679  1.0000
  N   N17       1.0  0.49074  0.11687  0.78666  1.0000
  N   N18       1.0  0.49289  0.08989  0.67335  1.0000
  C   C184      1.0  0.47404  0.08807  0.67495  1.0000
  C   C185      1.0  0.44964  0.19097  0.89498  1.0000
  C   C186      1.0  0.47261  0.14550  0.90356  1.0000
  C   C187      1.0  0.46945  0.15137  0.92003  1.0000
  H   H185      1.0  0.41140  0.04271  0.66861  1.0000
  C   C188      1.0  0.48468  0.98734  0.74341  1.0000
  C   C189      1.0  0.29953  0.00497  0.65956  1.0000
  H   H186      1.0  0.30988  0.01906  0.70747  1.0000
  C   C190      1.0  0.45571  0.21512  0.91210  1.0000
  H   H187      1.0  0.46043  0.04370  0.71076  1.0000
  C   C191      1.0  0.39762  0.04386  0.67736  1.0000
  C   C192      1.0  0.36621  0.10085  0.70023  1.0000
  Fe  Fe30      1.0  0.35339  0.98952  0.71573  1.0000
  H   H188      1.0  0.32568  0.09042  0.68695  1.0000
  N   N19       1.0  0.37401  0.00995  0.81411  1.0000
  C   C193      1.0  0.37335  0.02829  0.80808  1.0000
  C   C194      1.0  0.38085  0.00050  0.82937  1.0000
  C   C195      1.0  0.37937  0.03773  0.81755  1.0000
  C   C196      1.0  0.38680  0.00952  0.83927  1.0000
  C   C197      1.0  0.38613  0.02825  0.83325  1.0000
  C   C198      1.0  0.36840  0.00019  0.80354  1.0000
  H   H189      1.0  0.36278  0.98832  0.81257  1.0000
  H   H190      1.0  0.35773  0.02679  0.66749  1.0000
  H   H191      1.0  0.37898  0.05226  0.81270  1.0000
  H   H192      1.0  0.47209  0.08676  0.66171  1.0000
  H   H193      1.0  0.39108  0.03536  0.84059  1.0000
  C   C199      1.0  0.42215  0.98933  0.65727  1.0000
  C   C200      1.0  0.44391  0.01657  0.75109  1.0000
  H   H194      1.0  0.28514  0.02508  0.71028  1.0000
  C   C201      1.0  0.29597  0.13024  0.65519  1.0000
  C   C202      1.0  0.45156  0.03086  0.73912  1.0000
  C   C203      1.0  0.46394  0.05713  0.81613  1.0000
  S   S66       1.0  0.30656  0.08158  0.66251  1.0000
  S   S67       1.0  0.35260  0.10076  0.65353  1.0000
  C   C204      1.0  0.47386  0.09972  0.77833  1.0000
  H   H195      1.0  0.46134  0.09896  0.77498  1.0000
  H   H196      1.0  0.43952  0.20567  0.94848  1.0000
  H   H197      1.0  0.45526  0.04055  0.74448  1.0000
  C   C205      1.0  0.46693  0.02406  0.80728  1.0000
  Fe  Fe31      1.0  0.47309  0.22596  0.94793  1.0000
  H   H198      1.0  0.34830  0.04808  0.70782  1.0000
  S   S68       1.0  0.47952  0.19532  0.95621  1.0000
  C   C206      1.0  0.44932  0.02020  0.71349  1.0000
  H   H199      1.0  0.35766  0.00928  0.79609  1.0000
  H   H200      1.0  0.48683  0.98942  0.71468  1.0000
  H   H201      1.0  0.36834  0.98699  0.74319  1.0000
  C   C207      1.0  0.49428  0.16787  0.90700  1.0000
  H   H202      1.0  0.48682  0.00096  0.74145  1.0000
  H   H203      1.0  0.48355  0.01637  0.86266  1.0000
  H   H204      1.0  0.27099  0.12074  0.66937  1.0000
  H   H205      1.0  0.37164  0.05898  0.71584  1.0000
  H   H206      1.0  0.34652  0.02327  0.69137  1.0000
  H   H207      1.0  0.36837  0.03564  0.79572  1.0000
  C   C208      1.0  0.30094  0.12918  0.68963  1.0000
  H   H208      1.0  0.38063  0.99502  0.79325  1.0000
  C   C209      1.0  0.49175  0.13375  0.79093  1.0000
  H   H209      1.0  0.33354  0.13365  0.68934  1.0000
  H   H210      1.0  0.45176  0.02168  0.69874  1.0000
  N   N20       1.0  0.31378  0.13444  0.67424  1.0000
  H   H211      1.0  0.47833  0.21941  0.88877  1.0000
  C   C210      1.0  0.48920  0.08508  0.77786  1.0000
  C   C211      1.0  0.48760  0.10079  0.73187  1.0000
  H   H212      1.0  0.27542  0.11964  0.70040  1.0000
  H   H213      1.0  0.49428  0.05468  0.70319  1.0000
  H   H214      1.0  0.28148  0.05012  0.65950  1.0000
  C   C212      1.0  0.48897  0.08257  0.73172  1.0000
  S   S69       1.0  0.47381  0.99638  0.67320  1.0000
  C   C213      1.0  0.32950  0.14054  0.67597  1.0000
  C   C214      1.0  0.43892  0.00440  0.74393  1.0000
  S   S70       1.0  0.49080  0.09557  0.87292  1.0000
  H   H215      1.0  0.39246  0.99175  0.75563  1.0000
  H   H216      1.0  0.48889  0.14684  0.87592  1.0000
  H   H217      1.0  0.47128  0.07565  0.68547  1.0000
  N   N21       1.0  0.48028  0.04434  0.81561  1.0000
  C   C215      1.0  0.28812  0.99298  0.70439  1.0000
  H   H218      1.0  0.27990  0.00418  0.69624  1.0000
  S   S71       1.0  0.31587  0.02780  0.66775  1.0000
  Fe  Fe32      1.0  0.49690  0.11150  0.84406  1.0000
  H   H219      1.0  0.45810  0.22465  0.91868  1.0000
  C   C216      1.0  0.29808  0.02264  0.66156  1.0000
  C   C217      1.0  0.46699  0.21244  0.89505  1.0000
  H   H220      1.0  0.34192  0.13703  0.66505  1.0000
  H   H221      1.0  0.49328  0.06163  0.82297  1.0000
  C   C218      1.0  0.49615  0.04777  0.82009  1.0000
  S   S72       1.0  0.49052  0.22981  0.96468  1.0000
  H   H222      1.0  0.46352  0.10005  0.67922  1.0000
  H   H223      1.0  0.32590  0.15555  0.67493  1.0000
  Fe  Fe33      1.0  0.42955  0.31878  0.09970  1.0000
  S   S73       1.0  0.45724  0.32115  0.08125  1.0000
  S   S74       1.0  0.41821  0.29353  0.10639  1.0000
  Fe  Fe34      1.0  0.42184  0.35673  0.10766  1.0000
  S   S75       1.0  0.44911  0.36197  0.09038  1.0000
  S   S76       1.0  0.40215  0.37809  0.12233  1.0000
  Fe  Fe35      1.0  0.44285  0.34966  0.07042  1.0000
  C   C219      1.0  0.37282  0.47109  0.12749  1.0000
  Fe  Fe36      1.0  0.46069  0.33302  0.10305  1.0000
  H   H224      1.0  0.29441  0.46943  0.05566  1.0000
  S   S77       1.0  0.41459  0.34644  0.08684  1.0000
  S   S78       1.0  0.43390  0.32880  0.12238  1.0000
  C   C220      1.0  0.48454  0.37364  0.13049  1.0000
  H   H225      1.0  0.41282  0.25765  0.11088  1.0000
  S   S79       1.0  0.37851  0.45170  0.06659  1.0000
  H   H226      1.0  0.38223  0.39349  0.02421  1.0000
  S   S80       1.0  0.28579  0.47052  0.09718  1.0000
  Fe  Fe37      1.0  0.35290  0.47250  0.07535  1.0000
  H   H227      1.0  0.47508  0.40013  0.11453  1.0000
  C   C221      1.0  0.47121  0.38749  0.12267  1.0000
  H   H228      1.0  0.40099  0.33519  0.03558  1.0000
  H   H229      1.0  0.46263  0.29781  0.13270  1.0000
  C   C222      1.0  0.40670  0.35703  0.01232  1.0000
  H   H230      1.0  0.20563  0.46583  0.00264  1.0000
  C   C223      1.0  0.38464  0.43134  0.08235  1.0000
  C   C224      1.0  0.39940  0.41763  0.07623  1.0000
  C   C225      1.0  0.40454  0.40111  0.08839  1.0000
  C   C226      1.0  0.39524  0.39842  0.10685  1.0000
  C   C227      1.0  0.38056  0.41217  0.11303  1.0000
  C   C228      1.0  0.37511  0.42855  0.10074  1.0000
  H   H231      1.0  0.40675  0.41971  0.06198  1.0000
  H   H232      1.0  0.41579  0.39054  0.08345  1.0000
  H   H233      1.0  0.37325  0.41005  0.12729  1.0000
  H   H234      1.0  0.36358  0.43897  0.10552  1.0000
  H   H235      1.0  0.35763  0.47613  0.12861  1.0000
  C   C229      1.0  0.42194  0.34741  0.03799  1.0000
  C   C230      1.0  0.44762  0.27628  0.14090  1.0000
  H   H236      1.0  0.43407  0.28548  0.14183  1.0000
  H   H237      1.0  0.43920  0.39687  0.10353  1.0000
  H   H238      1.0  0.49557  0.24344  0.13575  1.0000
  N   N22       1.0  0.46630  0.24579  0.14216  1.0000
  C   C231      1.0  0.43007  0.37222  0.01286  1.0000
  C   C232      1.0  0.45908  0.23895  0.10176  1.0000
  H   H239      1.0  0.42591  0.40015  0.12595  1.0000
  C   C233      1.0  0.42759  0.25694  0.10721  1.0000
  H   H240      1.0  0.48317  0.35662  0.05414  1.0000
  H   H241      1.0  0.48645  0.33757  0.04365  1.0000
  C   C234      1.0  0.43419  0.27287  0.10363  1.0000
  C   C235      1.0  0.45332  0.27181  0.09896  1.0000
  C   C236      1.0  0.46574  0.25486  0.09816  1.0000
  C   C237      1.0  0.19564  0.47681  0.00845  1.0000
  H   H242      1.0  0.45858  0.28390  0.09657  1.0000
  H   H243      1.0  0.40264  0.38369  0.05244  1.0000
  H   H244      1.0  0.44358  0.33629  0.00148  1.0000
  C   C238      1.0  0.41719  0.37037  0.00412  1.0000
  S   S81       1.0  0.48633  0.32208  0.11439  1.0000
  C   C239      1.0  0.19812  0.48176  0.02349  1.0000
  H   H245      1.0  0.48836  0.24898  0.00428  1.0000
  H   H246      1.0  0.34482  0.43494  0.06582  1.0000
  H   H247      1.0  0.37633  0.45623  0.12754  1.0000
  H   H248      1.0  0.45889  0.34130  0.14933  1.0000
  H   H249      1.0  0.38583  0.37832  0.07335  1.0000
  C   C240      1.0  0.37389  0.40249  0.03342  1.0000
  C   C241      1.0  0.25142  0.47905  0.11880  1.0000
  C   C242      1.0  0.36470  0.40959  0.06306  1.0000
  N   N23       1.0  0.37512  0.39823  0.05145  1.0000
  C   C243      1.0  0.44923  0.25739  0.14419  1.0000
  C   C244      1.0  0.43988  0.39956  0.11668  1.0000
  C   C245      1.0  0.35127  0.43019  0.03834  1.0000
  S   S82       1.0  0.33943  0.45859  0.99545  1.0000
  H   H250      1.0  0.25355  0.46461  0.12504  1.0000
  S   S83       1.0  0.39179  0.35370  0.00076  1.0000
  H   H251      1.0  0.36578  0.40632  0.07732  1.0000
  C   C246      1.0  0.49044  0.23937  0.03269  1.0000
  H   H252      1.0  0.36084  0.42192  0.01231  1.0000
  C   C247      1.0  0.46361  0.28323  0.13555  1.0000
  H   H253      1.0  0.42403  0.33821  0.05085  1.0000
  H   H254      1.0  0.38677  0.36977  0.05377  1.0000
  H   H255      1.0  0.43552  0.36648  0.13596  1.0000
  C   C248      1.0  0.46229  0.35443  0.14229  1.0000
  H   H256      1.0  0.44315  0.41320  0.11393  1.0000
  H   H257      1.0  0.48040  0.25414  0.09520  1.0000
  S   S84       1.0  0.33420  0.47285  0.10316  1.0000
  C   C249      1.0  0.48094  0.27135  0.13359  1.0000
  N   N24       1.0  0.45371  0.38501  0.12506  1.0000
  H   H258      1.0  0.38895  0.46060  0.09556  1.0000
  C   C250      1.0  0.47999  0.35703  0.14037  1.0000
  H   H259      1.0  0.29165  0.46632  0.03431  1.0000
  H   H260      1.0  0.41539  0.37930  0.99104  1.0000
  H   H261      1.0  0.49344  0.27674  0.12909  1.0000
  H   H262      1.0  0.22419  0.48564  0.13583  1.0000
  C   C251      1.0  0.44922  0.36866  0.13453  1.0000
  H   H263      1.0  0.34204  0.44273  0.03323  1.0000
  C   C252      1.0  0.43242  0.36076  0.02980  1.0000
  C   C253      1.0  0.48203  0.25253  0.13719  1.0000
  C   C254      1.0  0.36187  0.41850  0.02661  1.0000
  H   H264      1.0  0.36168  0.46689  0.01523  1.0000
  C   C255      1.0  0.38822  0.38171  0.05809  1.0000
  C   C256      1.0  0.35270  0.42576  0.05667  1.0000
  C   C257      1.0  0.43998  0.24005  0.10621  1.0000
  S   S85       1.0  0.44829  0.36340  0.04072  1.0000
  H   H265      1.0  0.42278  0.31762  0.00042  1.0000
  C   C258      1.0  0.40895  0.34566  0.02933  1.0000
  C   C259      1.0  0.39846  0.48449  0.07891  1.0000
  H   H266      1.0  0.48637  0.35696  0.08872  1.0000
  H   H267      1.0  0.43674  0.25213  0.14782  1.0000
  H   H268      1.0  0.43816  0.38257  0.00649  1.0000
  H   H269      1.0  0.21013  0.47473  0.02936  1.0000
  S   S86       1.0  0.32950  0.47911  0.06117  1.0000
  C   C260      1.0  0.29309  0.47639  0.04132  1.0000
  H   H270      1.0  0.40372  0.47875  0.06665  1.0000
  C   C261      1.0  0.38996  0.47426  0.09532  1.0000
  S   S87       1.0  0.28719  0.47427  0.99232  1.0000
  C   C262      1.0  0.48541  0.23891  0.01685  1.0000
  C   C263      1.0  0.43732  0.31468  0.99361  1.0000
  H   H271      1.0  0.49041  0.34593  0.14591  1.0000
  H   H272      1.0  0.48642  0.32769  0.99639  1.0000
  C   C264      1.0  0.44909  0.32535  0.99401  1.0000
  C   C265      1.0  0.33887  0.47891  0.00163  1.0000
  C   C266      1.0  0.49336  0.34761  0.04533  1.0000
  H   H273      1.0  0.37629  0.47278  0.13985  1.0000
  N   N25       1.0  0.38270  0.48152  0.11069  1.0000
  H   H274      1.0  0.26400  0.48301  0.06894  1.0000
  C   C267      1.0  0.35108  0.47895  0.01203  1.0000
  Fe  Fe38      1.0  0.31090  0.48254  0.08827  1.0000
  H   H275      1.0  0.30615  0.48109  0.03423  1.0000
  H   H276      1.0  0.17860  0.48252  0.98890  1.0000
  C   C268      1.0  0.18029  0.48623  0.00080  1.0000
  C   C269      1.0  0.26534  0.48582  0.10489  1.0000
  H   H277      1.0  0.47110  0.34797  0.98646  1.0000
  H   H278      1.0  0.06706  0.39818  0.54032  1.0000
  S   S88       1.0  0.07806  0.30270  0.59956  1.0000
  H   H279      1.0  0.01874  0.32967  0.51599  1.0000
  H   H280      1.0  0.00392  0.26377  0.60036  1.0000
  H   H281      1.0  0.07582  0.36089  0.56904  1.0000
  C   C270      1.0  0.07807  0.35784  0.55561  1.0000
  S   S89       1.0  0.02481  0.26339  0.52761  1.0000
  Fe  Fe39      1.0  0.02768  0.34374  0.63612  1.0000
  S   S90       1.0  0.01664  0.41091  0.49355  1.0000
  N   N26       1.0  0.01493  0.41389  0.43352  1.0000
  Fe  Fe40      1.0  0.02659  0.36187  0.52395  1.0000
  S   S91       1.0  0.04086  0.38365  0.52283  1.0000
  S   S92       1.0  0.03511  0.33520  0.54316  1.0000
  Fe  Fe41      1.0  0.01301  0.40246  0.52420  1.0000
  H   H282      1.0  0.08859  0.43577  0.64892  1.0000
  Fe  Fe42      1.0  0.04330  0.38999  0.49252  1.0000
  S   S93       1.0  0.07131  0.39281  0.47504  1.0000
  H   H283      1.0  0.03819  0.31025  0.58823  1.0000
  S   S94       1.0  0.03135  0.36654  0.49329  1.0000
  C   C271      1.0  0.08305  0.34988  0.52153  1.0000
  S   S95       1.0  0.04798  0.31919  0.64722  1.0000
  H   H284      1.0  0.08201  0.36876  0.64429  1.0000
  Fe  Fe43      1.0  0.06488  0.32266  0.61828  1.0000
  S   S96       1.0  0.04338  0.34537  0.60708  1.0000
  H   H285      1.0  0.04674  0.44092  0.42600  1.0000
  Fe  Fe44      1.0  0.05717  0.36414  0.61316  1.0000
  S   S97       1.0  0.06219  0.39077  0.59449  1.0000
  H   H286      1.0  0.04643  0.41650  0.39305  1.0000
  C   C272      1.0  0.08104  0.38944  0.54123  1.0000
  S   S98       1.0  0.08027  0.34163  0.62201  1.0000
  H   H287      1.0  0.05758  0.28180  0.63199  1.0000
  C   C273      1.0  0.02026  0.41403  0.55778  1.0000
  C   C274      1.0  0.02737  0.42589  0.56333  1.0000
  C   C275      1.0  0.04038  0.41875  0.57454  1.0000
  C   C276      1.0  0.04593  0.39981  0.58049  1.0000
  C   C277      1.0  0.03855  0.38812  0.57508  1.0000
  C   C278      1.0  0.02568  0.39517  0.56389  1.0000
  H   H288      1.0  0.04510  0.25437  0.63616  1.0000
  H   H289      1.0  0.04605  0.42790  0.57864  1.0000
  H   H290      1.0  0.04309  0.37360  0.57893  1.0000
  H   H291      1.0  0.01998  0.38595  0.55993  1.0000
  C   C279      1.0  0.02444  0.39897  0.44384  1.0000
  H   H292      1.0  0.02176  0.33104  0.58300  1.0000
  C   C280      1.0  0.01322  0.28853  0.59668  1.0000
  H   H293      1.0  0.07776  0.32345  0.53656  1.0000
  C   C281      1.0  0.08418  0.36703  0.52303  1.0000
  H   H294      1.0  0.01924  0.31794  0.60628  1.0000
  S   S99       1.0  0.03405  0.45559  0.37043  1.0000
  C   C282      1.0  0.06951  0.27667  0.58769  1.0000
  C   C283      1.0  0.06196  0.26152  0.58993  1.0000
  H   H295      1.0  0.07650  0.28277  0.57416  1.0000
  C   C284      1.0  0.05178  0.26067  0.62258  1.0000
  C   C285      1.0  0.02792  0.28338  0.53165  1.0000
  C   C286      1.0  0.03660  0.28237  0.54565  1.0000
  C   C287      1.0  0.03919  0.29834  0.54870  1.0000
  C   C288      1.0  0.03270  0.31544  0.53808  1.0000
  C   C289      1.0  0.02382  0.31652  0.52419  1.0000
  C   C290      1.0  0.02152  0.30047  0.52091  1.0000
  H   H296      1.0  0.04141  0.26929  0.55409  1.0000
  H   H297      1.0  0.04612  0.29743  0.55941  1.0000
  H   H298      1.0  0.04994  0.37860  0.44464  1.0000
  Fe  Fe45      1.0  0.03441  0.23826  0.54810  1.0000
  C   C291      1.0  0.04220  0.39001  0.43619  1.0000
  H   H299      1.0  0.09150  0.39552  0.52995  1.0000
  N   N27       1.0  0.08158  0.37085  0.53993  1.0000
  C   C292      1.0  0.07936  0.33659  0.53745  1.0000
  Fe  Fe46      1.0  0.01238  0.47357  0.38754  1.0000
  C   C293      1.0  0.07691  0.34054  0.55461  1.0000
  C   C294      1.0  0.02330  0.31695  0.59160  1.0000
  H   H300      1.0  0.07366  0.33039  0.56705  1.0000
  H   H301      1.0  0.99951  0.32875  0.56902  1.0000
  C   C295      1.0  0.06795  0.28405  0.60282  1.0000
  C   C296      1.0  0.09516  0.47680  0.38787  1.0000
  H   H302      1.0  0.08628  0.37753  0.51059  1.0000
  H   H303      1.0  0.00749  0.36113  0.60475  1.0000
  Fe  Fe47      1.0  0.05354  0.46058  0.38432  1.0000
  C   C297      1.0  0.08299  0.38294  0.63672  1.0000
  H   H304      1.0  0.08434  0.34718  0.50814  1.0000
  C   C298      1.0  0.02244  0.41994  0.41537  1.0000
  S   S100      1.0  0.07685  0.43822  0.39323  1.0000
  H   H305      1.0  0.06414  0.38990  0.41184  1.0000
  N   N28       1.0  0.01200  0.30649  0.58799  1.0000
  C   C299      1.0  0.07472  0.42680  0.41641  1.0000
  C   C300      1.0  0.08977  0.41328  0.42140  1.0000
  C   C301      1.0  0.08858  0.40326  0.43950  1.0000
  C   C302      1.0  0.07223  0.40645  0.45275  1.0000
  C   C303      1.0  0.05714  0.42020  0.44793  1.0000
  C   C304      1.0  0.05844  0.43051  0.42975  1.0000
  H   H306      1.0  0.10240  0.41041  0.41118  1.0000
  H   H307      1.0  0.10030  0.39274  0.44317  1.0000
  H   H308      1.0  0.04452  0.42285  0.45818  1.0000
  S   S101      1.0  0.00523  0.42244  0.54263  1.0000
  H   H309      1.0  0.06915  0.39001  0.63366  1.0000
  Fe  Fe48      1.0  0.00427  0.38693  0.49703  1.0000
  H   H310      1.0  0.06302  0.25617  0.57812  1.0000
  H   H311      1.0  0.07725  0.46506  0.41211  1.0000
  C   C305      1.0  0.05339  0.25325  0.60744  1.0000
  H   H312      1.0  0.01841  0.39406  0.45816  1.0000
  S   S102      1.0  0.03967  0.36437  0.64157  1.0000
  H   H313      1.0  0.01481  0.30132  0.51004  1.0000
  H   H314      1.0  0.02238  0.28221  0.60613  1.0000
  C   C306      1.0  0.05876  0.27623  0.62024  1.0000
  H   H315      1.0  0.09323  0.38225  0.62349  1.0000
  S   S103      1.0  0.03154  0.47656  0.40316  1.0000
  H   H316      1.0  0.08393  0.38960  0.55450  1.0000
  H   H317      1.0  0.02318  0.44052  0.55858  1.0000
  C   C307      1.0  0.04018  0.41130  0.40726  1.0000
  S   S104      1.0  0.99825  0.38019  0.52791  1.0000
  C   C308      1.0  0.05012  0.39631  0.41780  1.0000
  H   H318      1.0  0.07933  0.41887  0.63112  1.0000
  H   H319      1.0  0.00783  0.40342  0.60116  1.0000
  H   H320      1.0  0.10165  0.46380  0.38380  1.0000
  C   C309      1.0  0.09085  0.42095  0.65262  1.0000
  C   C310      1.0  0.00277  0.27806  0.59347  1.0000
  Fe  Fe49      1.0  0.06150  0.34022  0.65009  1.0000
  S   S105      1.0  0.03839  0.48500  0.32090  1.0000
  H   H321      1.0  0.01484  0.43166  0.40711  1.0000
  H   H322      1.0  0.00338  0.39035  0.62419  1.0000
  Fe  Fe50      1.0  0.03797  0.48189  0.35062  1.0000
  H   H323      1.0  0.02347  0.48439  0.65148  1.0000
  S   S106      1.0  0.05996  0.48512  0.36264  1.0000
  N   N29       1.0  0.08840  0.39267  0.64748  1.0000
  C   C311      1.0  0.08566  0.41133  0.64267  1.0000
  C   C312      1.0  0.08121  0.47761  0.40383  1.0000
  C   C313      1.0  0.00036  0.31455  0.57611  1.0000
  H   H324      1.0  0.05321  0.48160  0.43115  1.0000
  Fe  Fe51      1.0  0.39584  0.37590  0.93248  1.0000
  S   S107      1.0  0.39594  0.39025  0.95395  1.0000
  S   S108      1.0  0.37549  0.38586  0.91404  1.0000
  Fe  Fe52      1.0  0.43065  0.34741  0.93885  1.0000
  N   N30       1.0  0.04367  0.43427  0.79784  1.0000
  H   H325      1.0  0.30453  0.43928  0.90363  1.0000
  Fe  Fe53      1.0  0.40308  0.36187  0.97056  1.0000
  H   H326      1.0  0.40605  0.42763  0.95664  1.0000
  S   S109      1.0  0.40050  0.34755  0.95014  1.0000
  C   C314      1.0  0.34544  0.43634  0.89784  1.0000
  C   C315      1.0  0.07009  0.44116  0.81186  1.0000
  Fe  Fe54      1.0  0.04413  0.45706  0.72968  1.0000
  S   S110      1.0  0.04352  0.47385  0.70133  1.0000
  S   S111      1.0  0.03526  0.47128  0.75338  1.0000
  Fe  Fe55      1.0  0.05384  0.42127  0.71694  1.0000
  S   S112      1.0  0.05458  0.43505  0.68749  1.0000
  Fe  Fe56      1.0  0.06930  0.45338  0.69285  1.0000
  Fe  Fe57      1.0  0.02875  0.45398  0.69881  1.0000
  N   N31       1.0  0.46715  0.32243  0.98462  1.0000
  S   S113      1.0  0.07117  0.43793  0.72151  1.0000
  S   S114      1.0  0.02680  0.43887  0.72804  1.0000
  H   H327      1.0  0.46954  0.35320  0.89687  1.0000
  C   C316      1.0  0.46652  0.28867  0.93228  1.0000
  S   S115      1.0  0.43367  0.35926  0.96080  1.0000
  C   C317      1.0  0.02528  0.36225  0.74253  1.0000
  C   C318      1.0  0.38524  0.45044  0.90281  1.0000
  C   C319      1.0  0.02700  0.35084  0.71532  1.0000
  H   H328      1.0  0.05495  0.48309  0.65497  1.0000
  H   H329      1.0  0.07947  0.35439  0.72747  1.0000
  H   H330      1.0  0.47040  0.35956  0.91724  1.0000
  S   S116      1.0  0.28019  0.48099  0.95030  1.0000
  C   C320      1.0  0.06985  0.48156  0.88656  1.0000
  C   C321      1.0  0.11646  0.48407  0.66638  1.0000
  H   H331      1.0  0.40759  0.42838  0.92415  1.0000
  S   S117      1.0  0.44130  0.40906  0.93571  1.0000
  S   S118      1.0  0.07317  0.33600  0.67490  1.0000
  C   C322      1.0  0.05871  0.37026  0.68391  1.0000
  C   C323      1.0  0.45107  0.30292  0.93520  1.0000
  C   C324      1.0  0.49278  0.37769  0.93764  1.0000
  H   H332      1.0  0.07718  0.48193  0.69964  1.0000
  H   H333      1.0  0.34055  0.44425  0.88559  1.0000
  C   C325      1.0  0.07325  0.44149  0.79316  1.0000
  H   H334      1.0  0.10749  0.38475  0.68420  1.0000
  C   C326      1.0  0.00707  0.37942  0.71950  1.0000
  H   H335      1.0  0.05263  0.37456  0.67198  1.0000
  C   C327      1.0  0.39580  0.43741  0.94960  1.0000
  C   C328      1.0  0.05194  0.47874  0.75940  1.0000
  C   C329      1.0  0.07064  0.47512  0.75056  1.0000
  C   C330      1.0  0.02265  0.47619  0.82209  1.0000
  C   C331      1.0  0.49617  0.40685  0.91736  1.0000
  C   C332      1.0  0.00019  0.44846  0.67661  1.0000
  C   C333      1.0  0.10032  0.47826  0.67677  1.0000
  H   H336      1.0  0.07501  0.46872  0.73883  1.0000
  H   H337      1.0  0.47854  0.37282  0.89482  1.0000
  C   C334      1.0  0.46306  0.29700  0.97537  1.0000
  H   H338      1.0  0.08017  0.44443  0.81718  1.0000
  C   C335      1.0  0.22000  0.48175  0.96100  1.0000
  H   H339      1.0  0.08582  0.44496  0.78391  1.0000
  C   C336      1.0  0.00880  0.41812  0.66984  1.0000
  H   H340      1.0  0.47655  0.25981  0.93452  1.0000
  H   H341      1.0  0.12504  0.47756  0.65527  1.0000
  S   S119      1.0  0.44461  0.24381  0.94892  1.0000
  H   H342      1.0  0.38074  0.44923  0.97312  1.0000
  C   C337      1.0  0.29405  0.40892  0.96308  1.0000
  H   H343      1.0  0.03720  0.33886  0.71979  1.0000
  H   H344      1.0  0.46873  0.28591  0.96805  1.0000
  C   C338      1.0  0.47916  0.33401  0.98487  1.0000
  C   C339      1.0  0.10162  0.39233  0.67237  1.0000
  N   N32       1.0  0.01989  0.36432  0.72522  1.0000
  H   H345      1.0  0.48763  0.32256  0.90517  1.0000
  C   C340      1.0  0.36286  0.40836  0.91376  1.0000
  C   C341      1.0  0.35809  0.41573  0.92944  1.0000
  C   C342      1.0  0.34673  0.43324  0.92942  1.0000
  H   H346      1.0  0.06210  0.43892  0.77167  1.0000
  C   C343      1.0  0.35666  0.41875  0.89791  1.0000
  H   H347      1.0  0.36257  0.40771  0.94181  1.0000
  H   H348      1.0  0.34336  0.43887  0.94149  1.0000
  H   H349      1.0  0.36040  0.41309  0.88572  1.0000
  Fe  Fe58      1.0  0.31702  0.46415  0.98015  1.0000
  C   C344      1.0  0.01227  0.43129  0.67694  1.0000
  H   H350      1.0  0.01494  0.35655  0.75426  1.0000
  H   H351      1.0  0.08401  0.47780  0.87806  1.0000
  C   C345      1.0  0.47345  0.38364  0.94064  1.0000
  H   H352      1.0  0.38676  0.43637  0.90097  1.0000
  Fe  Fe59      1.0  0.31059  0.46896  0.94240  1.0000
  Fe  Fe60      1.0  0.42646  0.38631  0.94217  1.0000
  C   C346      1.0  0.00136  0.38152  0.70329  1.0000
  C   C347      1.0  0.43343  0.29907  0.94227  1.0000
  C   C348      1.0  0.43132  0.28091  0.94631  1.0000
  H   H353      1.0  0.42144  0.31003  0.94452  1.0000
  H   H354      1.0  0.41769  0.27792  0.95168  1.0000
  H   H355      1.0  0.46479  0.37465  0.94969  1.0000
  C   C349      1.0  0.47427  0.30829  0.97560  1.0000
  H   H356      1.0  0.01801  0.40476  0.67049  1.0000
  C   C350      1.0  0.34010  0.44343  0.91376  1.0000
  H   H357      1.0  0.04788  0.39632  0.69220  1.0000
  H   H358      1.0  0.33306  0.38562  0.93873  1.0000
  H   H359      1.0  0.02609  0.37570  0.74431  1.0000
  C   C351      1.0  0.05608  0.38260  0.69532  1.0000
  S   S120      1.0  0.05967  0.39082  0.72680  1.0000
  S   S121      1.0  0.09359  0.46094  0.67134  1.0000
  H   H360      1.0  0.02780  0.34215  0.69078  1.0000
  H   H361      1.0  0.05989  0.48322  0.87788  1.0000
  H   H362      1.0  0.03497  0.42644  0.77770  1.0000
  C   C352      1.0  0.08384  0.47935  0.75728  1.0000
  H   H363      1.0  0.00114  0.38995  0.72751  1.0000
  S   S122      1.0  0.00372  0.46469  0.68651  1.0000
  H   H364      1.0  0.08457  0.33304  0.70727  1.0000
  H   H365      1.0  0.24356  0.48137  0.97116  1.0000
  C   C353      1.0  0.47687  0.41294  0.92069  1.0000
  C   C354      1.0  0.31439  0.40969  0.92734  1.0000
  H   H366      1.0  0.31481  0.38505  0.97088  1.0000
  C   C355      1.0  0.06904  0.35233  0.68824  1.0000
  C   C356      1.0  0.00880  0.36807  0.69287  1.0000
  C   C357      1.0  0.37006  0.46229  0.93099  1.0000
  C   C358      1.0  0.07658  0.34684  0.70386  1.0000
  H   H367      1.0  0.23064  0.42914  0.97908  1.0000
  C   C359      1.0  0.00447  0.47371  0.82872  1.0000
  C   C360      1.0  0.05980  0.43803  0.78633  1.0000
  S   S123      1.0  0.32485  0.46483  0.91390  1.0000
  C   C361      1.0  0.22774  0.44381  0.97407  1.0000
  C   C362      1.0  0.29303  0.43788  0.91596  1.0000
  H   H368      1.0  0.20388  0.44419  0.96448  1.0000
  H   H369      1.0  0.39748  0.45585  0.89413  1.0000
  H   H370      1.0  0.00457  0.36967  0.68013  1.0000
  C   C363      1.0  0.02906  0.43235  0.79018  1.0000
  C   C364      1.0  0.05371  0.43706  0.82356  1.0000
  H   H371      1.0  0.48021  0.29151  0.92697  1.0000
  C   C365      1.0  0.38172  0.44954  0.95878  1.0000
  C   C366      1.0  0.07373  0.35895  0.71528  1.0000
  H   H372      1.0  0.04425  0.48656  0.82590  1.0000
  H   H373      1.0  0.35790  0.47162  0.95651  1.0000
  H   H374      1.0  0.28591  0.40888  0.97700  1.0000
  C   C367      1.0  0.06357  0.37683  0.71109  1.0000
  C   C368      1.0  0.44438  0.30046  0.98412  1.0000
  C   C369      1.0  0.46546  0.40131  0.93222  1.0000
  C   C370      1.0  0.21262  0.45233  0.96578  1.0000
  C   C371      1.0  0.44687  0.26664  0.94353  1.0000
  C   C372      1.0  0.32040  0.39587  0.94164  1.0000
  C   C373      1.0  0.39663  0.43791  0.93118  1.0000
  H   H375      1.0  0.37268  0.45904  0.89787  1.0000
  C   C374      1.0  0.46444  0.27061  0.93662  1.0000
  C   C375      1.0  0.02168  0.35258  0.69891  1.0000
  C   C376      1.0  0.28857  0.42265  0.94845  1.0000
  H   H376      1.0  0.06754  0.47024  0.89865  1.0000
  C   C377      1.0  0.20876  0.47127  0.95911  1.0000
  H   H377      1.0  0.02024  0.42341  0.80034  1.0000
  H   H378      1.0  0.28129  0.43524  0.91211  1.0000
  H   H379      1.0  0.02009  0.44605  0.78634  1.0000
  H   H380      1.0  0.05085  0.43723  0.83805  1.0000
  H   H381      1.0  0.35976  0.47195  0.92392  1.0000
  H   H382      1.0  0.47078  0.42659  0.91412  1.0000
  C   C378      1.0  0.36882  0.46213  0.94942  1.0000
  S   S124      1.0  0.31086  0.44523  0.96649  1.0000
  S   S125      1.0  0.45467  0.32515  0.93054  1.0000
  S   S126      1.0  0.25840  0.44296  0.98564  1.0000
  H   H383      1.0  0.02391  0.42782  0.68324  1.0000
  H   H384      1.0  0.32236  0.40972  0.91341  1.0000
  S   S127      1.0  0.42588  0.37442  0.91921  1.0000
  C   C379      1.0  0.23922  0.45416  0.97564  1.0000
  C   C380      1.0  0.04054  0.43368  0.81625  1.0000
  H   H385      1.0  0.27609  0.43307  0.95123  1.0000
  C   C381      1.0  0.31020  0.39558  0.95964  1.0000
  H   H386      1.0  0.02743  0.43143  0.82527  1.0000
  N   N33       1.0  0.29895  0.42313  0.93094  1.0000
  N   N34       1.0  0.38379  0.45015  0.92217  1.0000
  H   H387      1.0  0.28870  0.45125  0.92024  1.0000
  H   H388      1.0  0.48864  0.30581  0.96835  1.0000
  C   C382      1.0  0.09872  0.41137  0.66765  1.0000
  H   H389      1.0  0.03100  0.47130  0.81001  1.0000
  C   C383      1.0  0.03012  0.48494  0.83103  1.0000
  C   C384      1.0  0.09665  0.38312  0.66187  1.0000
  H   H390      1.0  0.09835  0.47617  0.75064  1.0000
  C   C385      1.0  0.47784  0.35875  0.90287  1.0000
  H   H391      1.0  0.48974  0.33561  0.97180  1.0000
  S   S128      1.0  0.18934  0.48126  0.94923  1.0000
  N   N35       1.0  0.49637  0.34698  0.90288  1.0000
  C   C386      1.0  0.23521  0.47319  0.96931  1.0000
  C   C387      1.0  0.08934  0.48663  0.69121  1.0000
  H   H392      1.0  0.10245  0.41875  0.67568  1.0000
  H   H393      1.0  0.09905  0.36830  0.66558  1.0000
  Fe  Fe61      1.0  0.28101  0.45852  0.97544  1.0000
  H   H394      1.0  0.03923  0.35322  0.74274  1.0000
  H   H395      1.0  0.43538  0.29224  0.98339  1.0000
  Fe  Fe62      1.0  0.20631  0.58039  0.07276  1.0000
  S   S129      1.0  0.19204  0.57536  0.10253  1.0000
  S   S130      1.0  0.22618  0.59885  0.05780  1.0000
  Fe  Fe63      1.0  0.19099  0.55220  0.06422  1.0000
  S   S131      1.0  0.17528  0.54462  0.09333  1.0000
  Fe  Fe64      1.0  0.16753  0.57483  0.09242  1.0000
  S   S132      1.0  0.13987  0.59043  0.10585  1.0000
  Fe  Fe65      1.0  0.20077  0.54576  0.10121  1.0000
  S   S133      1.0  0.21071  0.52408  0.12420  1.0000
  S   S134      1.0  0.18114  0.58248  0.06235  1.0000
  S   S135      1.0  0.21719  0.55073  0.07239  1.0000
  S   S136      1.0  0.30999  0.51241  0.08370  1.0000
  Fe  Fe66      1.0  0.33481  0.50261  0.09639  1.0000
  S   S137      1.0  0.33787  0.51394  0.11877  1.0000
  Fe  Fe67      1.0  0.30479  0.61774  0.08567  1.0000
  S   S138      1.0  0.32676  0.60003  0.06845  1.0000
  S   S139      1.0  0.27915  0.60816  0.10267  1.0000
  Fe  Fe68      1.0  0.32691  0.64733  0.07604  1.0000
  S   S140      1.0  0.35089  0.63198  0.05828  1.0000
  S   S141      1.0  0.32538  0.67611  0.07773  1.0000
  Fe  Fe69      1.0  0.32915  0.62625  0.04787  1.0000
  S   S142      1.0  0.33131  0.63130  0.01756  1.0000
  Fe  Fe70      1.0  0.34626  0.60741  0.08053  1.0000
  S   S143      1.0  0.36889  0.58581  0.09129  1.0000
  S   S144      1.0  0.30530  0.64343  0.06398  1.0000
  S   S145      1.0  0.32414  0.62321  0.09954  1.0000
  C   C388      1.0  0.26926  0.55870  0.07666  1.0000
  H   H396      1.0  0.23493  0.61604  0.01798  1.0000
  H   H397      1.0  0.99892  0.66257  0.27136  1.0000
  H   H398      1.0  0.33442  0.58564  0.00008  1.0000
  H   H399      1.0  0.30468  0.54624  0.11353  1.0000
  C   C389      1.0  0.46202  0.68503  0.09440  1.0000
  H   H400      1.0  0.30618  0.57209  0.98913  1.0000
  Fe  Fe71      1.0  0.07047  0.63905  0.30249  1.0000
  S   S146      1.0  0.07499  0.65255  0.27250  1.0000
  H   H401      1.0  0.29855  0.66503  0.02690  1.0000
  C   C390      1.0  0.26329  0.49330  0.05633  1.0000
  H   H402      1.0  0.31960  0.56116  0.07249  1.0000
  C   C391      1.0  0.39354  0.65770  0.02564  1.0000
  C   C392      1.0  0.27529  0.55911  0.09199  1.0000
  H   H403      1.0  0.23706  0.50916  0.06834  1.0000
  H   H404      1.0  0.45232  0.67489  0.03978  1.0000
  S   S147      1.0  0.08047  0.57617  0.21697  1.0000
  C   C393      1.0  0.32946  0.68893  0.12272  1.0000
  Fe  Fe72      1.0  0.06258  0.56059  0.24047  1.0000
  S   S148      1.0  0.07152  0.55083  0.26747  1.0000
  Fe  Fe73      1.0  0.07133  0.56340  0.19917  1.0000
  S   S149      1.0  0.09202  0.54910  0.17755  1.0000
  N   N36       1.0  0.02103  0.55330  0.31272  1.0000
  S   S150      1.0  0.05535  0.54584  0.22309  1.0000
  S   S151      1.0  0.09412  0.62678  0.31687  1.0000
  S   S152      1.0  0.39548  0.69335  0.09110  1.0000
  H   H405      1.0  0.05347  0.60956  0.25074  1.0000
  H   H406      1.0  0.40539  0.51062  0.06546  1.0000
  H   H407      1.0  0.28484  0.66863  0.12897  1.0000
  C   C394      1.0  0.16638  0.54563  0.14945  1.0000
  C   C395      1.0  0.29926  0.56048  0.10658  1.0000
  H   H408      1.0  0.46535  0.69268  0.03132  1.0000
  C   C396      1.0  0.22168  0.62318  0.01367  1.0000
  C   C397      1.0  0.04845  0.50273  0.30601  1.0000
  C   C398      1.0  0.18516  0.49590  0.03081  1.0000
  N   N37       1.0  0.29054  0.67423  0.00109  1.0000
  C   C399      1.0  0.21699  0.59274  0.01588  1.0000
  C   C400      1.0  0.15489  0.57778  0.15167  1.0000
  H   H409      1.0  0.27718  0.55877  0.04768  1.0000
  H   H410      1.0  0.37745  0.50486  0.12226  1.0000
  C   C401      1.0  0.05664  0.51290  0.31258  1.0000
  N   N38       1.0  0.21448  0.61086  0.00748  1.0000
  H   H411      1.0  0.31593  0.49497  0.98932  1.0000
  S   S153      1.0  0.46757  0.72558  0.04240  1.0000
  H   H412      1.0  0.15059  0.50773  0.17476  1.0000
  H   H413      1.0  0.00012  0.59352  0.18717  1.0000
  C   C402      1.0  0.34916  0.73263  0.00844  1.0000
  C   C403      1.0  0.00938  0.64373  0.25311  1.0000
  C   C404      1.0  0.13906  0.53511  0.17931  1.0000
  H   H414      1.0  0.99791  0.55023  0.30503  1.0000
  H   H415      1.0  0.19169  0.57909  0.99441  1.0000
  C   C405      1.0  0.31437  0.62297  0.01324  1.0000
  C   C406      1.0  0.06418  0.52736  0.30053  1.0000
  C   C407      1.0  0.18450  0.54417  0.02443  1.0000
  S   S154      1.0  0.03706  0.58277  0.23980  1.0000
  C   C408      1.0  0.39189  0.67239  0.03355  1.0000
  H   H416      1.0  0.40696  0.64857  0.02272  1.0000
  C   C409      1.0  0.06314  0.53194  0.28199  1.0000
  C   C410      1.0  0.05484  0.52186  0.27545  1.0000
  C   C411      1.0  0.04762  0.50719  0.28743  1.0000
  H   H417      1.0  0.05402  0.52529  0.26117  1.0000
  H   H418      1.0  0.29827  0.66149  0.10800  1.0000
  H   H419      1.0  0.35781  0.49384  0.02812  1.0000
  H   H420      1.0  0.31232  0.52198  0.00191  1.0000
  H   H421      1.0  0.35712  0.64686  0.13269  1.0000
  C   C412      1.0  0.29791  0.65993  0.12280  1.0000
  S   S155      1.0  0.27121  0.60104  0.00059  1.0000
  C   C413      1.0  0.01277  0.54363  0.30435  1.0000
  C   C414      1.0  0.39188  0.50965  0.09398  1.0000
  H   H422      1.0  0.32956  0.63782  0.13050  1.0000
  N   N39       1.0  0.37862  0.65523  0.02101  1.0000
  S   S156      1.0  0.19711  0.53646  0.04185  1.0000
  C   C415      1.0  0.32542  0.49476  0.99734  1.0000
  C   C416      1.0  0.32929  0.65221  0.12861  1.0000
  S   S157      1.0  0.42344  0.73071  0.08341  1.0000
  N   N40       1.0  0.16765  0.50006  0.00808  1.0000
  N   N41       1.0  0.15370  0.55852  0.15811  1.0000
  C   C417      1.0  0.06719  0.64525  0.25690  1.0000
  C   C418      1.0  0.06166  0.62856  0.26119  1.0000
  C   C419      1.0  0.05738  0.62257  0.24752  1.0000
  C   C420      1.0  0.05816  0.63353  0.22974  1.0000
  C   C421      1.0  0.06309  0.65038  0.22576  1.0000
  C   C422      1.0  0.06781  0.65608  0.23918  1.0000
  H   H423      1.0  0.06131  0.62001  0.27478  1.0000
  H   H424      1.0  0.06357  0.65896  0.21212  1.0000
  H   H425      1.0  0.07208  0.66895  0.23575  1.0000
  C   C423      1.0  0.34574  0.68073  0.07968  1.0000
  C   C424      1.0  0.36055  0.66654  0.08416  1.0000
  H   H426      1.0  0.28772  0.56727  0.11644  1.0000
  C   C425      1.0  0.37684  0.68872  0.08553  1.0000
  C   C426      1.0  0.36236  0.70292  0.08029  1.0000
  C   C427      1.0  0.34675  0.69891  0.07757  1.0000
  H   H427      1.0  0.27297  0.50978  0.08573  1.0000
  S   S158      1.0  0.05238  0.62716  0.21227  1.0000
  H   H428      1.0  0.36291  0.71698  0.07891  1.0000
  H   H429      1.0  0.33534  0.70993  0.07400  1.0000
  C   C428      1.0  0.34671  0.53376  0.11077  1.0000
  C   C429      1.0  0.35173  0.54067  0.12314  1.0000
  C   C430      1.0  0.35916  0.55633  0.11698  1.0000
  C   C431      1.0  0.36114  0.56536  0.09852  1.0000
  C   C432      1.0  0.35617  0.55842  0.08610  1.0000
  C   C433      1.0  0.34916  0.54246  0.09219  1.0000
  H   H430      1.0  0.34984  0.53394  0.13752  1.0000
  H   H431      1.0  0.36287  0.56176  0.12660  1.0000
  H   H432      1.0  0.35788  0.56531  0.07177  1.0000
  H   H433      1.0  0.34552  0.53699  0.08257  1.0000
  H   H434      1.0  0.35722  0.67981  0.12733  1.0000
  C   C434      1.0  0.24684  0.52124  0.03987  1.0000
  H   H435      1.0  0.16512  0.58054  0.15765  1.0000
  H   H436      1.0  0.27376  0.64775  0.04159  1.0000
  H   H437      1.0  0.25225  0.64664  0.02340  1.0000
  C   C435      1.0  0.27486  0.65527  0.02744  1.0000
  H   H438      1.0  0.21160  0.62783  0.02574  1.0000
  C   C436      1.0  0.12571  0.57894  0.12505  1.0000
  C   C437      1.0  0.11211  0.58903  0.13701  1.0000
  C   C438      1.0  0.10137  0.58013  0.15301  1.0000
  C   C439      1.0  0.10388  0.56109  0.15688  1.0000
  C   C440      1.0  0.11708  0.55108  0.14462  1.0000
  C   C441      1.0  0.12813  0.55992  0.12890  1.0000
  H   H439      1.0  0.11010  0.60376  0.13405  1.0000
  H   H440      1.0  0.09121  0.58797  0.16234  1.0000
  H   H441      1.0  0.11904  0.53635  0.14751  1.0000
  H   H442      1.0  0.13839  0.55203  0.11971  1.0000
  C   C442      1.0  0.24066  0.60158  0.07044  1.0000
  C   C443      1.0  0.25635  0.60875  0.06107  1.0000
  C   C444      1.0  0.26835  0.61069  0.07084  1.0000
  C   C445      1.0  0.26440  0.60590  0.09006  1.0000
  C   C446      1.0  0.24861  0.59893  0.09943  1.0000
  C   C447      1.0  0.23686  0.59659  0.08963  1.0000
  H   H443      1.0  0.25929  0.61261  0.04622  1.0000
  H   H444      1.0  0.28060  0.61592  0.06353  1.0000
  H   H445      1.0  0.24549  0.59526  0.11430  1.0000
  H   H446      1.0  0.22473  0.59118  0.09696  1.0000
  C   C448      1.0  0.18185  0.54222  0.99449  1.0000
  H   H447      1.0  0.35987  0.65248  0.08578  1.0000
  H   H448      1.0  0.32967  0.70333  0.11966  1.0000
  C   C449      1.0  0.00618  0.61223  0.30628  1.0000
  C   C450      1.0  0.24561  0.51635  0.10254  1.0000
  C   C451      1.0  0.34495  0.67571  0.12700  1.0000
  C   C452      1.0  0.32339  0.51017  0.00443  1.0000
  H   H449      1.0  0.24340  0.53075  0.09634  1.0000
  C   C453      1.0  0.26468  0.66395  0.99886  1.0000
  H   H450      1.0  0.38718  0.65951  0.09134  1.0000
  H   H451      1.0  0.18710  0.50017  0.04228  1.0000
  C   C454      1.0  0.28731  0.60991  0.00576  1.0000
  C   C455      1.0  0.37599  0.67054  0.08731  1.0000
  C   C456      1.0  0.26246  0.50452  0.09676  1.0000
  H   H452      1.0  0.17712  0.54959  0.13776  1.0000
  C   C457      1.0  0.29373  0.60201  0.02195  1.0000
  C   C458      1.0  0.20416  0.61774  0.99430  1.0000
  H   H453      1.0  0.13005  0.56364  0.17978  1.0000
  S   S159      1.0  0.04647  0.58621  0.19499  1.0000
  H   H454      1.0  0.10804  0.56014  0.29819  1.0000
  H   H455      1.0  0.00458  0.58221  0.16877  1.0000
  H   H456      1.0  0.02146  0.64939  0.24588  1.0000
  H   H457      1.0  0.36855  0.64077  0.00723  1.0000
  C   C459      1.0  0.03166  0.56536  0.30188  1.0000
  C   C460      1.0  0.30706  0.60869  0.02583  1.0000
  C   C461      1.0  0.48062  0.73288  0.08663  1.0000
  H   H458      1.0  0.39200  0.52369  0.09355  1.0000
  H   H459      1.0  0.28823  0.59085  0.03154  1.0000
  C   C462      1.0  0.47891  0.68281  0.08177  1.0000
  C   C463      1.0  0.33466  0.50961  0.01605  1.0000
  H   H460      1.0  0.25493  0.55850  0.07788  1.0000
  C   C464      1.0  0.44703  0.68256  0.07187  1.0000
  H   H461      1.0  0.25569  0.66325  0.99057  1.0000
  N   N42       1.0  0.27717  0.49194  0.04096  1.0000
  N   N43       1.0  0.10178  0.58135  0.27522  1.0000
  C   C465      1.0  0.10514  0.59481  0.28130  1.0000
  C   C466      1.0  0.09999  0.58427  0.25748  1.0000
  C   C467      1.0  0.10738  0.61150  0.26936  1.0000
  C   C468      1.0  0.10211  0.60081  0.24517  1.0000
  C   C469      1.0  0.10595  0.61445  0.25116  1.0000
  C   C470      1.0  0.09903  0.56414  0.28811  1.0000
  H   H462      1.0  0.10596  0.59276  0.29551  1.0000
  H   H463      1.0  0.09673  0.57385  0.25278  1.0000
  H   H464      1.0  0.10960  0.62234  0.27431  1.0000
  H   H465      1.0  0.10017  0.60328  0.23126  1.0000
  H   H466      1.0  0.10697  0.62761  0.24197  1.0000
  H   H467      1.0  0.08437  0.56569  0.29574  1.0000
  H   H468      1.0  0.10242  0.55273  0.28084  1.0000
  H   H469      1.0  0.04123  0.49937  0.28233  1.0000
  N   N44       1.0  0.31405  0.66527  0.12465  1.0000
  C   C471      1.0  0.31409  0.68344  0.12145  1.0000
  H   H470      1.0  0.14121  0.58703  0.15537  1.0000
  H   H471      1.0  0.49248  0.67954  0.05430  1.0000
  C   C472      1.0  0.26085  0.51952  0.02417  1.0000
  C   C473      1.0  0.38095  0.63991  0.01239  1.0000
  H   H472      1.0  0.31030  0.56836  0.10278  1.0000
  H   H473      1.0  0.26000  0.52954  0.01139  1.0000
  H   H474      1.0  0.12785  0.53130  0.19059  1.0000
  C   C474      1.0  0.39931  0.50234  0.07824  1.0000
  Fe  Fe74      1.0  0.05423  0.59732  0.21511  1.0000
  H   H475      1.0  0.01968  0.54892  0.19631  1.0000
  H   H476      1.0  0.07047  0.53520  0.30567  1.0000
  H   H477      1.0  0.99828  0.60695  0.16439  1.0000
  H   H478      1.0  0.15913  0.58127  0.13640  1.0000
  H   H479      1.0  0.34970  0.66461  0.02143  1.0000
  C   C475      1.0  0.34491  0.65722  0.12994  1.0000
  C   C476      1.0  0.14035  0.55344  0.17307  1.0000
  H   H480      1.0  0.01137  0.61441  0.29156  1.0000
  C   C477      1.0  0.15168  0.52193  0.17030  1.0000
  S   S160      1.0  0.41754  0.72098  0.04670  1.0000
  H   H481      1.0  0.26554  0.55881  0.10515  1.0000
  C   C478      1.0  0.30797  0.63083  0.99703  1.0000
  C   C479      1.0  0.37473  0.68426  0.03717  1.0000
  H   H482      1.0  0.43269  0.68662  0.09916  1.0000
  H   H483      1.0  0.14448  0.50050  0.99794  1.0000
  C   C480      1.0  0.27878  0.67363  0.99095  1.0000
  H   H484      1.0  0.23507  0.53271  0.03945  1.0000
  H   H485      1.0  0.16010  0.51618  0.02846  1.0000
  Fe  Fe75      1.0  0.40239  0.72056  0.07597  1.0000
  H   H486      1.0  0.31189  0.60253  0.03839  1.0000
  C   C481      1.0  0.15657  0.56000  0.01314  1.0000
  H   H487      1.0  0.34542  0.72102  0.03751  1.0000
  S   S161      1.0  0.00080  0.56979  0.22515  1.0000
  C   C482      1.0  0.01144  0.62136  0.31666  1.0000
  H   H488      1.0  0.16093  0.56065  0.03939  1.0000
  C   C483      1.0  0.29996  0.55970  0.05825  1.0000
  C   C484      1.0  0.16687  0.55563  0.02680  1.0000
  N   N45       1.0  0.29309  0.56034  0.09033  1.0000
  H   H489      1.0  0.17547  0.51709  0.14820  1.0000
  C   C485      1.0  0.36165  0.66668  0.02479  1.0000
  H   H490      1.0  0.30993  0.68877  0.00231  1.0000
  H   H491      1.0  0.29760  0.64548  0.12979  1.0000
  C   C486      1.0  0.47987  0.72591  0.05821  1.0000
  H   H492      1.0  0.46134  0.68719  0.10786  1.0000
  H   H493      1.0  0.00701  0.53594  0.17753  1.0000
  H   H494      1.0  0.47710  0.66892  0.03599  1.0000
  C   C487      1.0  0.23181  0.50956  0.11667  1.0000
  C   C488      1.0  0.20903  0.58100  0.01119  1.0000
  H   H495      1.0  0.20223  0.63207  0.98747  1.0000
  S   S162      1.0  0.33898  0.71760  0.00337  1.0000
  C   C489      1.0  0.30543  0.56048  0.07377  1.0000
  C   C490      1.0  0.28170  0.55898  0.05970  1.0000
  H   H496      1.0  0.30982  0.55966  0.04516  1.0000
  C   C491      1.0  0.47945  0.68061  0.06427  1.0000
  C   C492      1.0  0.35196  0.73036  0.02615  1.0000
  C   C493      1.0  0.19209  0.53778  0.00811  1.0000
  Fe  Fe76      1.0  0.03119  0.56968  0.22014  1.0000
  H   H497      1.0  0.14271  0.56846  0.01523  1.0000
  H   H498      1.0  0.04756  0.58453  0.30114  1.0000
  H   H499      1.0  0.03432  0.56764  0.28702  1.0000
  C   C494      1.0  0.38365  0.49893  0.11021  1.0000
  S   S163      1.0  0.35551  0.50159  0.06967  1.0000
  H   H500      1.0  0.37328  0.69574  0.04323  1.0000
  H   H501      1.0  0.39293  0.63998  0.00042  1.0000
  C   C495      1.0  0.44597  0.68476  0.08951  1.0000
  N   N46       1.0  0.46366  0.68046  0.05953  1.0000
  C   C496      1.0  0.00656  0.62875  0.24837  1.0000
  S   S164      1.0  0.32850  0.52596  0.02966  1.0000
  H   H502      1.0  0.28663  0.50334  0.01259  1.0000
  H   H503      1.0  0.22441  0.63520  0.00257  1.0000
  H   H504      1.0  0.34590  0.69014  0.03623  1.0000
  H   H505      1.0  0.22507  0.58732  0.02641  1.0000
  C   C497      1.0  0.35943  0.68123  0.03309  1.0000
  C   C498      1.0  0.00492  0.54996  0.19887  1.0000
  H   H506      1.0  0.41343  0.73296  0.99145  1.0000
  S   S165      1.0  0.05739  0.61498  0.31411  1.0000
  H   H507      1.0  0.30243  0.69378  0.11731  1.0000
  C   C499      1.0  0.16392  0.55307  0.99704  1.0000
  Fe  Fe77      1.0  0.33064  0.50835  0.05752  1.0000
  C   C500      1.0  0.16552  0.52718  0.15534  1.0000
  H   H508      1.0  0.40384  0.67462  0.03671  1.0000
  C   C501      1.0  0.28879  0.66514  0.01908  1.0000
  C   C502      1.0  0.46458  0.67916  0.04074  1.0000
  H   H509      1.0  0.21095  0.56671  0.01802  1.0000
  H   H510      1.0  0.38335  0.62678  0.02251  1.0000
  H   H511      1.0  0.02036  0.63087  0.30985  1.0000
  C   C503      1.0  0.26277  0.65466  0.01722  1.0000
  H   H512      1.0  0.45507  0.65674  0.99679  1.0000
  C   C504      1.0  0.27596  0.50465  0.02494  1.0000
  H   H513      1.0  0.49146  0.68332  0.08525  1.0000
  Fe  Fe78      1.0  0.43710  0.73335  0.05352  1.0000
  H   H514      1.0  0.43439  0.68276  0.06812  1.0000
  H   H515      1.0  0.32690  0.55846  0.99682  1.0000
  C   C505      1.0  0.29409  0.62466  0.99359  1.0000
  H   H516      1.0  0.01414  0.52903  0.31157  1.0000
  H   H517      1.0  0.01668  0.62290  0.23746  1.0000
  C   C506      1.0  0.19827  0.58794  0.99795  1.0000
  C   C507      1.0  0.34895  0.49428  0.01924  1.0000
  H   H518      1.0  0.20573  0.52890  0.00620  1.0000
  C   C508      1.0  0.23482  0.49094  0.12490  1.0000
  C   C509      1.0  0.24798  0.50803  0.05607  1.0000
  C   C510      1.0  0.16987  0.50492  0.02293  1.0000
  C   C511      1.0  0.19588  0.60640  0.98939  1.0000
  H   H519      1.0  0.31347  0.64195  0.98725  1.0000
  C   C512      1.0  0.03918  0.57498  0.30979  1.0000
  H   H520      1.0  0.48942  0.73486  0.13703  1.0000
  H   H521      1.0  0.01974  0.54385  0.28968  1.0000
  C   C513      1.0  0.15212  0.51009  0.99931  1.0000
  C   C514      1.0  0.30597  0.68348  0.99228  1.0000
  H   H522      1.0  0.14217  0.52016  0.00713  1.0000
  C   C515      1.0  0.47088  0.73367  0.07352  1.0000
  C   C516      1.0  0.99772  0.54267  0.18822  1.0000
  H   H523      1.0  0.31821  0.67374  0.98622  1.0000
  H   H524      1.0  0.05300  0.66065  0.49270  1.0000
  S   S166      1.0  0.01223  0.62887  0.34893  1.0000
  H   H525      1.0  0.10346  0.66936  0.42357  1.0000
  Fe  Fe79      1.0  0.07557  0.64076  0.33947  1.0000
  H   H526      1.0  0.03716  0.67427  0.47820  1.0000
  C   C517      1.0  0.07770  0.50977  0.39838  1.0000
  C   C518      1.0  0.07657  0.56081  0.34704  1.0000
  C   C519      1.0  0.06280  0.53432  0.35524  1.0000
  H   H527      1.0  0.02096  0.55874  0.35466  1.0000
  H   H528      1.0  0.07712  0.71911  0.34553  1.0000
  Fe  Fe80      1.0  0.07180  0.70669  0.44734  1.0000
  Fe  Fe81      1.0  0.07923  0.60393  0.33054  1.0000
  H   H529      1.0  0.10701  0.64594  0.38595  1.0000
  Fe  Fe82      1.0  0.06540  0.68052  0.55772  1.0000
  S   S167      1.0  0.06173  0.71028  0.54451  1.0000
  S   S168      1.0  0.07173  0.65765  0.54283  1.0000
  Fe  Fe83      1.0  0.05858  0.68745  0.59586  1.0000
  S   S169      1.0  0.05366  0.71802  0.58609  1.0000
  S   S170      1.0  0.05960  0.67374  0.62533  1.0000
  Fe  Fe84      1.0  0.03755  0.71388  0.56799  1.0000
  C   C520      1.0  0.05758  0.49485  0.42525  1.0000
  Fe  Fe85      1.0  0.07826  0.71189  0.56338  1.0000
  C   C521      1.0  0.00855  0.65201  0.39036  1.0000
  S   S171      1.0  0.03985  0.68391  0.58003  1.0000
  S   S172      1.0  0.08449  0.68161  0.57443  1.0000
  S   S173      1.0  0.05828  0.69720  0.43083  1.0000
  H   H530      1.0  0.11078  0.49249  0.36436  1.0000
  S   S174      1.0  0.09184  0.57402  0.33178  1.0000
  S   S175      1.0  0.09548  0.68560  0.45704  1.0000
  C   C522      1.0  0.08954  0.67794  0.48093  1.0000
  C   C523      1.0  0.07744  0.68981  0.49184  1.0000
  C   C524      1.0  0.07173  0.68350  0.51078  1.0000
  C   C525      1.0  0.07849  0.66541  0.51900  1.0000
  C   C526      1.0  0.09057  0.65344  0.50810  1.0000
  C   C527      1.0  0.09620  0.65974  0.48907  1.0000
  H   H531      1.0  0.07261  0.70392  0.48571  1.0000
  H   H532      1.0  0.06177  0.69257  0.51888  1.0000
  H   H533      1.0  0.09577  0.63938  0.51439  1.0000
  H   H534      1.0  0.10557  0.65050  0.48066  1.0000
  C   C528      1.0  0.01417  0.71600  0.53384  1.0000
  H   H535      1.0  0.11099  0.63313  0.62903  1.0000
  C   C529      1.0  0.02513  0.66331  0.52463  1.0000
  H   H536      1.0  0.08591  0.68975  0.33513  1.0000
  C   C530      1.0  0.00341  0.69381  0.43531  1.0000
  H   H537      1.0  0.09531  0.52212  0.37390  1.0000
  C   C531      1.0  0.02412  0.65963  0.38303  1.0000
  C   C532      1.0  0.02625  0.67066  0.36540  1.0000
  H   H538      1.0  0.02882  0.71539  0.53105  1.0000
  H   H539      1.0  0.11686  0.64127  0.40576  1.0000
  C   C533      1.0  0.00220  0.72347  0.54850  1.0000
  S   S176      1.0  0.05311  0.65507  0.32390  1.0000
  C   C534      1.0  0.05106  0.64368  0.62046  1.0000
  C   C535      1.0  0.05811  0.65074  0.63120  1.0000
  C   C536      1.0  0.01725  0.55084  0.33145  1.0000
  S   S177      1.0  0.00902  0.69502  0.45538  1.0000
  H   H540      1.0  0.09204  0.64887  0.40768  1.0000
  H   H541      1.0  0.04661  0.65234  0.60831  1.0000
  H   H542      1.0  0.01765  0.67006  0.63759  1.0000
  C   C537      1.0  0.00656  0.70287  0.40220  1.0000
  C   C538      1.0  0.06522  0.56658  0.36283  1.0000
  H   H543      1.0  0.06624  0.57886  0.36602  1.0000
  H   H544      1.0  0.06435  0.66243  0.38988  1.0000
  H   H545      1.0  0.02354  0.70858  0.41680  1.0000
  H   H546      1.0  0.04416  0.56075  0.38714  1.0000
  S   S178      1.0  0.06264  0.61676  0.35432  1.0000
  H   H547      1.0  0.06172  0.52207  0.35206  1.0000
  C   C539      1.0  0.05281  0.55622  0.37488  1.0000
  H   H548      1.0  0.05421  0.69186  0.39973  1.0000
  C   C540      1.0  0.06131  0.69151  0.38577  1.0000
  S   S179      1.0  0.05397  0.59102  0.64702  1.0000
  C   C541      1.0  0.09163  0.50947  0.38235  1.0000
  H   H549      1.0  0.09708  0.58324  0.62923  1.0000
  N   N47       1.0  0.10736  0.66951  0.39511  1.0000
  S   S180      1.0  0.04499  0.71738  0.46556  1.0000
  C   C542      1.0  0.01491  0.67503  0.65048  1.0000
  C   C543      1.0  0.05158  0.54006  0.37114  1.0000
  H   H550      1.0  0.07065  0.52280  0.40218  1.0000
  C   C544      1.0  0.06654  0.67487  0.37999  1.0000
  C   C545      1.0  0.01234  0.70225  0.41804  1.0000
  C   C546      1.0  0.06204  0.62115  0.65226  1.0000
  C   C547      1.0  0.07865  0.69026  0.34917  1.0000
  C   C548      1.0  0.11089  0.69794  0.37395  1.0000
  C   C549      1.0  0.10580  0.65044  0.39880  1.0000
  H   H551      1.0  0.10070  0.64737  0.59984  1.0000
  C   C550      1.0  0.10027  0.49288  0.37700  1.0000
  C   C551      1.0  0.10571  0.67725  0.40954  1.0000
  N   N48       1.0  0.09409  0.62323  0.59777  1.0000
  C   C552      1.0  0.10045  0.63310  0.60592  1.0000
  C   C553      1.0  0.09285  0.60553  0.60597  1.0000
  C   C554      1.0  0.10629  0.62512  0.62246  1.0000
  C   C555      1.0  0.09859  0.59711  0.62249  1.0000
  C   C556      1.0  0.10539  0.60697  0.63074  1.0000
  C   C557      1.0  0.08769  0.63208  0.58066  1.0000
  H   H552      1.0  0.04419  0.61990  0.61715  1.0000
  H   H553      1.0  0.08699  0.59794  0.60001  1.0000
  S   S181      1.0  0.07385  0.73349  0.42750  1.0000
  H   H554      1.0  0.11144  0.67344  0.36598  1.0000
  C   C558      1.0  0.01273  0.67391  0.35531  1.0000
  H   H555      1.0  0.08657  0.62201  0.57345  1.0000
  H   H556      1.0  0.07388  0.64132  0.58358  1.0000
  C   C559      1.0  0.00711  0.70962  0.52247  1.0000
  H   H557      1.0  0.11227  0.70606  0.36002  1.0000
  C   C560      1.0  0.10887  0.70604  0.38861  1.0000
  N   N49       1.0  0.02474  0.66532  0.50661  1.0000
  C   C561      1.0  0.02422  0.56052  0.33980  1.0000
  H   H558      1.0  0.03820  0.67679  0.35963  1.0000
  Fe  Fe86      1.0  0.05757  0.72483  0.41237  1.0000
  S   S182      1.0  0.01458  0.49961  0.36667  1.0000
  S   S183      1.0  0.03624  0.52719  0.38690  1.0000
  C   C562      1.0  0.06359  0.63947  0.64711  1.0000
  H   H559      1.0  0.03440  0.65712  0.39105  1.0000
  H   H560      1.0  0.06221  0.49851  0.43589  1.0000
  C   C563      1.0  0.11023  0.67951  0.37745  1.0000
  C   C564      1.0  0.04001  0.67131  0.49216  1.0000
  C   C565      1.0  0.06577  0.70739  0.37364  1.0000
  S   S184      1.0  0.06340  0.72738  0.38158  1.0000
  S   S185      1.0  0.08702  0.65271  0.35638  1.0000
  C   C566      1.0  0.01074  0.65760  0.53874  1.0000
  H   H561      1.0  0.03650  0.66636  0.52815  1.0000
  Fe  Fe87      1.0  0.03617  0.50089  0.38032  1.0000
  H   H562      1.0  0.10941  0.60073  0.64381  1.0000
  S   S186      1.0  0.10035  0.72799  0.55039  1.0000
  C   C567      1.0  0.07551  0.67411  0.36175  1.0000
  Fe  Fe88      1.0  0.03162  0.71050  0.44688  1.0000
  C   C568      1.0  0.10658  0.69557  0.40649  1.0000
  C   C569      1.0  0.04957  0.62536  0.62555  1.0000
  H   H563      1.0  0.10872  0.72048  0.38613  1.0000
  H   H564      1.0  0.01629  0.70436  0.51084  1.0000
  C   C570      1.0  0.07545  0.54457  0.34330  1.0000
  H   H565      1.0  0.09747  0.64029  0.57090  1.0000
  H   H566      1.0  0.04216  0.68408  0.49413  1.0000
  C   C571      1.0  0.05510  0.61407  0.64142  1.0000
  C   C572      1.0  0.07379  0.70686  0.35511  1.0000
  H   H567      1.0  0.10515  0.70165  0.41800  1.0000
  H   H568      1.0  0.00667  0.64356  0.40411  1.0000
  H   H569      1.0  0.01093  0.65641  0.55298  1.0000
  N   N50       1.0  0.07247  0.49401  0.40873  1.0000
  H   H570      1.0  0.08411  0.54009  0.33103  1.0000
  S   S187      1.0  0.01075  0.73225  0.56230  1.0000
  H   H571      1.0  0.01333  0.70972  0.38893  1.0000
  H   H572      1.0  0.00988  0.66349  0.48784  1.0000
  H   H573      1.0  0.01436  0.68267  0.34171  1.0000
  C   C573      1.0  0.01040  0.66152  0.50213  1.0000
  H   H574      1.0  0.04064  0.58033  0.33521  1.0000
  H   H575      1.0  0.05717  0.50964  0.32691  1.0000
  C   C574      1.0  0.03530  0.57262  0.32888  1.0000
  H   H576      1.0  0.00866  0.54145  0.34003  1.0000
  Fe  Fe89      1.0  0.04190  0.62976  0.33673  1.0000
  H   H577      1.0  0.04517  0.50530  0.42181  1.0000
  H   H578      1.0  0.02247  0.68624  0.64703  1.0000
  C   C575      1.0  0.00485  0.61843  0.33574  1.0000
  N   N51       1.0  0.99755  0.66630  0.36255  1.0000
  H   H579      1.0  0.28043  0.68034  0.97654  1.0000
  Fe  Fe90      1.0  0.18131  0.51177  0.93984  1.0000
  S   S188      1.0  0.18420  0.52698  0.91032  1.0000
  S   S189      1.0  0.05835  0.52367  0.81120  1.0000
  Fe  Fe91      1.0  0.16194  0.54568  0.95520  1.0000
  S   S190      1.0  0.16227  0.56372  0.92710  1.0000
  C   C576      1.0  0.06409  0.53042  0.90406  1.0000
  Fe  Fe92      1.0  0.15460  0.54118  0.91950  1.0000
  S   S191      1.0  0.13253  0.54923  0.90250  1.0000
  Fe  Fe93      1.0  0.19156  0.54813  0.92034  1.0000
  S   S192      1.0  0.21523  0.56236  0.90684  1.0000
  S   S193      1.0  0.15122  0.52471  0.94847  1.0000
  S   S194      1.0  0.19167  0.53136  0.94872  1.0000
  H   H580      1.0  0.28834  0.63173  0.98175  1.0000
  S   S195      1.0  0.08628  0.57607  0.68319  1.0000
  H   H581      1.0  0.34570  0.70847  0.90524  1.0000
  H   H582      1.0  0.18769  0.53673  0.98236  1.0000
  Fe  Fe94      1.0  0.08791  0.54601  0.69346  1.0000
  Fe  Fe95      1.0  0.06107  0.57608  0.67418  1.0000
  C   C577      1.0  0.11026  0.55008  0.76334  1.0000
  H   H583      1.0  0.27258  0.55679  0.90729  1.0000
  C   C578      1.0  0.99869  0.54368  0.76906  1.0000
  H   H584      1.0  0.24122  0.51547  0.93522  1.0000
  H   H585      1.0  0.03547  0.67561  0.67311  1.0000
  C   C579      1.0  0.23790  0.53697  0.94936  1.0000
  Fe  Fe96      1.0  0.24259  0.62765  0.94455  1.0000
  S   S196      1.0  0.25973  0.60048  0.95442  1.0000
  S   S197      1.0  0.21395  0.62559  0.94476  1.0000
  Fe  Fe97      1.0  0.27253  0.64754  0.94173  1.0000
  S   S198      1.0  0.29248  0.62166  0.95046  1.0000
  S   S199      1.0  0.04164  0.58103  0.70062  1.0000
  Fe  Fe98      1.0  0.28295  0.61007  0.93235  1.0000
  S   S200      1.0  0.30389  0.58876  0.91846  1.0000
  H   H586      1.0  0.24525  0.55860  0.97289  1.0000
  S   S201      1.0  0.07184  0.57036  0.80786  1.0000
  S   S202      1.0  0.26513  0.63676  0.92093  1.0000
  S   S203      1.0  0.24843  0.64062  0.96437  1.0000
  H   H587      1.0  0.03245  0.54966  0.75599  1.0000
  Fe  Fe99      1.0  0.06705  0.57812  0.71055  1.0000
  H   H588      1.0  0.05534  0.49710  0.79325  1.0000
  C   C580      1.0  0.03143  0.66268  0.67579  1.0000
  S   S204      1.0  0.02882  0.50224  0.85797  1.0000
  C   C581      1.0  0.06394  0.57444  0.75718  1.0000
  C   C582      1.0  0.06898  0.57875  0.78517  1.0000
  H   H589      1.0  0.32744  0.58195  0.94857  1.0000
  Fe  Fe100     1.0  0.07430  0.54014  0.81795  1.0000
  H   H590      1.0  0.06093  0.56596  0.74998  1.0000
  C   C583      1.0  0.30237  0.67412  0.93821  1.0000
  S   S205      1.0  0.27887  0.67452  0.94056  1.0000
  H   H591      1.0  0.00040  0.55151  0.75499  1.0000
  H   H592      1.0  0.00496  0.57845  0.66668  1.0000
  H   H593      1.0  0.11239  0.52106  0.76997  1.0000
  H   H594      1.0  0.03706  0.53829  0.89761  1.0000
  H   H595      1.0  0.10768  0.57904  0.75268  1.0000
  C   C584      1.0  0.33226  0.58838  0.95663  1.0000
  C   C585      1.0  0.04730  0.50956  0.66190  1.0000
  N   N52       1.0  0.11424  0.53198  0.74125  1.0000
  C   C586      1.0  0.33628  0.59039  0.98529  1.0000
  Fe  Fe101     1.0  0.26802  0.61414  0.97174  1.0000
  C   C587      1.0  0.03242  0.53600  0.76534  1.0000
  N   N53       1.0  0.24271  0.55285  0.94866  1.0000
  H   H596      1.0  0.18690  0.55560  0.86152  1.0000
  S   S206      1.0  0.49007  0.70079  0.95374  1.0000
  H   H597      1.0  0.34093  0.60891  0.93304  1.0000
  C   C588      1.0  0.03298  0.52477  0.66464  1.0000
  H   H598      1.0  0.31275  0.64992  0.92690  1.0000
  C   C589      1.0  0.11236  0.53318  0.75902  1.0000
  H   H599      1.0  0.12521  0.51303  0.72346  1.0000
  Fe  Fe102     1.0  0.38938  0.72035  0.94608  1.0000
  S   S207      1.0  0.06452  0.54565  0.68183  1.0000
  S   S208      1.0  0.11503  0.52644  0.68781  1.0000
  S   S209      1.0  0.10192  0.52120  0.81162  1.0000
  H   H600      1.0  0.26331  0.52837  0.90792  1.0000
  H   H601      1.0  0.09456  0.49039  0.89884  1.0000
  C   C590      1.0  0.32129  0.56669  0.98458  1.0000
  C   C591      1.0  0.28814  0.53898  0.95902  1.0000
  C   C592      1.0  0.28802  0.55423  0.96522  1.0000
  C   C593      1.0  0.29527  0.56861  0.95293  1.0000
  C   C594      1.0  0.30173  0.56821  0.93429  1.0000
  C   C595      1.0  0.30349  0.55223  0.92838  1.0000
  C   C596      1.0  0.29684  0.53742  0.94089  1.0000
  S   S210      1.0  0.38904  0.71196  0.97611  1.0000
  H   H602      1.0  0.29471  0.58058  0.95772  1.0000
  H   H603      1.0  0.30869  0.55180  0.91398  1.0000
  H   H604      1.0  0.29705  0.52551  0.93612  1.0000
  C   C597      1.0  0.12870  0.53479  0.89032  1.0000
  C   C598      1.0  0.11612  0.54207  0.87864  1.0000
  C   C599      1.0  0.11236  0.53100  0.86901  1.0000
  C   C600      1.0  0.12105  0.51244  0.87111  1.0000
  C   C601      1.0  0.10982  0.56580  0.74940  1.0000
  C   C602      1.0  0.13754  0.51629  0.89226  1.0000
  H   H605      1.0  0.10918  0.55636  0.87705  1.0000
  H   H606      1.0  0.10260  0.53677  0.86013  1.0000
  C   C603      1.0  0.34764  0.73544  0.90583  1.0000
  H   H607      1.0  0.14722  0.51049  0.90123  1.0000
  C   C604      1.0  0.21460  0.58014  0.91723  1.0000
  C   C605      1.0  0.20017  0.58461  0.93195  1.0000
  C   C606      1.0  0.19980  0.59888  0.94002  1.0000
  C   C607      1.0  0.21421  0.60831  0.93389  1.0000
  C   C608      1.0  0.22881  0.60364  0.91937  1.0000
  C   C609      1.0  0.22878  0.58987  0.91079  1.0000
  H   H608      1.0  0.18921  0.57717  0.93712  1.0000
  H   H609      1.0  0.18839  0.60244  0.95116  1.0000
  H   H610      1.0  0.23995  0.61090  0.91450  1.0000
  H   H611      1.0  0.23993  0.58658  0.89934  1.0000
  H   H612      1.0  0.02361  0.51762  0.80008  1.0000
  H   H613      1.0  0.10184  0.51299  0.73656  1.0000
  C   C610      1.0  0.43990  0.69007  0.96215  1.0000
  H   H614      1.0  0.08526  0.50795  0.70569  1.0000
  H   H615      1.0  0.00871  0.64144  0.65962  1.0000
  C   C611      1.0  0.02609  0.49584  0.65511  1.0000
  S   S211      1.0  0.11573  0.49766  0.86036  1.0000
  C   C612      1.0  0.37407  0.71099  0.89948  1.0000
  H   H616      1.0  0.10846  0.55110  0.77747  1.0000
  C   C613      1.0  0.43982  0.67506  0.97698  1.0000
  N   N54       1.0  0.01381  0.53502  0.77657  1.0000
  C   C614      1.0  0.11367  0.54738  0.72752  1.0000
  C   C615      1.0  0.45538  0.69789  0.95514  1.0000
  C   C616      1.0  0.33977  0.67394  0.93466  1.0000
  H   H617      1.0  0.00493  0.50727  0.75755  1.0000
  H   H618      1.0  0.12932  0.58867  0.90164  1.0000
  Fe  Fe103     1.0  0.09531  0.50777  0.84153  1.0000
  H   H619      1.0  0.42816  0.69554  0.95579  1.0000
  C   C617      1.0  0.07019  0.60303  0.75776  1.0000
  H   H620      1.0  0.07236  0.61659  0.75083  1.0000
  C   C618      1.0  0.13366  0.50518  0.88276  1.0000
  C   C619      1.0  0.47048  0.67649  0.97856  1.0000
  H   H621      1.0  0.40959  0.70003  0.89847  1.0000
  S   S212      1.0  0.36327  0.67391  0.93143  1.0000
  C   C620      1.0  0.11571  0.51432  0.73700  1.0000
  N   N55       1.0  0.01205  0.51068  0.65814  1.0000
  Fe  Fe104     1.0  0.37049  0.68998  0.94763  1.0000
  H   H622      1.0  0.00435  0.53711  0.66469  1.0000
  N   N56       1.0  0.02126  0.66007  0.66510  1.0000
  H   H623      1.0  0.25953  0.57201  0.93357  1.0000
  C   C621      1.0  0.30718  0.68794  0.94322  1.0000
  C   C622      1.0  0.24526  0.52790  0.93476  1.0000
  S   S213      1.0  0.40022  0.69173  0.94134  1.0000
  C   C623      1.0  0.07118  0.59648  0.77628  1.0000
  S   S214      1.0  0.06767  0.59962  0.72445  1.0000
  Fe  Fe105     1.0  0.08553  0.50358  0.80703  1.0000
  C   C624      1.0  0.01239  0.55997  0.69101  1.0000
  C   C625      1.0  0.01943  0.49128  0.84675  1.0000
  N   N57       1.0  0.15413  0.58788  0.88122  1.0000
  C   C626      1.0  0.16176  0.57361  0.87239  1.0000
  C   C627      1.0  0.16522  0.59605  0.88598  1.0000
  C   C628      1.0  0.18096  0.56722  0.86806  1.0000
  C   C629      1.0  0.18448  0.59013  0.88170  1.0000
  C   C630      1.0  0.19236  0.57560  0.87271  1.0000
  C   C631      1.0  0.13397  0.59386  0.88662  1.0000
  H   H624      1.0  0.15299  0.56678  0.86901  1.0000
  H   H625      1.0  0.15919  0.60695  0.89352  1.0000
  H   H626      1.0  0.11476  0.54650  0.71351  1.0000
  H   H627      1.0  0.19327  0.59631  0.88589  1.0000
  H   H628      1.0  0.20727  0.57053  0.86985  1.0000
  H   H629      1.0  0.12969  0.60902  0.88337  1.0000
  H   H630      1.0  0.12671  0.58840  0.87941  1.0000
  C   C632      1.0  0.06686  0.59191  0.74810  1.0000
  C   C633      1.0  0.04389  0.49503  0.65699  1.0000
  H   H631      1.0  0.37953  0.69692  0.89793  1.0000
  C   C634      1.0  0.34435  0.60549  0.97675  1.0000
  C   C635      1.0  0.01167  0.52474  0.79414  1.0000
  Fe  Fe106     1.0  0.05559  0.50941  0.84081  1.0000
  C   C636      1.0  0.11136  0.56452  0.73139  1.0000
  C   C637      1.0  0.00004  0.49935  0.72846  1.0000
  C   C638      1.0  0.25770  0.53511  0.91945  1.0000
  H   H632      1.0  0.02656  0.56116  0.68648  1.0000
  S   S215      1.0  0.08169  0.48796  0.83635  1.0000
  H   H633      1.0  0.01847  0.61611  0.68455  1.0000
  C   C639      1.0  0.31632  0.66032  0.93128  1.0000
  C   C640      1.0  0.00012  0.56970  0.67965  1.0000
  C   C641      1.0  0.03247  0.63171  0.69328  1.0000
  S   S216      1.0  0.02199  0.53788  0.72231  1.0000
  H   H634      1.0  0.06633  0.61249  0.66453  1.0000
  H   H635      1.0  0.45551  0.70914  0.94330  1.0000
  C   C642      1.0  0.25531  0.55971  0.93394  1.0000
  C   C643      1.0  0.04962  0.52774  0.89818  1.0000
  H   H636      1.0  0.23182  0.57726  0.95894  1.0000
  H   H637      1.0  0.32948  0.69829  0.94575  1.0000
  H   H638      1.0  0.04255  0.53375  0.77399  1.0000
  C   C644      1.0  0.40584  0.71507  0.89330  1.0000
  N   N58       1.0  0.06772  0.49842  0.89268  1.0000
  H   H639      1.0  0.03197  0.49019  0.78108  1.0000
  H   H640      1.0  0.07404  0.60503  0.78364  1.0000
  H   H641      1.0  0.03555  0.53621  0.66827  1.0000
  C   C645      1.0  0.33498  0.66040  0.92924  1.0000
  S   S217      1.0  0.15009  0.55732  0.98090  1.0000
  Fe  Fe107     1.0  0.04679  0.55046  0.70912  1.0000
  S   S218      1.0  0.06876  0.52801  0.84819  1.0000
  H   H642      1.0  0.48226  0.67127  0.98496  1.0000
  H   H643      1.0  0.01459  0.49745  0.72828  1.0000
  H   H644      1.0  0.04039  0.50960  0.88790  1.0000
  C   C646      1.0  0.01652  0.64362  0.66825  1.0000
  C   C647      1.0  0.23503  0.56219  0.96408  1.0000
  C   C648      1.0  0.26282  0.55108  0.91903  1.0000
  H   H645      1.0  0.34573  0.65003  0.92331  1.0000
  H   H646      1.0  0.35182  0.62425  0.95120  1.0000
  C   C649      1.0  0.34603  0.61224  0.95787  1.0000
  C   C650      1.0  0.05161  0.51147  0.89268  1.0000
  S   S219      1.0  0.27534  0.52322  0.97336  1.0000
  H   H647      1.0  0.03719  0.52549  0.75678  1.0000
  H   H648      1.0  0.29645  0.69890  0.94815  1.0000
  C   C651      1.0  0.47066  0.69113  0.96331  1.0000
  C   C652      1.0  0.01535  0.52516  0.66263  1.0000
  H   H649      1.0  0.21698  0.49638  0.95610  1.0000
  C   C653      1.0  0.00635  0.54886  0.70794  1.0000
  C   C654      1.0  0.06517  0.56779  0.77564  1.0000
  C   C655      1.0  0.03723  0.64852  0.68999  1.0000
  H   H650      1.0  0.00538  0.49685  0.70026  1.0000
  C   C656      1.0  0.08020  0.51677  0.90458  1.0000
  C   C657      1.0  0.32585  0.68766  0.94180  1.0000
  H   H651      1.0  0.06338  0.55415  0.78240  1.0000
  H   H652      1.0  0.22832  0.53124  0.96124  1.0000
  S   S220      1.0  0.31874  0.48698  0.95542  1.0000
  S   S221      1.0  0.07065  0.54779  0.72169  1.0000
  Fe  Fe108     1.0  0.28844  0.49593  0.96664  1.0000
  Fe  Fe109     1.0  0.39780  0.68341  0.97174  1.0000
  S   S222      1.0  0.36895  0.67912  0.97781  1.0000
  N   N59       1.0  0.33050  0.58194  0.97521  1.0000
  C   C658      1.0  0.33999  0.60363  0.94770  1.0000
  H   H653      1.0  0.11033  0.57680  0.72060  1.0000
  C   C659      1.0  0.11005  0.50722  0.68424  1.0000
  C   C660      1.0  0.02201  0.62922  0.68236  1.0000
  H   H654      1.0  0.06291  0.54309  0.90806  1.0000
  S   S223      1.0  0.35954  0.71959  0.94941  1.0000
  Fe  Fe110     1.0  0.36021  0.70868  0.97932  1.0000
  H   H655      1.0  0.22191  0.55833  0.97249  1.0000
  C   C661      1.0  0.08177  0.50074  0.89886  1.0000
  H   H656      1.0  0.18767  0.61199  0.97897  1.0000
  C   C662      1.0  0.09402  0.50130  0.69475  1.0000
  C   C663      1.0  0.35487  0.71748  0.90355  1.0000
  H   H657      1.0  0.03709  0.62059  0.70413  1.0000
  H   H658      1.0  0.04559  0.65044  0.69826  1.0000
  H   H659      1.0  0.09166  0.51877  0.90889  1.0000
  C   C664      1.0  0.12146  0.49841  0.67028  1.0000
  H   H660      1.0  0.12121  0.50269  0.74748  1.0000
  H   H661      1.0  0.41100  0.71831  0.87817  1.0000
  H   H662      1.0  0.28163  0.55530  0.97933  1.0000
  S   S224      1.0  0.42068  0.66477  0.98493  1.0000
  H   H663      1.0  0.14044  0.49084  0.88450  1.0000
  S   S225      1.0  0.09532  0.49061  0.78215  1.0000
  H   H664      1.0  0.30221  0.69539  0.98122  1.0000
  H   H665      1.0  0.34874  0.61226  0.98485  1.0000
  C   C665      1.0  0.00122  0.48881  0.85349  1.0000
  H   H666      1.0  0.32339  0.55720  0.97537  1.0000
  N   N60       1.0  0.38575  0.72202  0.89792  1.0000
  C   C666      1.0  0.05964  0.49124  0.78124  1.0000
  C   C667      1.0  0.45511  0.66830  0.98526  1.0000
  H   H667      1.0  0.15745  0.51786  0.98543  1.0000
  H   H668      1.0  0.41308  0.72129  0.89983  1.0000
  H   H669      1.0  0.13383  0.50303  0.66210  1.0000
  H   H670      1.0  0.06101  0.50898  0.66367  1.0000
  H   H671      1.0  0.42058  0.73469  0.96708  1.0000
  C   C668      1.0  0.07840  0.48709  0.77287  1.0000
  C   C669      1.0  0.04645  0.48722  0.77441  1.0000
  H   H672      1.0  0.99988  0.68075  0.65474  1.0000
  H   H673      1.0  0.06913  0.64488  0.65542  1.0000
  Fe  Fe111     1.0  0.47535  0.81864  0.10992  1.0000
  C   C670      1.0  0.48392  0.95398  0.13835  1.0000
  S   S226      1.0  0.46504  0.79250  0.11867  1.0000
  Fe  Fe112     1.0  0.47900  0.85417  0.11751  1.0000
  C   C671      1.0  0.42283  0.86575  0.01467  1.0000
  S   S227      1.0  0.46870  0.87230  0.13863  1.0000
  H   H674      1.0  0.43533  0.90532  0.27563  1.0000
  C   C672      1.0  0.48202  0.88493  0.14365  1.0000
  C   C673      1.0  0.42253  0.91310  0.28337  1.0000
  C   C674      1.0  0.36818  0.79703  0.03401  1.0000
  S   S228      1.0  0.46022  0.84790  0.10310  1.0000
  H   H675      1.0  0.45245  0.94769  0.29902  1.0000
  H   H676      1.0  0.43940  0.86945  0.06478  1.0000
  C   C675      1.0  0.47727  0.91274  0.26795  1.0000
  S   S229      1.0  0.44557  0.81670  0.01639  1.0000
  H   H677      1.0  0.45657  0.74071  0.07506  1.0000
  H   H678      1.0  0.42094  0.92762  0.27582  1.0000
  S   S230      1.0  0.42199  0.76196  0.04503  1.0000
  C   C676      1.0  0.47392  0.96909  0.14596  1.0000
  Fe  Fe113     1.0  0.40672  0.75885  0.07441  1.0000
  S   S231      1.0  0.40236  0.78454  0.08464  1.0000
  S   S232      1.0  0.38981  0.76120  0.01598  1.0000
  C   C677      1.0  0.37832  0.79826  0.04596  1.0000
  C   C678      1.0  0.48549  0.90211  0.16431  1.0000
  H   H679      1.0  0.41065  0.90779  0.28314  1.0000
  H   H680      1.0  0.49165  0.77971  0.08736  1.0000
  C   C679      1.0  0.37309  0.75099  0.01395  1.0000
  C   C680      1.0  0.47269  0.92269  0.29630  1.0000
  C   C681      1.0  0.46306  0.92730  0.26272  1.0000
  H   H681      1.0  0.37489  0.79232  0.06055  1.0000
  H   H682      1.0  0.44498  0.89137  0.03611  1.0000
  H   H683      1.0  0.45890  0.97223  0.14897  1.0000
  H   H684      1.0  0.42906  0.74744  0.00644  1.0000
  C   C682      1.0  0.43865  0.90085  0.30901  1.0000
  S   S233      1.0  0.38387  0.74852  0.07014  1.0000
  C   C683      1.0  0.35735  0.74498  0.99387  1.0000
  H   H685      1.0  0.36717  0.73687  0.04232  1.0000
  C   C684      1.0  0.44837  0.79060  0.10802  1.0000
  C   C685      1.0  0.43745  0.80606  0.09892  1.0000
  C   C686      1.0  0.42350  0.80408  0.09155  1.0000
  C   C687      1.0  0.42082  0.78665  0.09271  1.0000
  C   C688      1.0  0.43232  0.77119  0.10107  1.0000
  C   C689      1.0  0.44583  0.77319  0.10897  1.0000
  H   H686      1.0  0.43929  0.81954  0.09818  1.0000
  H   H687      1.0  0.41462  0.81609  0.08514  1.0000
  H   H688      1.0  0.43025  0.75771  0.10220  1.0000
  H   H689      1.0  0.45408  0.76121  0.11614  1.0000
  C   C690      1.0  0.47270  0.84779  0.04003  1.0000
  C   C691      1.0  0.47452  0.85104  0.02095  1.0000
  C   C692      1.0  0.46690  0.84103  0.01344  1.0000
  C   C693      1.0  0.45718  0.82796  0.02502  1.0000
  C   C694      1.0  0.45563  0.82453  0.04407  1.0000
  C   C695      1.0  0.46367  0.83416  0.05154  1.0000
  Fe  Fe114     1.0  0.40074  0.74947  0.04145  1.0000
  H   H690      1.0  0.46811  0.84382  0.99875  1.0000
  H   H691      1.0  0.44773  0.81478  0.05314  1.0000
  H   H692      1.0  0.46209  0.83166  0.06628  1.0000
  C   C696      1.0  0.49057  0.74939  0.13331  1.0000
  C   C697      1.0  0.45408  0.93989  0.27397  1.0000
  C   C698      1.0  0.44053  0.74618  0.99469  1.0000
  H   H693      1.0  0.47621  0.76610  0.02308  1.0000
  C   C699      1.0  0.36906  0.75430  0.99671  1.0000
  C   C700      1.0  0.48195  0.91033  0.28484  1.0000
  C   C701      1.0  0.47472  0.89341  0.15881  1.0000
  C   C702      1.0  0.43234  0.87902  0.00331  1.0000
  S   S234      1.0  0.47974  0.86227  0.04943  1.0000
  H   H694      1.0  0.46081  0.89281  0.16665  1.0000
  N   N61       1.0  0.49528  0.77227  0.06172  1.0000
  H   H695      1.0  0.45563  0.78355  0.04631  1.0000
  H   H696      1.0  0.41454  0.87657  0.06742  1.0000
  S   S235      1.0  0.48222  0.94690  0.19062  1.0000
  H   H697      1.0  0.45974  0.75019  0.00819  1.0000
  H   H698      1.0  0.47678  0.94523  0.13541  1.0000
  C   C703      1.0  0.43840  0.88438  0.03020  1.0000
  H   H699      1.0  0.39728  0.92976  0.30820  1.0000
  Fe  Fe115     1.0  0.48176  0.93433  0.22041  1.0000
  H   H700      1.0  0.44344  0.95144  0.26968  1.0000
  S   S236      1.0  0.45654  0.92971  0.24214  1.0000
  C   C704      1.0  0.36426  0.73930  0.02886  1.0000
  H   H701      1.0  0.40162  0.80736  0.04791  1.0000
  H   H702      1.0  0.46810  0.78754  0.07088  1.0000
  C   C705      1.0  0.47005  0.77772  0.04692  1.0000
  H   H703      1.0  0.41425  0.85142  0.04236  1.0000
  H   H704      1.0  0.47986  0.90812  0.17630  1.0000
  H   H705      1.0  0.42629  0.85292  0.06750  1.0000
  H   H706      1.0  0.35697  0.78985  0.03950  1.0000
  H   H707      1.0  0.48152  0.86155  0.01201  1.0000
  H   H708      1.0  0.40952  0.82051  0.01440  1.0000
  H   H709      1.0  0.44787  0.89857  0.00240  1.0000
  C   C706      1.0  0.48162  0.76800  0.03380  1.0000
  C   C707      1.0  0.42129  0.86206  0.03370  1.0000
  C   C708      1.0  0.39331  0.80674  0.03889  1.0000
  N   N62       1.0  0.42920  0.87121  0.04120  1.0000
  S   S237      1.0  0.49178  0.82448  0.12672  1.0000
  H   H710      1.0  0.47920  0.75708  0.14257  1.0000
  C   C709      1.0  0.38744  0.81261  0.00856  1.0000
  C   C710      1.0  0.45907  0.93770  0.29065  1.0000
  C   C711      1.0  0.39784  0.81405  0.02009  1.0000
  C   C712      1.0  0.42717  0.86739  0.06121  1.0000
  C   C713      1.0  0.48336  0.97996  0.14997  1.0000
  Fe  Fe116     1.0  0.48374  0.84981  0.07834  1.0000
  C   C714      1.0  0.47717  0.77985  0.06082  1.0000
  H   H711      1.0  0.37260  0.79628  0.99145  1.0000
  H   H712      1.0  0.48484  0.85409  0.18671  1.0000
  N   N63       1.0  0.37294  0.80403  0.01552  1.0000
  H   H713      1.0  0.35494  0.81598  0.99695  1.0000
  C   C715      1.0  0.44016  0.88844  0.01111  1.0000
  H   H714      1.0  0.41713  0.85801  0.00872  1.0000
  C   C716      1.0  0.36271  0.80234  0.00287  1.0000
  H   H715      1.0  0.39122  0.81809  0.99393  1.0000
  C   C717      1.0  0.45782  0.74787  0.99572  1.0000
  H   H716      1.0  0.45026  0.89363  0.30017  1.0000
  H   H717      1.0  0.35300  0.79305  0.00970  1.0000
  H   H718      1.0  0.48442  0.90315  0.25911  1.0000
  H   H719      1.0  0.47359  0.73886  0.09847  1.0000
  N   N64       1.0  0.42355  0.91162  0.30239  1.0000
  H   H720      1.0  0.49358  0.97559  0.27646  1.0000
  H   H721      1.0  0.49263  0.89879  0.28907  1.0000
  H   H722      1.0  0.48859  0.75488  0.11899  1.0000
  C   C718      1.0  0.40916  0.92107  0.31349  1.0000
  S   S238      1.0  0.47780  0.91872  0.31791  1.0000
  H   H723      1.0  0.49681  0.84054  0.15919  1.0000
  S   S239      1.0  0.49595  0.95394  0.22435  1.0000
  H   H724      1.0  0.43389  0.88178  0.98848  1.0000
  Fe  Fe117     1.0  0.43907  0.97672  0.33861  1.0000
  S   S240      1.0  0.42807  0.96906  0.36907  1.0000
  C   C719      1.0  0.39567  0.96124  0.41957  1.0000
  Fe  Fe118     1.0  0.45863  0.93786  0.33552  1.0000
  S   S241      1.0  0.44990  0.92682  0.36569  1.0000
  H   H725      1.0  0.06869  0.73731  0.47993  1.0000
  Fe  Fe119     1.0  0.42228  0.94504  0.36271  1.0000
  S   S242      1.0  0.39853  0.93159  0.37781  1.0000
  S   S243      1.0  0.43034  0.95434  0.33208  1.0000
  Fe  Fe120     1.0  0.08085  0.82596  0.49293  1.0000
  S   S244      1.0  0.09928  0.82836  0.50977  1.0000
  S   S245      1.0  0.09130  0.80799  0.47196  1.0000
  Fe  Fe121     1.0  0.04819  0.85265  0.50980  1.0000
  S   S246      1.0  0.06343  0.85752  0.52849  1.0000
  S   S247      1.0  0.01840  0.86638  0.50853  1.0000
  Fe  Fe122     1.0  0.08729  0.85857  0.50405  1.0000
  S   S248      1.0  0.10748  0.87748  0.49593  1.0000
  Fe  Fe123     1.0  0.07447  0.82716  0.53304  1.0000
  S   S249      1.0  0.07621  0.80944  0.56092  1.0000
  S   S250      1.0  0.07110  0.85641  0.48474  1.0000
  S   S251      1.0  0.05710  0.82208  0.51688  1.0000
  H   H726      1.0  0.14971  0.98331  0.58910  1.0000
  H   H727      1.0  0.11217  0.76042  0.52888  1.0000
  H   H728      1.0  0.00872  0.87339  0.45785  1.0000
  S   S252      1.0  0.03645  0.76910  0.45689  1.0000
  H   H729      1.0  0.02866  0.75254  0.52722  1.0000
  S   S253      1.0  0.26403  0.96488  0.62538  1.0000
  C   C720      1.0  0.37390  0.95921  0.44881  1.0000
  H   H730      1.0  0.05496  0.81828  0.44286  1.0000
  Fe  Fe124     1.0  0.14941  0.93103  0.54151  1.0000
  S   S254      1.0  0.15505  0.94280  0.56255  1.0000
  S   S255      1.0  0.12569  0.91621  0.54934  1.0000
  Fe  Fe125     1.0  0.18001  0.94490  0.51189  1.0000
  S   S256      1.0  0.18845  0.95782  0.52980  1.0000
  S   S257      1.0  0.19634  0.94731  0.48289  1.0000
  Fe  Fe126     1.0  0.18509  0.93226  0.55105  1.0000
  S   S258      1.0  0.20577  0.91919  0.56925  1.0000
  Fe  Fe127     1.0  0.15819  0.96780  0.54017  1.0000
  H   H731      1.0  0.31158  0.96794  0.55482  1.0000
  S   S259      1.0  0.17939  0.91813  0.53204  1.0000
  S   S260      1.0  0.14972  0.95719  0.52006  1.0000
  C   C721      1.0  0.09460  0.75019  0.55443  1.0000
  C   C722      1.0  0.07843  0.74767  0.49778  1.0000
  Fe  Fe128     1.0  0.31811  0.97173  0.44857  1.0000
  S   S261      1.0  0.28764  0.97431  0.46010  1.0000
  C   C723      1.0  0.35564  0.96664  0.62730  1.0000
  Fe  Fe129     1.0  0.32792  0.95715  0.48591  1.0000
  S   S262      1.0  0.29854  0.95789  0.50104  1.0000
  S   S263      1.0  0.35261  0.95161  0.49811  1.0000
  Fe  Fe130     1.0  0.29615  0.94687  0.47809  1.0000
  S   S264      1.0  0.28114  0.92408  0.48500  1.0000
  H   H732      1.0  0.48841  0.92326  0.37043  1.0000
  H   H733      1.0  0.09250  0.74633  0.48964  1.0000
  S   S265      1.0  0.32646  0.94329  0.46462  1.0000
  H   H734      1.0  0.03657  0.74047  0.49884  1.0000
  H   H735      1.0  0.08401  0.75850  0.51784  1.0000
  N   N65       1.0  0.28329  0.94663  0.42863  1.0000
  C   C724      1.0  0.37916  0.96861  0.43079  1.0000
  C   C725      1.0  0.34695  0.96032  0.51812  1.0000
  C   C726      1.0  0.32962  0.96031  0.53010  1.0000
  Fe  Fe131     1.0  0.29218  0.98500  0.48215  1.0000
  C   C727      1.0  0.11417  0.83223  0.55043  1.0000
  C   C728      1.0  0.01426  0.84865  0.44779  1.0000
  H   H736      1.0  0.31989  0.95410  0.52757  1.0000
  H   H737      1.0  0.42562  0.90802  0.35265  1.0000
  C   C729      1.0  0.09655  0.78202  0.54307  1.0000
  H   H738      1.0  0.12913  0.93780  0.47187  1.0000
  C   C730      1.0  0.21974  0.94099  0.48387  1.0000
  C   C731      1.0  0.23066  0.95403  0.47718  1.0000
  C   C732      1.0  0.24939  0.94905  0.47802  1.0000
  C   C733      1.0  0.25738  0.93094  0.48516  1.0000
  C   C734      1.0  0.24639  0.91791  0.49196  1.0000
  C   C735      1.0  0.22753  0.92298  0.49153  1.0000
  H   H739      1.0  0.22458  0.96803  0.47147  1.0000
  H   H740      1.0  0.25759  0.95923  0.47295  1.0000
  H   H741      1.0  0.25245  0.90388  0.49756  1.0000
  H   H742      1.0  0.21905  0.91289  0.49688  1.0000
  C   C736      1.0  0.21719  0.93421  0.57282  1.0000
  C   C737      1.0  0.21216  0.95296  0.56592  1.0000
  H   H743      1.0  0.45467  0.93385  0.63028  1.0000
  S   S266      1.0  0.32183  0.98529  0.46885  1.0000
  H   H744      1.0  0.00244  0.78996  0.51229  1.0000
  C   C738      1.0  0.23172  0.92745  0.58223  1.0000
  H   H745      1.0  0.20067  0.95841  0.55929  1.0000
  H   H746      1.0  0.06693  0.77623  0.58482  1.0000
  N   N66       1.0  0.12859  0.84010  0.54000  1.0000
  C   C739      1.0  0.26963  0.92090  0.44500  1.0000
  C   C740      1.0  0.11318  0.88654  0.51177  1.0000
  C   C741      1.0  0.10128  0.88840  0.52876  1.0000
  C   C742      1.0  0.10537  0.89743  0.54017  1.0000
  C   C743      1.0  0.12150  0.90442  0.53483  1.0000
  C   C744      1.0  0.13362  0.90215  0.51806  1.0000
  C   C745      1.0  0.12943  0.89329  0.50657  1.0000
  H   H747      1.0  0.08867  0.88334  0.53289  1.0000
  H   H748      1.0  0.09592  0.89911  0.55315  1.0000
  H   H749      1.0  0.14610  0.90744  0.51381  1.0000
  H   H750      1.0  0.13868  0.89197  0.49341  1.0000
  C   C746      1.0  0.07661  0.79561  0.46914  1.0000
  C   C747      1.0  0.05862  0.79646  0.47980  1.0000
  C   C748      1.0  0.04668  0.78774  0.47623  1.0000
  C   C749      1.0  0.05258  0.77811  0.46202  1.0000
  C   C750      1.0  0.07079  0.77662  0.45179  1.0000
  C   C751      1.0  0.08276  0.78540  0.45533  1.0000
  H   H751      1.0  0.05378  0.80409  0.49058  1.0000
  H   H752      1.0  0.03287  0.78832  0.48461  1.0000
  H   H753      1.0  0.07551  0.76917  0.44082  1.0000
  H   H754      1.0  0.09671  0.78462  0.44708  1.0000
  C   C752      1.0  0.08379  0.78654  0.55881  1.0000
  C   C753      1.0  0.38515  0.94264  0.45544  1.0000
  H   H755      1.0  0.21165  0.95466  0.61771  1.0000
  H   H756      1.0  0.11023  0.82208  0.54594  1.0000
  H   H757      1.0  0.10221  0.79248  0.53248  1.0000
  C   C754      1.0  0.32502  0.96791  0.54569  1.0000
  C   C755      1.0  0.11381  0.94486  0.49785  1.0000
  H   H758      1.0  0.03030  0.83261  0.49582  1.0000
  C   C756      1.0  0.37951  0.94582  0.38918  1.0000
  C   C757      1.0  0.37590  0.96477  0.38267  1.0000
  H   H759      1.0  0.35017  0.96827  0.60092  1.0000
  C   C758      1.0  0.34865  0.96815  0.40755  1.0000
  C   C759      1.0  0.35250  0.94923  0.41424  1.0000
  C   C760      1.0  0.36778  0.93806  0.40492  1.0000
  H   H760      1.0  0.38486  0.97083  0.37045  1.0000
  C   C761      1.0  0.20382  0.98378  0.60785  1.0000
  H   H761      1.0  0.34361  0.94312  0.42640  1.0000
  H   H762      1.0  0.37059  0.92339  0.40998  1.0000
  C   C762      1.0  0.10402  0.92764  0.48201  1.0000
  C   C763      1.0  0.34987  0.97581  0.61098  1.0000
  H   H763      1.0  0.07393  0.93299  0.52239  1.0000
  S   S267      1.0  0.32942  0.98243  0.41872  1.0000
  H   H764      1.0  0.21808  0.97926  0.56212  1.0000
  C   C764      1.0  0.10420  0.83714  0.56708  1.0000
  S   S268      1.0  0.02992  0.73796  0.42772  1.0000
  H   H765      1.0  0.22393  0.97430  0.50961  1.0000
  H   H766      1.0  0.15327  0.83579  0.51926  1.0000
  H   H767      1.0  0.42054  0.93382  0.40268  1.0000
  C   C765      1.0  0.25063  0.94935  0.43244  1.0000
  H   H768      1.0  0.48183  0.94632  0.64747  1.0000
  H   H769      1.0  0.46463  0.95372  0.62439  1.0000
  C   C766      1.0  0.49478  0.94444  0.37913  1.0000
  S   S269      1.0  0.29906  0.95117  0.59285  1.0000
  H   H770      1.0  0.26677  0.97452  0.53524  1.0000
  H   H771      1.0  0.99996  0.85046  0.44709  1.0000
  C   C767      1.0  0.07350  0.75472  0.51368  1.0000
  H   H772      1.0  0.10882  0.95343  0.52941  1.0000
  C   C768      1.0  0.08587  0.93440  0.51116  1.0000
  S   S270      1.0  0.33175  0.98614  0.56814  1.0000
  C   C769      1.0  0.03715  0.85882  0.45613  1.0000
  H   H773      1.0  0.01496  0.81024  0.45199  1.0000
  H   H774      1.0  0.45197  0.89144  0.33212  1.0000
  H   H775      1.0  0.23713  0.95760  0.43057  1.0000
  H   H776      1.0  0.06414  0.84059  0.45398  1.0000
  Fe  Fe132     1.0  0.29425  0.95123  0.62300  1.0000
  H   H777      1.0  0.04082  0.86842  0.46166  1.0000
  C   C770      1.0  0.40961  0.91976  0.33177  1.0000
  C   C771      1.0  0.42386  0.93762  0.41405  1.0000
  C   C772      1.0  0.09562  0.95155  0.52770  1.0000
  S   S271      1.0  0.47175  0.95270  0.38938  1.0000
  H   H778      1.0  0.09269  0.83089  0.57519  1.0000
  C   C773      1.0  0.10223  0.76384  0.54107  1.0000
  H   H779      1.0  0.03608  0.76920  0.54500  1.0000
  H   H780      1.0  0.41020  0.92275  0.44913  1.0000
  C   C774      1.0  0.25231  0.93125  0.44218  1.0000
  H   H781      1.0  0.31476  0.95872  0.65115  1.0000
  C   C775      1.0  0.01569  0.83748  0.49631  1.0000
  S   S272      1.0  0.30415  0.97680  0.61824  1.0000
  H   H782      1.0  0.29620  0.96964  0.41869  1.0000
  C   C776      1.0  0.45324  0.94722  0.63364  1.0000
  H   H783      1.0  0.12394  0.95185  0.49844  1.0000
  H   H784      1.0  0.10131  0.85425  0.58585  1.0000
  H   H785      1.0  0.36047  0.95188  0.63008  1.0000
  N   N67       1.0  0.05574  0.75671  0.52388  1.0000
  H   H786      1.0  0.23559  0.91292  0.58774  1.0000
  C   C777      1.0  0.11678  0.93702  0.48272  1.0000
  C   C778      1.0  0.29977  0.95445  0.42093  1.0000
  C   C779      1.0  0.25478  0.91882  0.53810  1.0000
  C   C780      1.0  0.07675  0.77278  0.57259  1.0000
  N   N68       1.0  0.25104  0.93884  0.53301  1.0000
  C   C781      1.0  0.18788  0.96214  0.60535  1.0000
  C   C782      1.0  0.23766  0.94807  0.52329  1.0000
  H   H787      1.0  0.05861  0.77424  0.53938  1.0000
  H   H788      1.0  0.24011  0.92546  0.44806  1.0000
  C   C783      1.0  0.22195  0.96481  0.56771  1.0000
  N   N69       1.0  0.17594  0.97610  0.59663  1.0000
  C   C784      1.0  0.26639  0.95685  0.42562  1.0000
  C   C785      1.0  0.00652  0.82827  0.48968  1.0000
  H   H789      1.0  0.36467  0.98208  0.53974  1.0000
  N   N70       1.0  0.02706  0.83329  0.44387  1.0000
  H   H790      1.0  0.07874  0.91863  0.49605  1.0000
  C   C786      1.0  0.33762  0.97585  0.54915  1.0000
  H   H791      1.0  0.01420  0.81641  0.48416  1.0000
  H   H792      1.0  0.01082  0.82511  0.43051  1.0000
  H   H793      1.0  0.18708  0.94803  0.60720  1.0000
  C   C787      1.0  0.08840  0.92641  0.49624  1.0000
  H   H794      1.0  0.43261  0.94794  0.40816  1.0000
  H   H795      1.0  0.37307  0.96803  0.51253  1.0000
  C   C788      1.0  0.23449  0.96710  0.51743  1.0000
  C   C789      1.0  0.24508  0.97669  0.52164  1.0000
  H   H796      1.0  0.05520  0.75187  0.55223  1.0000
  C   C790      1.0  0.35493  0.97654  0.64013  1.0000
  H   H797      1.0  0.25281  0.93418  0.59127  1.0000
  H   H798      1.0  0.08581  0.96504  0.52595  1.0000
  C   C791      1.0  0.35964  0.96801  0.52173  1.0000
  H   H799      1.0  0.26494  0.91303  0.52668  1.0000
  C   C792      1.0  0.08199  0.75463  0.57030  1.0000
  C   C793      1.0  0.28505  0.92886  0.43813  1.0000
  S   S273      1.0  0.46798  0.96095  0.33945  1.0000
  C   C794      1.0  0.13329  0.85310  0.54562  1.0000
  H   H800      1.0  0.37030  0.98136  0.42544  1.0000
  H   H801      1.0  0.30718  0.95056  0.40758  1.0000
  N   N71       1.0  0.09863  0.94326  0.51193  1.0000
  H   H802      1.0  0.03313  0.81014  0.43157  1.0000
  H   H803      1.0  0.10648  0.92082  0.47076  1.0000
  C   C795      1.0  0.05114  0.76336  0.54093  1.0000
  H   H804      1.0  0.13781  0.82130  0.52200  1.0000
  C   C796      1.0  0.23666  0.95813  0.57673  1.0000
  Fe  Fe133     1.0  0.45636  0.95166  0.36935  1.0000
  C   C797      1.0  0.13842  0.83534  0.52223  1.0000
  H   H805      1.0  0.12739  0.86870  0.56658  1.0000
  H   H806      1.0  0.14425  0.85986  0.53705  1.0000
  H   H807      1.0  0.24186  0.91379  0.54099  1.0000
  C   C798      1.0  0.10905  0.85020  0.57304  1.0000
  C   C799      1.0  0.01912  0.86167  0.45390  1.0000
  C   C800      1.0  0.40159  0.93567  0.44386  1.0000
  C   C801      1.0  0.04704  0.74439  0.50298  1.0000
  H   H808      1.0  0.29835  0.92086  0.44088  1.0000
  H   H809      1.0  0.13204  0.84514  0.51110  1.0000
  H   H810      1.0  0.26032  0.91363  0.55081  1.0000
  C   C802      1.0  0.24146  0.93943  0.58423  1.0000
  H   H811      1.0  0.27219  0.94084  0.54483  1.0000
  H   H812      1.0  0.39827  0.92735  0.34057  1.0000
  C   C803      1.0  0.42499  0.90888  0.33858  1.0000
  C   C804      1.0  0.12374  0.85820  0.56231  1.0000
  C   C805      1.0  0.04484  0.83054  0.44575  1.0000
  S   S274      1.0  0.24868  0.97389  0.57759  1.0000
  H   H813      1.0  0.30941  0.94954  0.43046  1.0000
  C   C806      1.0  0.26157  0.94812  0.53712  1.0000
  C   C807      1.0  0.36032  0.97589  0.39171  1.0000
  C   C808      1.0  0.02125  0.81903  0.43918  1.0000
  H   H814      1.0  0.22939  0.94067  0.51998  1.0000
  H   H815      1.0  0.09011  0.94245  0.54071  1.0000
  C   C809      1.0  0.25861  0.96719  0.53167  1.0000
  C   C810      1.0  0.00629  0.85363  0.50229  1.0000
  C   C811      1.0  0.04260  0.75148  0.51883  1.0000
  C   C812      1.0  0.16223  0.97199  0.58934  1.0000
  H   H816      1.0  0.43233  0.92527  0.42139  1.0000
  Fe  Fe134     1.0  0.26985  0.96794  0.59475  1.0000
  N   N72       1.0  0.40670  0.94503  0.42620  1.0000
  C   C813      1.0  0.05015  0.84320  0.45195  1.0000
  Fe  Fe135     1.0  0.30692  0.97789  0.58855  1.0000
  H   H817      1.0  0.44010  0.95656  0.63062  1.0000
  H   H818      1.0  0.39951  0.96847  0.40547  1.0000
  S   S275      1.0  0.30473  0.92733  0.64432  1.0000
  H   H819      1.0  0.26497  0.97094  0.41810  1.0000
  H   H820      1.0  0.38109  0.93528  0.46948  1.0000
  C   C814      1.0  0.20185  0.96579  0.61128  1.0000
  Fe  Fe136     1.0  0.04610  0.74379  0.44483  1.0000
  C   C815      1.0  0.35488  0.97598  0.53709  1.0000
  H   H821      1.0  0.36111  0.96470  0.45764  1.0000
  C   C816      1.0  0.43966  0.89943  0.32714  1.0000
  H   H822      1.0  0.27098  0.90704  0.45317  1.0000
  H   H823      1.0  0.16832  0.97015  0.57501  1.0000
  H   H824      1.0  0.07638  0.74408  0.58086  1.0000
  H   H825      1.0  0.00212  0.78717  0.48180  1.0000
  H   H826      1.0  0.48463  0.98356  0.35615  1.0000
  C   C817      1.0  0.06510  0.74248  0.49243  1.0000
  H   H827      1.0  0.15768  0.95933  0.59773  1.0000
  H   H828      1.0  0.21509  0.98665  0.61172  1.0000
  H   H829      1.0  0.99773  0.76169  0.40313  1.0000
  H   H830      1.0  0.99742  0.76830  0.46321  1.0000
  H   H831      1.0  0.35957  0.96961  0.65278  1.0000
  S   S276      1.0  0.44505  0.83140  0.93414  1.0000
  S   S277      1.0  0.46426  0.91645  0.85516  1.0000
  Fe  Fe137     1.0  0.44345  0.85198  0.95029  1.0000
  S   S278      1.0  0.44013  0.88260  0.94001  1.0000
  C   C818      1.0  0.42217  0.95853  0.77543  1.0000
  S   S279      1.0  0.40582  0.74116  0.92801  1.0000
  H   H832      1.0  0.42551  0.93754  0.69536  1.0000
  C   C819      1.0  0.40474  0.95846  0.78723  1.0000
  H   H833      1.0  0.33276  0.74053  0.90929  1.0000
  H   H834      1.0  0.31815  0.95291  0.73238  1.0000
  N   N73       1.0  0.43811  0.74294  0.97909  1.0000
  S   S280      1.0  0.45284  0.94780  0.81205  1.0000
  S   S281      1.0  0.40008  0.81054  0.95912  1.0000
  Fe  Fe138     1.0  0.46731  0.81429  0.94911  1.0000
  C   C820      1.0  0.45244  0.74196  0.96403  1.0000
  Fe  Fe139     1.0  0.42587  0.81904  0.95911  1.0000
  Fe  Fe140     1.0  0.38955  0.96169  0.71506  1.0000
  S   S282      1.0  0.41460  0.95192  0.72794  1.0000
  Fe  Fe141     1.0  0.35773  0.95471  0.70327  1.0000
  C   C821      1.0  0.30018  0.96057  0.71334  1.0000
  S   S283      1.0  0.34426  0.93206  0.70449  1.0000
  C   C822      1.0  0.48155  0.97643  0.76113  1.0000
  H   H835      1.0  0.31907  0.90119  0.67324  1.0000
  S   S284      1.0  0.38776  0.95354  0.68991  1.0000
  H   H836      1.0  0.47152  0.89959  0.79675  1.0000
  N   N74       1.0  0.49610  0.86312  0.90955  1.0000
  H   H837      1.0  0.44671  0.98049  0.71882  1.0000
  H   H838      1.0  0.42533  0.94233  0.66240  1.0000
  H   H839      1.0  0.37303  0.79150  0.95970  1.0000
  H   H840      1.0  0.31547  0.98491  0.73414  1.0000
  S   S285      1.0  0.34791  0.98422  0.69087  1.0000
  S   S286      1.0  0.40077  0.96004  0.81037  1.0000
  C   C823      1.0  0.41843  0.91552  0.80960  1.0000
  H   H841      1.0  0.33059  0.96042  0.67446  1.0000
  C   C824      1.0  0.49152  0.90093  0.89857  1.0000
  C   C825      1.0  0.41982  0.74133  0.97838  1.0000
  C   C826      1.0  0.46945  0.94423  0.65793  1.0000
  H   H842      1.0  0.45557  0.90233  0.82864  1.0000
  H   H843      1.0  0.35423  0.76066  0.90582  1.0000
  S   S287      1.0  0.36032  0.96000  0.72955  1.0000
  Fe  Fe142     1.0  0.37811  0.98350  0.67931  1.0000
  C   C827      1.0  0.42705  0.91389  0.79150  1.0000
  C   C828      1.0  0.30790  0.98221  0.72559  1.0000
  C   C829      1.0  0.32162  0.91416  0.67333  1.0000
  H   H844      1.0  0.45314  0.90754  0.77263  1.0000
  Fe  Fe143     1.0  0.46253  0.97382  0.80571  1.0000
  H   H845      1.0  0.44491  0.93351  0.88648  1.0000
  C   C830      1.0  0.33399  0.93170  0.68684  1.0000
  C   C831      1.0  0.32838  0.94747  0.67396  1.0000
  C   C832      1.0  0.31596  0.92976  0.66039  1.0000
  H   H846      1.0  0.45390  0.93784  0.70437  1.0000
  S   S288      1.0  0.44831  0.80016  0.97274  1.0000
  C   C833      1.0  0.33043  0.91514  0.68652  1.0000
  Fe  Fe144     1.0  0.43683  0.98640  0.83921  1.0000
  C   C834      1.0  0.44745  0.90553  0.81828  1.0000
  H   H847      1.0  0.35527  0.74678  0.98016  1.0000
  H   H848      1.0  0.33453  0.90294  0.69653  1.0000
  N   N75       1.0  0.42867  0.91182  0.82259  1.0000
  S   S289      1.0  0.42432  0.96148  0.84852  1.0000
  S   S290      1.0  0.46749  0.83583  0.96322  1.0000
  H   H849      1.0  0.47672  0.95022  0.77712  1.0000
  C   C835      1.0  0.47929  0.95210  0.74833  1.0000
  H   H850      1.0  0.45048  0.73970  0.95155  1.0000
  H   H851      1.0  0.38804  0.74861  0.89833  1.0000
  C   C836      1.0  0.39327  0.95426  0.76263  1.0000
  C   C837      1.0  0.46985  0.94160  0.67646  1.0000
  S   S291      1.0  0.42233  0.84111  0.97427  1.0000
  Fe  Fe145     1.0  0.45362  0.94581  0.84135  1.0000
  C   C838      1.0  0.41935  0.91414  0.84135  1.0000
  C   C839      1.0  0.41066  0.95436  0.75080  1.0000
  H   H852      1.0  0.43874  0.95606  0.74836  1.0000
  Fe  Fe146     1.0  0.49424  0.97284  0.68521  1.0000
  H   H853      1.0  0.43340  0.96016  0.78026  1.0000
  C   C840      1.0  0.46989  0.74367  0.96457  1.0000
  S   S292      1.0  0.49357  0.79838  0.93461  1.0000
  C   C841      1.0  0.39035  0.95621  0.78080  1.0000
  C   C842      1.0  0.44426  0.89198  0.91610  1.0000
  C   C843      1.0  0.45163  0.88076  0.90328  1.0000
  C   C844      1.0  0.45695  0.88852  0.88449  1.0000
  C   C845      1.0  0.45476  0.90755  0.87836  1.0000
  C   C846      1.0  0.44661  0.91883  0.89105  1.0000
  C   C847      1.0  0.44150  0.91105  0.90988  1.0000
  H   H854      1.0  0.45378  0.86608  0.90788  1.0000
  H   H855      1.0  0.46324  0.87970  0.87475  1.0000
  H   H856      1.0  0.43578  0.91982  0.91972  1.0000
  C   C848      1.0  0.40210  0.79142  0.95003  1.0000
  C   C849      1.0  0.38624  0.78471  0.95256  1.0000
  C   C850      1.0  0.38739  0.76902  0.94629  1.0000
  C   C851      1.0  0.40428  0.76041  0.93667  1.0000
  C   C852      1.0  0.42006  0.76749  0.93350  1.0000
  C   C853      1.0  0.41907  0.78275  0.94049  1.0000
  C   C854      1.0  0.48483  0.98074  0.72822  1.0000
  H   H857      1.0  0.37512  0.76378  0.94865  1.0000
  H   H858      1.0  0.43312  0.76105  0.92581  1.0000
  H   H859      1.0  0.43135  0.78794  0.93829  1.0000
  H   H860      1.0  0.44963  0.98235  0.66228  1.0000
  C   C855      1.0  0.28950  0.97506  0.70305  1.0000
  C   C856      1.0  0.31930  0.94651  0.66079  1.0000
  H   H861      1.0  0.30164  0.94660  0.71223  1.0000
  H   H862      1.0  0.42893  0.91634  0.84858  1.0000
  H   H863      1.0  0.40775  0.92641  0.84112  1.0000
  C   C857      1.0  0.47259  0.74648  0.98058  1.0000
  C   C858      1.0  0.45656  0.90391  0.80026  1.0000
  H   H864      1.0  0.41891  0.91755  0.78108  1.0000
  H   H865      1.0  0.28261  0.97245  0.69382  1.0000
  S   S293      1.0  0.46630  0.97049  0.83429  1.0000
  H   H866      1.0  0.48238  0.94134  0.68041  1.0000
  H   H867      1.0  0.37686  0.95607  0.78984  1.0000
  H   H868      1.0  0.47752  0.93835  0.75024  1.0000
  H   H869      1.0  0.41392  0.90184  0.84936  1.0000
  C   C859      1.0  0.44627  0.90830  0.78676  1.0000
  H   H870      1.0  0.37576  0.76340  0.98532  1.0000
  C   C860      1.0  0.43788  0.93946  0.68488  1.0000
  Fe  Fe147     1.0  0.42447  0.96493  0.81875  1.0000
  C   C861      1.0  0.30944  0.96413  0.72471  1.0000
  H   H871      1.0  0.38205  0.95261  0.75782  1.0000
  C   C862      1.0  0.45389  0.93945  0.68997  1.0000
  H   H872      1.0  0.40352  0.92044  0.81303  1.0000
  C   C863      1.0  0.47869  0.95887  0.76357  1.0000
  C   C864      1.0  0.42518  0.95621  0.75735  1.0000
  H   H873      1.0  0.48131  0.74259  0.95271  1.0000
  C   C865      1.0  0.43793  0.94208  0.66625  1.0000
  C   C866      1.0  0.48259  0.96295  0.73061  1.0000
  S   S294      1.0  0.48493  0.95376  0.71157  1.0000
  H   H874      1.0  0.48611  0.74758  0.98124  1.0000
  H   H875      1.0  0.48407  0.84013  0.91570  1.0000
  H   H876      1.0  0.41060  0.75514  0.97626  1.0000
  N   N76       1.0  0.45353  0.94465  0.65305  1.0000
  H   H877      1.0  0.48908  0.91571  0.89419  1.0000
  C   C867      1.0  0.48870  0.87379  0.92237  1.0000
  H   H878      1.0  0.47987  0.90124  0.92723  1.0000
  H   H879      1.0  0.38188  0.98586  0.83387  1.0000
  H   H880      1.0  0.49183  0.79562  0.97305  1.0000
  C   C868      1.0  0.35965  0.74671  0.90389  1.0000
  C   C869      1.0  0.37879  0.73977  0.89976  1.0000
  H   H881      1.0  0.48390  0.86770  0.93670  1.0000
  C   C870      1.0  0.48642  0.89281  0.91710  1.0000
  S   S295      1.0  0.48186  0.98470  0.77994  1.0000
  Fe  Fe148     1.0  0.44654  0.82320  0.98586  1.0000
  H   H882      1.0  0.41563  0.98593  0.67166  1.0000
  C   C871      1.0  0.57855  0.00633  0.23904  1.0000
  H   H883      1.0  0.55172  0.99605  0.19805  1.0000
  Fe  Fe149     1.0  0.53788  0.21854  0.06392  1.0000
  C   C872      1.0  0.54985  0.06178  0.31204  1.0000
  H   H884      1.0  0.60281  0.98991  0.27285  1.0000
  H   H885      1.0  0.57085  0.00200  0.23175  1.0000
  S   S296      1.0  0.55655  0.21819  0.08205  1.0000
  Fe  Fe150     1.0  0.54234  0.19666  0.10221  1.0000
  S   S297      1.0  0.55056  0.11610  0.31518  1.0000
  S   S298      1.0  0.52569  0.19534  0.08308  1.0000
  C   C873      1.0  0.53795  0.00372  0.19659  1.0000
  H   H886      1.0  0.52824  0.19136  0.04790  1.0000
  H   H887      1.0  0.59728  0.02402  0.28349  1.0000
  H   H888      1.0  0.56438  0.06120  0.30574  1.0000
  S   S299      1.0  0.51153  0.12279  0.18370  1.0000
  C   C874      1.0  0.60617  0.02379  0.26951  1.0000
  H   H889      1.0  0.57358  0.20600  0.11630  1.0000
  C   C875      1.0  0.50831  0.00525  0.19026  1.0000
  H   H890      1.0  0.56876  0.14415  0.15005  1.0000
  H   H891      1.0  0.51453  0.03337  0.27693  1.0000
  Fe  Fe151     1.0  0.52281  0.09947  0.20534  1.0000
  S   S300      1.0  0.55142  0.08149  0.20316  1.0000
  N   N77       1.0  0.57831  0.22697  0.12651  1.0000
  C   C876      1.0  0.50250  0.02340  0.19249  1.0000
  S   S301      1.0  0.53516  0.05673  0.24309  1.0000
  S   S302      1.0  0.50851  0.07592  0.21354  1.0000
  Fe  Fe152     1.0  0.54726  0.08158  0.23313  1.0000
  S   S303      1.0  0.57086  0.08011  0.24588  1.0000
  Fe  Fe153     1.0  0.53678  0.05820  0.21349  1.0000
  H   H892      1.0  0.53872  0.22919  0.99632  1.0000
  S   S304      1.0  0.51975  0.10158  0.23450  1.0000
  C   C877      1.0  0.55107  0.10147  0.14371  1.0000
  H   H893      1.0  0.54399  0.05455  0.28963  1.0000
  H   H894      1.0  0.57809  0.08561  0.14730  1.0000
  C   C878      1.0  0.51615  0.15100  0.15410  1.0000
  C   C879      1.0  0.55654  0.10581  0.29609  1.0000
  C   C880      1.0  0.57444  0.09581  0.29044  1.0000
  C   C881      1.0  0.57876  0.08802  0.27495  1.0000
  C   C882      1.0  0.56514  0.08997  0.26525  1.0000
  C   C883      1.0  0.54719  0.09968  0.27114  1.0000
  C   C884      1.0  0.54297  0.10774  0.28638  1.0000
  H   H895      1.0  0.58502  0.09436  0.29778  1.0000
  H   H896      1.0  0.59270  0.08055  0.27042  1.0000
  H   H897      1.0  0.53660  0.10126  0.26382  1.0000
  H   H898      1.0  0.52914  0.11554  0.29057  1.0000
  H   H899      1.0  0.56426  0.20543  0.14039  1.0000
  H   H900      1.0  0.50168  0.09504  0.27067  1.0000
  H   H901      1.0  0.51050  0.01312  0.29410  1.0000
  C   C885      1.0  0.53219  0.02184  0.19884  1.0000
  C   C886      1.0  0.56344  0.08576  0.15027  1.0000
  H   H902      1.0  0.53280  0.05910  0.17367  1.0000
  H   H903      1.0  0.52253  0.11411  0.14361  1.0000
  H   H904      1.0  0.61965  0.01423  0.27103  1.0000
  H   H905      1.0  0.56619  0.05813  0.16649  1.0000
  C   C887      1.0  0.53844  0.05787  0.30311  1.0000
  C   C888      1.0  0.55681  0.07038  0.16099  1.0000
  C   C889      1.0  0.52481  0.13733  0.16698  1.0000
  C   C890      1.0  0.54380  0.13495  0.16557  1.0000
  C   C891      1.0  0.55406  0.14609  0.15118  1.0000
  C   C892      1.0  0.54536  0.15971  0.13824  1.0000
  C   C893      1.0  0.52635  0.16218  0.13982  1.0000
  H   H906      1.0  0.60291  0.21248  0.11130  1.0000
  H   H907      1.0  0.55059  0.12443  0.17543  1.0000
  H   H908      1.0  0.51953  0.17258  0.12990  1.0000
  C   C894      1.0  0.57945  0.02464  0.23537  1.0000
  S   S305      1.0  0.51970  0.21659  0.11614  1.0000
  C   C895      1.0  0.59670  0.22388  0.11813  1.0000
  H   H909      1.0  0.51477  0.02165  0.25130  1.0000
  S   S306      1.0  0.54480  0.22319  0.03283  1.0000
  C   C896      1.0  0.53781  0.07101  0.16510  1.0000
  S   S307      1.0  0.54796  0.03214  0.20295  1.0000
  C   C897      1.0  0.53292  0.21773  0.00475  1.0000
  C   C898      1.0  0.53425  0.21160  0.02324  1.0000
  H   H910      1.0  0.60886  0.03770  0.26312  1.0000
  C   C899      1.0  0.51430  0.03159  0.19706  1.0000
  Fe  Fe154     1.0  0.50794  0.07642  0.24247  1.0000
  S   S308      1.0  0.54148  0.99251  0.26941  1.0000
  C   C900      1.0  0.52375  0.20927  0.99715  1.0000
  S   S309      1.0  0.55852  0.17325  0.12005  1.0000
  H   H911      1.0  0.51077  0.05560  0.30469  1.0000
  H   H912      1.0  0.58913  0.04450  0.24259  1.0000
  S   S310      1.0  0.56386  0.00578  0.30262  1.0000
  H   H913      1.0  0.55597  0.11368  0.13570  1.0000
  C   C901      1.0  0.51984  0.05845  0.31155  1.0000
  C   C902      1.0  0.51582  0.19463  0.00799  1.0000
  C   C903      1.0  0.52598  0.99538  0.19253  1.0000
  C   C904      1.0  0.59641  0.99971  0.26219  1.0000
  N   N78       1.0  0.59712  0.01774  0.25856  1.0000
  C   C905      1.0  0.58875  0.03018  0.24539  1.0000
  Fe  Fe155     1.0  0.50439  0.21759  0.09513  1.0000
  H   H914      1.0  0.51416  0.14115  0.31484  1.0000
  C   C906      1.0  0.51765  0.18813  0.02628  1.0000
  C   C907      1.0  0.52681  0.19660  0.03388  1.0000
  H   H915      1.0  0.57273  0.03454  0.22502  1.0000
  C   C908      1.0  0.53215  0.10161  0.14813  1.0000
  C   C909      1.0  0.50368  0.02610  0.28603  1.0000
  N   N79       1.0  0.52576  0.08647  0.15864  1.0000
  H   H916      1.0  0.50961  0.04549  0.19891  1.0000
  H   H917      1.0  0.52843  0.99156  0.23844  1.0000
  C   C910      1.0  0.56686  0.21468  0.12665  1.0000
  C   C911      1.0  0.58713  0.99373  0.25249  1.0000
  C   C912      1.0  0.50070  0.01997  0.25761  1.0000
  H   H918      1.0  0.55341  0.22270  0.12329  1.0000
  C   C913      1.0  0.50579  0.08726  0.16380  1.0000
  S   S311      1.0  0.61373  0.98783  0.30822  1.0000
  H   H919      1.0  0.51179  0.17665  0.03466  1.0000
  H   H920      1.0  0.50274  0.07337  0.16828  1.0000
  S   S312      1.0  0.50241  0.18521  0.99941  1.0000
  H   H921      1.0  0.50147  0.15287  0.15509  1.0000
  H   H922      1.0  0.49937  0.09456  0.17531  1.0000
  H   H923      1.0  0.49776  0.10881  0.29695  1.0000
  H   H924      1.0  0.49918  0.09473  0.15202  1.0000
  H   H925      1.0  0.62212  0.23351  0.11082  1.0000
  C   C914      1.0  0.60768  0.23561  0.11793  1.0000
  S   S313      1.0  0.62260  0.12637  0.34249  1.0000
  Fe  Fe156     1.0  0.77601  0.12094  0.49785  1.0000
  S   S314      1.0  0.78394  0.12608  0.52164  1.0000
  S   S315      1.0  0.75219  0.13806  0.48505  1.0000
  Fe  Fe157     1.0  0.80313  0.08443  0.49770  1.0000
  S   S316      1.0  0.81346  0.08586  0.52156  1.0000
  S   S317      1.0  0.81223  0.06165  0.48221  1.0000
  Fe  Fe158     1.0  0.78350  0.09647  0.53354  1.0000
  S   S318      1.0  0.76887  0.08616  0.56232  1.0000
  Fe  Fe159     1.0  0.81333  0.11544  0.50773  1.0000
  S   S319      1.0  0.83931  0.12595  0.50410  1.0000
  S   S320      1.0  0.77333  0.09223  0.51098  1.0000
  S   S321      1.0  0.80533  0.11303  0.48262  1.0000
  Fe  Fe160     1.0  0.56913  0.10718  0.33537  1.0000
  C   C915      1.0  0.59151  0.00869  0.57668  1.0000
  Fe  Fe161     1.0  0.66560  0.12917  0.41953  1.0000
  S   S322      1.0  0.64136  0.12007  0.43997  1.0000
  S   S323      1.0  0.66041  0.14900  0.39357  1.0000
  Fe  Fe162     1.0  0.69331  0.10469  0.44211  1.0000
  S   S324      1.0  0.67128  0.09280  0.46381  1.0000
  S   S325      1.0  0.72281  0.09413  0.44557  1.0000
  Fe  Fe163     1.0  0.65970  0.09226  0.44044  1.0000
  S   S326      1.0  0.64551  0.07060  0.44077  1.0000
  Fe  Fe164     1.0  0.65531  0.12177  0.46099  1.0000
  S   S327      1.0  0.64088  0.13075  0.48732  1.0000
  S   S328      1.0  0.68341  0.10119  0.41878  1.0000
  S   S329      1.0  0.67796  0.13392  0.44055  1.0000
  Fe  Fe165     1.0  0.66133  0.05150  0.60376  1.0000
  S   S330      1.0  0.63193  0.05566  0.60171  1.0000
  S   S331      1.0  0.67329  0.02603  0.62197  1.0000
  Fe  Fe166     1.0  0.66706  0.08694  0.57792  1.0000
  S   S332      1.0  0.63813  0.09407  0.57378  1.0000
  S   S333      1.0  0.68378  0.10763  0.56121  1.0000
  Fe  Fe167     1.0  0.62984  0.08424  0.60405  1.0000
  S   S334      1.0  0.60382  0.10039  0.61889  1.0000
  Fe  Fe168     1.0  0.64319  0.06505  0.57169  1.0000
  S   S335      1.0  0.63402  0.05966  0.54902  1.0000
  S   S336      1.0  0.65847  0.07942  0.60861  1.0000
  S   S337      1.0  0.67293  0.05848  0.57338  1.0000
  Fe  Fe169     1.0  0.88404  0.18843  0.53680  1.0000
  S   S338      1.0  0.89990  0.19458  0.55444  1.0000
  S   S339      1.0  0.86030  0.17333  0.54749  1.0000
  C   C916      1.0  0.51291  0.06302  0.32882  1.0000
  H   H926      1.0  0.60696  0.16325  0.38920  1.0000
  Fe  Fe170     1.0  0.92461  0.18993  0.53114  1.0000
  S   S340      1.0  0.95496  0.17773  0.53030  1.0000
  H   H927      1.0  0.59502  0.09709  0.43314  1.0000
  H   H928      1.0  0.58345  0.00290  0.53784  1.0000
  H   H929      1.0  0.50407  0.99980  0.36434  1.0000
  C   C917      1.0  0.64248  0.06495  0.36994  1.0000
  H   H930      1.0  0.53506  0.03716  0.37527  1.0000
  H   H931      1.0  0.65847  0.01561  0.35259  1.0000
  C   C918      1.0  0.64182  0.04732  0.36941  1.0000
  H   H932      1.0  0.64144  0.06835  0.38294  1.0000
  C   C919      1.0  0.59955  0.99210  0.41503  1.0000
  C   C920      1.0  0.96535  0.18382  0.54472  1.0000
  C   C921      1.0  0.95564  0.18657  0.56224  1.0000
  C   C922      1.0  0.96482  0.18962  0.57414  1.0000
  H   H933      1.0  0.94127  0.18557  0.56690  1.0000
  S   S341      1.0  0.53400  0.01758  0.34888  1.0000
  C   C923      1.0  0.63952  0.11048  0.50379  1.0000
  C   C924      1.0  0.62755  0.09975  0.50397  1.0000
  C   C925      1.0  0.62615  0.08376  0.51759  1.0000
  C   C926      1.0  0.63688  0.07850  0.53085  1.0000
  C   C927      1.0  0.64958  0.08871  0.52998  1.0000
  C   C928      1.0  0.65080  0.10476  0.51655  1.0000
  H   H934      1.0  0.61905  0.10403  0.49386  1.0000
  H   H935      1.0  0.61640  0.07584  0.51817  1.0000
  H   H936      1.0  0.65841  0.08431  0.53974  1.0000
  H   H937      1.0  0.66048  0.11273  0.51605  1.0000
  H   H938      1.0  0.63649  0.15737  0.33914  1.0000
  C   C929      1.0  0.66752  0.99381  0.59149  1.0000
  C   C930      1.0  0.66666  0.00916  0.59819  1.0000
  C   C931      1.0  0.67422  0.00705  0.61339  1.0000
  C   C932      1.0  0.68263  0.98962  0.62181  1.0000
  H   H939      1.0  0.73598  0.99006  0.43088  1.0000
  H   H940      1.0  0.66178  0.99546  0.57973  1.0000
  H   H941      1.0  0.66021  0.02259  0.59156  1.0000
  H   H942      1.0  0.84367  0.03333  0.46815  1.0000
  C   C933      1.0  0.65056  0.00658  0.47652  1.0000
  C   C934      1.0  0.67214  0.03605  0.39729  1.0000
  C   C935      1.0  0.65794  0.03111  0.41209  1.0000
  C   C936      1.0  0.64969  0.04200  0.42515  1.0000
  C   C937      1.0  0.65563  0.05787  0.42357  1.0000
  C   C938      1.0  0.66945  0.06315  0.40848  1.0000
  C   C939      1.0  0.67769  0.05226  0.39532  1.0000
  H   H943      1.0  0.65312  0.01895  0.41350  1.0000
  H   H944      1.0  0.63881  0.03797  0.43662  1.0000
  H   H945      1.0  0.67374  0.07564  0.40681  1.0000
  H   H946      1.0  0.68843  0.05633  0.38373  1.0000
  C   C940      1.0  0.84362  0.14171  0.51445  1.0000
  C   C941      1.0  0.83057  0.14917  0.52859  1.0000
  C   C942      1.0  0.83562  0.15953  0.53809  1.0000
  C   C943      1.0  0.85360  0.16281  0.53337  1.0000
  C   C944      1.0  0.86631  0.15615  0.51861  1.0000
  C   C945      1.0  0.86136  0.14559  0.50930  1.0000
  H   H947      1.0  0.81682  0.14645  0.53260  1.0000
  H   H948      1.0  0.82563  0.16477  0.54938  1.0000
  H   H949      1.0  0.88019  0.15854  0.51480  1.0000
  H   H950      1.0  0.87153  0.13999  0.49832  1.0000
  C   C946      1.0  0.74494  0.09295  0.56320  1.0000
  C   C947      1.0  0.73253  0.08379  0.57705  1.0000
  C   C948      1.0  0.71359  0.08835  0.57677  1.0000
  C   C949      1.0  0.70704  0.10237  0.56286  1.0000
  C   C950      1.0  0.71939  0.11169  0.54926  1.0000
  C   C951      1.0  0.73829  0.10691  0.54935  1.0000
  H   H951      1.0  0.73763  0.07291  0.58774  1.0000
  H   H952      1.0  0.70410  0.08103  0.58727  1.0000
  H   H953      1.0  0.71444  0.12243  0.53838  1.0000
  H   H954      1.0  0.74769  0.11412  0.53864  1.0000
  C   C952      1.0  0.74337  0.12457  0.47611  1.0000
  C   C953      1.0  0.72490  0.12975  0.47435  1.0000
  C   C954      1.0  0.71829  0.12014  0.46548  1.0000
  C   C955      1.0  0.73027  0.10560  0.45793  1.0000
  C   C956      1.0  0.74863  0.10019  0.46003  1.0000
  C   C957      1.0  0.75509  0.10946  0.46936  1.0000
  H   H955      1.0  0.71576  0.14134  0.47970  1.0000
  H   H956      1.0  0.70402  0.12421  0.46425  1.0000
  H   H957      1.0  0.75795  0.08889  0.45432  1.0000
  H   H958      1.0  0.76937  0.10537  0.47065  1.0000
  C   C958      1.0  0.80125  0.04313  0.49170  1.0000
  C   C959      1.0  0.80190  0.03143  0.48050  1.0000
  C   C960      1.0  0.79466  0.01565  0.48801  1.0000
  C   C961      1.0  0.78696  0.01133  0.50682  1.0000
  C   C962      1.0  0.78597  0.02323  0.51798  1.0000
  C   C963      1.0  0.79301  0.03917  0.51043  1.0000
  H   H959      1.0  0.80815  0.03450  0.46598  1.0000
  H   H960      1.0  0.79520  0.00679  0.47923  1.0000
  H   H961      1.0  0.78022  0.01982  0.53259  1.0000
  H   H962      1.0  0.79263  0.04806  0.51919  1.0000
  C   C964      1.0  0.64110  0.00300  0.49490  1.0000
  H   H963      1.0  0.50207  0.11282  0.41257  1.0000
  C   C965      1.0  0.58922  0.00766  0.54652  1.0000
  C   C966      1.0  0.60292  0.09763  0.64239  1.0000
  H   H964      1.0  0.60019  0.00019  0.42419  1.0000
  H   H965      1.0  0.93940  0.19396  0.47449  1.0000
  H   H966      1.0  0.76927  0.01206  0.38274  1.0000
  S   S342      1.0  0.64588  0.99111  0.39938  1.0000
  C   C967      1.0  0.98354  0.19057  0.56838  1.0000
  H   H967      1.0  0.63553  0.14932  0.59027  1.0000
  C   C968      1.0  0.65006  0.14173  0.37993  1.0000
  C   C969      1.0  0.64438  0.12502  0.38550  1.0000
  C   C970      1.0  0.63509  0.12033  0.37462  1.0000
  H   H968      1.0  0.50828  0.06257  0.36474  1.0000
  H   H969      1.0  0.64692  0.11585  0.39826  1.0000
  H   H970      1.0  0.63050  0.10760  0.37905  1.0000
  Fe  Fe171     1.0  0.60004  0.11067  0.35088  1.0000
  C   C971      1.0  0.85200  0.99511  0.47509  1.0000
  C   C972      1.0  0.63839  0.14840  0.35220  1.0000
  N   N80       1.0  0.52412  0.06718  0.33732  1.0000
  S   S343      1.0  0.50941  0.00686  0.63986  1.0000
  C   C973      1.0  0.60265  0.01808  0.53873  1.0000
  C   C974      1.0  0.95249  0.19306  0.47849  1.0000
  S   S344      1.0  0.87668  0.21784  0.52249  1.0000
  H   H971      1.0  0.62953  0.12717  0.59905  1.0000
  C   C975      1.0  0.74374  0.05734  0.54214  1.0000
  H   H972      1.0  0.75535  0.05606  0.50668  1.0000
  H   H973      1.0  0.75340  0.06618  0.54070  1.0000
  H   H974      1.0  0.73479  0.05646  0.55620  1.0000
  H   H975      1.0  0.75184  0.04333  0.54103  1.0000
  C   C976      1.0  0.96707  0.23166  0.48691  1.0000
  C   C977      1.0  0.51619  0.07261  0.35509  1.0000
  N   N81       1.0  0.64349  0.04282  0.35305  1.0000
  H   H976      1.0  0.49847  0.06339  0.33534  1.0000
  C   C978      1.0  0.96423  0.21425  0.48844  1.0000
  H   H977      1.0  0.57313  0.01210  0.33228  1.0000
  C   C979      1.0  0.64551  0.05562  0.33696  1.0000
  H   H978      1.0  0.68850  0.98793  0.63352  1.0000
  H   H979      1.0  0.68770  0.04028  0.51943  1.0000
  C   C980      1.0  0.57020  0.01987  0.34269  1.0000
  H   H980      1.0  0.50679  0.08633  0.35315  1.0000
  H   H981      1.0  0.95114  0.18527  0.49297  1.0000
  C   C981      1.0  0.61370  0.02403  0.58060  1.0000
  H   H982      1.0  0.64022  0.03716  0.38213  1.0000
  C   C982      1.0  0.52570  0.06345  0.40594  1.0000
  N   N82       1.0  0.60505  0.01850  0.56892  1.0000
  C   C983      1.0  0.55221  0.02419  0.35318  1.0000
  C   C984      1.0  0.61043  0.02345  0.55020  1.0000
  C   C985      1.0  0.54237  0.06677  0.32907  1.0000
  C   C986      1.0  0.64479  0.07799  0.35358  1.0000
  Fe  Fe172     1.0  0.54732  0.99724  0.33089  1.0000
  H   H983      1.0  0.84534  0.03357  0.49067  1.0000
  N   N83       1.0  0.66188  0.04741  0.48817  1.0000
  C   C987      1.0  0.66612  0.04539  0.50474  1.0000
  C   C988      1.0  0.67564  0.04616  0.47270  1.0000
  C   C989      1.0  0.68453  0.04201  0.50617  1.0000
  C   C990      1.0  0.69421  0.04292  0.47357  1.0000
  C   C991      1.0  0.69865  0.04082  0.49044  1.0000
  C   C992      1.0  0.64246  0.05205  0.48675  1.0000
  H   H984      1.0  0.65524  0.04605  0.51703  1.0000
  H   H985      1.0  0.67230  0.04780  0.45955  1.0000
  H   H986      1.0  0.60263  0.03385  0.64436  1.0000
  H   H987      1.0  0.70503  0.04217  0.46120  1.0000
  C   C993      1.0  0.59346  0.00059  0.39875  1.0000
  H   H988      1.0  0.63793  0.06709  0.48223  1.0000
  H   H989      1.0  0.64062  0.04533  0.47661  1.0000
  H   H990      1.0  0.63333  0.04732  0.50010  1.0000
  H   H991      1.0  0.63459  0.01779  0.36500  1.0000
  S   S345      1.0  0.64927  0.00724  0.51206  1.0000
  H   H992      1.0  0.50722  0.01304  0.38870  1.0000
  H   H993      1.0  0.52500  0.12799  0.34580  1.0000
  H   H994      1.0  0.65309  0.00340  0.44913  1.0000
  H   H995      1.0  0.64563  0.09162  0.35370  1.0000
  H   H996      1.0  0.98207  0.22681  0.55459  1.0000
  C   C994      1.0  0.64569  0.00070  0.46323  1.0000
  C   C995      1.0  0.83454  0.00301  0.50341  1.0000
  C   C996      1.0  0.64417  0.02390  0.35273  1.0000
  S   S346      1.0  0.59913  0.09331  0.33225  1.0000
  H   H997      1.0  0.66212  0.01318  0.47263  1.0000
  C   C997      1.0  0.62129  0.98865  0.48646  1.0000
  H   H998      1.0  0.65142  0.16618  0.35886  1.0000
  H   H999      1.0  0.95740  0.19112  0.58793  1.0000
  N   N84       1.0  0.75626  0.14466  0.43272  1.0000
  C   C998      1.0  0.75018  0.13571  0.42335  1.0000
  C   C999      1.0  0.74471  0.15932  0.43947  1.0000
  C   C1000     1.0  0.73196  0.14114  0.42088  1.0000
  C   C1001     1.0  0.72643  0.16517  0.43718  1.0000
  C   C1002     1.0  0.72004  0.15598  0.42784  1.0000
  C   C1003     1.0  0.77547  0.13893  0.43500  1.0000
  H   H1000     1.0  0.75921  0.12391  0.41823  1.0000
  H   H1001     1.0  0.74942  0.16617  0.44725  1.0000
  H   H1002     1.0  0.72697  0.13354  0.41409  1.0000
  H   H1003     1.0  0.71717  0.17647  0.44301  1.0000
  H   H1004     1.0  0.70580  0.16012  0.42627  1.0000
  H   H1005     1.0  0.78083  0.12402  0.43563  1.0000
  H   H1006     1.0  0.78441  0.14663  0.42343  1.0000
  H   H1007     1.0  0.77648  0.14140  0.44817  1.0000
  N   N85       1.0  0.84125  0.11310  0.55743  1.0000
  C   C1004     1.0  0.83060  0.10461  0.55244  1.0000
  C   C1005     1.0  0.83359  0.12342  0.57055  1.0000
  C   C1006     1.0  0.81169  0.10654  0.56048  1.0000
  C   C1007     1.0  0.81468  0.12581  0.57870  1.0000
  C   C1008     1.0  0.80369  0.11728  0.57361  1.0000
  C   C1009     1.0  0.86111  0.11062  0.54915  1.0000
  H   H1008     1.0  0.83663  0.09662  0.54188  1.0000
  H   H1009     1.0  0.84201  0.13036  0.57432  1.0000
  H   H1010     1.0  0.80319  0.09989  0.55649  1.0000
  H   H1011     1.0  0.80857  0.13437  0.58875  1.0000
  H   H1012     1.0  0.78898  0.11901  0.57972  1.0000
  H   H1013     1.0  0.86895  0.09850  0.55737  1.0000
  H   H1014     1.0  0.86400  0.10880  0.53477  1.0000
  H   H1015     1.0  0.86626  0.12290  0.54834  1.0000
  N   N86       1.0  0.59664  0.12312  0.41476  1.0000
  C   C1010     1.0  0.58268  0.12260  0.40726  1.0000
  C   C1011     1.0  0.60483  0.13782  0.40882  1.0000
  C   C1012     1.0  0.57696  0.13685  0.39313  1.0000
  C   C1013     1.0  0.59972  0.15210  0.39445  1.0000
  C   C1014     1.0  0.58579  0.15150  0.38646  1.0000
  C   C1015     1.0  0.60345  0.10767  0.42873  1.0000
  H   H1016     1.0  0.57596  0.11109  0.41201  1.0000
  H   H1017     1.0  0.61596  0.13826  0.41465  1.0000
  H   H1018     1.0  0.56587  0.13638  0.38727  1.0000
  Fe  Fe173     1.0  0.90290  0.21113  0.50194  1.0000
  H   H1019     1.0  0.58197  0.16227  0.37503  1.0000
  H   H1020     1.0  0.61795  0.10099  0.42313  1.0000
  H   H1021     1.0  0.60316  0.11243  0.44112  1.0000
  C   C1016     1.0  0.54882  0.03413  0.36680  1.0000
  C   C1017     1.0  0.51034  0.13148  0.35187  1.0000
  H   H1022     1.0  0.70494  0.08647  0.48975  1.0000
  C   C1018     1.0  0.58114  0.03614  0.35866  1.0000
  H   H1023     1.0  0.63952  0.02322  0.34060  1.0000
  H   H1024     1.0  0.60748  0.03856  0.58141  1.0000
  S   S347      1.0  0.90938  0.18137  0.51499  1.0000
  C   C1019     1.0  0.50640  0.06896  0.40934  1.0000
  C   C1020     1.0  0.52802  0.09392  0.40600  1.0000
  C   C1021     1.0  0.63761  0.13565  0.58727  1.0000
  C   C1022     1.0  0.99294  0.18885  0.55047  1.0000
  C   C1023     1.0  0.53650  0.07597  0.40403  1.0000
  S   S348      1.0  0.92023  0.21908  0.51604  1.0000
  N   N87       1.0  0.95546  0.21134  0.47667  1.0000
  H   H1025     1.0  0.65244  0.12858  0.58628  1.0000
  H   H1026     1.0  0.58923  0.01539  0.39512  1.0000
  S   S349      1.0  0.59913  0.04403  0.36159  1.0000
  H   H1027     1.0  0.65811  0.14198  0.55321  1.0000
  H   H1028     1.0  0.56065  0.04788  0.37996  1.0000
  Fe  Fe174     1.0  0.67469  0.99511  0.39453  1.0000
  N   N88       1.0  0.63198  0.13759  0.57009  1.0000
  C   C1024     1.0  0.64425  0.14087  0.55362  1.0000
  N   N89       1.0  0.73286  0.06494  0.52789  1.0000
  H   H1029     1.0  0.62121  0.03112  0.54400  1.0000
  H   H1030     1.0  0.59549  0.13579  0.55478  1.0000
  S   S350      1.0  0.59361  0.09025  0.37718  1.0000
  C   C1025     1.0  0.64697  0.15335  0.36330  1.0000
  C   C1026     1.0  0.74098  0.06312  0.51018  1.0000
  N   N90       1.0  0.75681  0.98913  0.39048  1.0000
  S   S351      1.0  0.54153  0.11026  0.40095  1.0000
  H   H1031     1.0  0.55144  0.07175  0.40093  1.0000
  H   H1032     1.0  0.53229  0.04962  0.40431  1.0000
  H   H1033     1.0  0.82898  0.01290  0.51218  1.0000
  C   C1027     1.0  0.61446  0.13631  0.57058  1.0000
  H   H1034     1.0  0.60476  0.13361  0.58366  1.0000
  H   H1035     1.0  0.61801  0.14087  0.52477  1.0000
  S   S352      1.0  0.68259  0.02200  0.38125  1.0000
  S   S353      1.0  0.57061  0.12629  0.35175  1.0000
  C   C1028     1.0  0.50480  0.13268  0.37037  1.0000
  C   C1029     1.0  0.63935  0.14220  0.53711  1.0000
  H   H1036     1.0  0.70845  0.07582  0.54614  1.0000
  C   C1030     1.0  0.73092  0.07044  0.49632  1.0000
  C   C1031     1.0  0.58464  0.02577  0.34544  1.0000
  C   C1032     1.0  0.58343  0.00313  0.56559  1.0000
  C   C1033     1.0  0.63227  0.13202  0.35781  1.0000
  H   H1037     1.0  0.64926  0.14429  0.52409  1.0000
  C   C1034     1.0  0.71492  0.07433  0.53216  1.0000
  H   H1038     1.0  0.71301  0.03821  0.49130  1.0000
  C   C1035     1.0  0.56327  0.04021  0.36944  1.0000
  H   H1039     1.0  0.59847  0.02241  0.33717  1.0000
  C   C1036     1.0  0.71270  0.08024  0.50051  1.0000
  C   C1037     1.0  0.60915  0.13747  0.55431  1.0000
  C   C1038     1.0  0.50868  0.09910  0.41059  1.0000
  C   C1039     1.0  0.64609  0.07342  0.33700  1.0000
  C   C1040     1.0  0.74028  0.99675  0.38521  1.0000
  S   S354      1.0  0.55993  0.08676  0.36031  1.0000
  H   H1040     1.0  0.93730  0.23554  0.57963  1.0000
  Fe  Fe175     1.0  0.56407  0.10438  0.37653  1.0000
  Fe  Fe176     1.0  0.58994  0.07431  0.35873  1.0000
  H   H1041     1.0  0.99153  0.18303  0.52525  1.0000
  H   H1042     1.0  0.52703  0.07308  0.36178  1.0000
  S   S355      1.0  0.90435  0.22039  0.47162  1.0000
  H   H1043     1.0  0.63532  0.03480  0.64083  1.0000
  N   N91       1.0  0.84558  0.00737  0.48637  1.0000
  C   C1041     1.0  0.98397  0.18512  0.53881  1.0000
  C   C1042     1.0  0.62175  0.14032  0.53750  1.0000
  C   C1043     1.0  0.70464  0.08227  0.51854  1.0000
  H   H1044     1.0  0.73737  0.06888  0.48231  1.0000
  H   H1045     1.0  0.69063  0.09017  0.52198  1.0000
  H   H1046     1.0  0.62883  0.02268  0.57479  1.0000
  H   H1047     1.0  0.57309  0.99490  0.57175  1.0000
  H   H1048     1.0  0.63242  0.08930  0.63992  1.0000
  H   H1049     1.0  0.58814  0.99631  0.37445  1.0000
  H   H1050     1.0  0.96883  0.20315  0.49928  1.0000
  H   H1051     1.0  0.86555  0.02391  0.47525  1.0000
  H   H1052     1.0  0.96424  0.18530  0.46967  1.0000
  H   H1053     1.0  0.51507  0.13011  0.37847  1.0000
  H   H1054     1.0  0.77974  0.99301  0.39857  1.0000
  H   H1055     1.0  0.91641  0.22768  0.56495  1.0000
  H   H1056     1.0  0.61212  0.01530  0.59468  1.0000
  H   H1057     1.0  0.58718  0.00468  0.59151  1.0000
  C   C1044     1.0  0.85033  0.02537  0.47981  1.0000
  C   C1045     1.0  0.49787  0.08672  0.41197  1.0000
  C   C1046     1.0  0.76639  0.00082  0.39475  1.0000
  H   H1058     1.0  0.75773  0.00669  0.40675  1.0000
  H   H1059     1.0  0.86051  0.99865  0.46148  1.0000
  H   H1060     1.0  0.60735  0.02165  0.52392  1.0000
  Fe  Fe177     1.0  0.89461  0.22343  0.53794  1.0000
  H   H1061     1.0  0.94342  0.22285  0.45320  1.0000
  C   C1047     1.0  0.61912  0.09182  0.64916  1.0000
  S   S356      1.0  0.77941  0.99073  0.51688  1.0000
  C   C1048     1.0  0.62618  0.99444  0.49975  1.0000
  N   N92       1.0  0.49748  0.13452  0.34161  1.0000
  H   H1062     1.0  0.95673  0.22537  0.54115  1.0000
  S   S357      1.0  0.99492  0.19324  0.58407  1.0000
  H   H1063     1.0  0.73434  0.01128  0.38412  1.0000
  H   H1064     1.0  0.55134  0.07008  0.33566  1.0000
  C   C1049     1.0  0.63136  0.99131  0.46827  1.0000
  H   H1065     1.0  0.57323  0.10634  0.64924  1.0000
  C   C1050     1.0  0.50375  0.13274  0.32238  1.0000
  C   C1051     1.0  0.59287  0.98994  0.38713  1.0000
  H   H1066     1.0  0.51022  0.11820  0.32180  1.0000
  C   C1052     1.0  0.95015  0.22522  0.46269  1.0000
  H   H1067     1.0  0.64666  0.05210  0.32401  1.0000
  H   H1068     1.0  0.64753  0.08366  0.32429  1.0000
  H   H1069     1.0  0.63699  0.99904  0.32486  1.0000
  H   H1070     1.0  0.97379  0.23396  0.49644  1.0000
  H   H1071     1.0  0.61862  0.99184  0.51385  1.0000
  H   H1072     1.0  0.71729  0.99198  0.37771  1.0000
  H   H1073     1.0  0.65387  0.05379  0.65033  1.0000
  H   H1074     1.0  0.53707  0.07436  0.65212  1.0000
  C   C1053     1.0  0.51597  0.12190  0.92166  1.0000
  S   S358      1.0  0.52349  0.19833  0.94608  1.0000
  C   C1054     1.0  0.52946  0.07919  0.82730  1.0000
  H   H1075     1.0  0.63073  0.08523  0.67314  1.0000
  C   C1055     1.0  0.51404  0.10048  0.68364  1.0000
  H   H1076     1.0  0.56500  0.08272  0.78064  1.0000
  H   H1077     1.0  0.52398  0.10995  0.92992  1.0000
  C   C1056     1.0  0.52624  0.02852  0.67549  1.0000
  C   C1057     1.0  0.53600  0.06429  0.81865  1.0000
  Fe  Fe178     1.0  0.55458  0.04900  0.72487  1.0000
  S   S359      1.0  0.60002  0.08772  0.70394  1.0000
  S   S360      1.0  0.55206  0.07765  0.70856  1.0000
  H   H1078     1.0  0.55394  0.10893  0.79628  1.0000
  H   H1079     1.0  0.51946  0.07814  0.84026  1.0000
  C   C1058     1.0  0.54900  0.09645  0.80260  1.0000
  S   S361      1.0  0.55446  0.08899  0.74563  1.0000
  S   S362      1.0  0.57804  0.04904  0.73652  1.0000
  C   C1059     1.0  0.53960  0.03292  0.69840  1.0000
  H   H1080     1.0  0.50779  0.16663  0.87885  1.0000
  C   C1060     1.0  0.50739  0.08100  0.66189  1.0000
  C   C1061     1.0  0.52278  0.04403  0.70518  1.0000
  C   C1062     1.0  0.54147  0.02550  0.68328  1.0000
  H   H1081     1.0  0.50852  0.04638  0.80861  1.0000
  H   H1082     1.0  0.53111  0.05180  0.82502  1.0000
  H   H1083     1.0  0.49949  0.03786  0.83271  1.0000
  S   S363      1.0  0.55805  0.02753  0.70930  1.0000
  H   H1084     1.0  0.52771  0.02267  0.66384  1.0000
  H   H1085     1.0  0.65224  0.04860  0.67473  1.0000
  C   C1063     1.0  0.53294  0.99066  0.73547  1.0000
  H   H1086     1.0  0.54678  0.12636  0.85028  1.0000
  H   H1087     1.0  0.51236  0.10261  0.89975  1.0000
  C   C1064     1.0  0.58576  0.10144  0.65448  1.0000
  C   C1065     1.0  0.55508  0.08172  0.79364  1.0000
  C   C1066     1.0  0.52959  0.11290  0.87413  1.0000
  C   C1067     1.0  0.60096  0.09263  0.68019  1.0000
  Fe  Fe179     1.0  0.57433  0.07840  0.72155  1.0000
  H   H1088     1.0  0.57931  0.04157  0.67226  1.0000
  C   C1068     1.0  0.54399  0.13661  0.87446  1.0000
  C   C1069     1.0  0.52560  0.08172  0.66096  1.0000
  C   C1070     1.0  0.50746  0.04675  0.69756  1.0000
  H   H1089     1.0  0.52273  0.21413  0.98292  1.0000
  C   C1071     1.0  0.54077  0.12538  0.86488  1.0000
  H   H1090     1.0  0.55255  0.14648  0.86739  1.0000
  C   C1072     1.0  0.50592  0.10273  0.78586  1.0000
  H   H1091     1.0  0.51754  0.07548  0.78102  1.0000
  H   H1092     1.0  0.51862  0.10397  0.78835  1.0000
  C   C1073     1.0  0.52889  0.09161  0.67185  1.0000
  C   C1074     1.0  0.59920  0.04677  0.68391  1.0000
  Fe  Fe180     1.0  0.53243  0.08552  0.73388  1.0000
  C   C1075     1.0  0.59368  0.04197  0.67049  1.0000
  Fe  Fe181     1.0  0.55588  0.05942  0.75928  1.0000
  C   C1076     1.0  0.50906  0.03856  0.68308  1.0000
  C   C1077     1.0  0.52141  0.11207  0.89279  1.0000
  S   S364      1.0  0.53254  0.05654  0.74902  1.0000
  C   C1078     1.0  0.53571  0.09538  0.81913  1.0000
  C   C1079     1.0  0.54831  0.06576  0.80152  1.0000
  H   H1093     1.0  0.52137  0.04988  0.71677  1.0000
  Fe  Fe182     1.0  0.51313  0.22882  0.93940  1.0000
  H   H1094     1.0  0.52716  0.10406  0.86676  1.0000
  S   S365      1.0  0.55381  0.04819  0.78951  1.0000
  S   S366      1.0  0.52535  0.11483  0.82849  1.0000
  H   H1095     1.0  0.62175  0.05128  0.69200  1.0000
  N   N93       1.0  0.63044  0.04314  0.66610  1.0000
  N   N94       1.0  0.52448  0.12325  0.90204  1.0000
  C   C1080     1.0  0.58478  0.09884  0.67336  1.0000
  C   C1081     1.0  0.61775  0.04720  0.68155  1.0000
  S   S367      1.0  0.51440  0.98959  0.68249  1.0000
  H   H1096     1.0  0.57156  0.10214  0.68255  1.0000
  C   C1082     1.0  0.61816  0.08964  0.66797  1.0000
  H   H1097     1.0  0.51541  0.13446  0.92623  1.0000
  H   H1098     1.0  0.56047  0.99177  0.70581  1.0000
  H   H1099     1.0  0.55457  0.01720  0.67774  1.0000
  C   C1083     1.0  0.53585  0.13522  0.89321  1.0000
  H   H1100     1.0  0.53813  0.14425  0.90049  1.0000
  H   H1101     1.0  0.58915  0.05028  0.69602  1.0000
  H   H1102     1.0  0.52375  0.00328  0.72939  1.0000
  H   H1103     1.0  0.51643  0.10789  0.69251  1.0000
  S   S368      1.0  0.50671  0.10786  0.73336  1.0000
  S   S369      1.0  0.50945  0.18027  0.90899  1.0000
  H   H1104     1.0  0.54481  0.99462  0.73779  1.0000
  C   C1084     1.0  0.64982  0.04401  0.66336  1.0000
  H   H1105     1.0  0.54295  0.09222  0.67132  1.0000
  H   H1106     1.0  0.50144  0.12038  0.92451  1.0000
  H   H1107     1.0  0.50159  0.07260  0.73328  1.0000
  C   C1085     1.0  0.50535  0.08656  0.78167  1.0000
  H   H1108     1.0  0.65899  0.03032  0.66240  1.0000
  Fe  Fe183     1.0  0.49956  0.19934  0.97047  1.0000
  Fe  Fe184     1.0  0.50274  0.19677  0.93112  1.0000
  C   C1086     1.0  0.60674  0.03763  0.65489  1.0000
  C   C1087     1.0  0.62519  0.03825  0.65294  1.0000
  H   H1109     1.0  0.50495  0.07282  0.65381  1.0000
  H   H1110     1.0  0.50112  0.13079  0.80055  1.0000
  Fe  Fe185     1.0  0.59826  0.32420  0.09081  1.0000
  S   S370      1.0  0.58151  0.34150  0.07044  1.0000
  Fe  Fe186     1.0  0.60742  0.35705  0.09754  1.0000
  S   S371      1.0  0.59166  0.37716  0.07741  1.0000
  S   S372      1.0  0.61977  0.36801  0.11448  1.0000
  Fe  Fe187     1.0  0.57007  0.36054  0.08984  1.0000
  S   S373      1.0  0.54045  0.37565  0.09211  1.0000
  Fe  Fe188     1.0  0.60425  0.35675  0.05954  1.0000
  S   S374      1.0  0.61166  0.36542  0.02890  1.0000
  S   S375      1.0  0.58457  0.34180  0.11170  1.0000
  S   S376      1.0  0.62240  0.33796  0.07829  1.0000
  Fe  Fe189     1.0  0.69992  0.41620  0.08876  1.0000
  S   S377      1.0  0.67706  0.43902  0.07991  1.0000
  S   S378      1.0  0.69769  0.38666  0.09779  1.0000
  Fe  Fe190     1.0  0.72629  0.44189  0.08055  1.0000
  S   S379      1.0  0.70540  0.46669  0.07104  1.0000
  S   S380      1.0  0.75555  0.44503  0.07527  1.0000
  Fe  Fe191     1.0  0.68562  0.45445  0.09540  1.0000
  C   C1088     1.0  0.76740  0.47663  0.11086  1.0000
  Fe  Fe192     1.0  0.69918  0.44870  0.05651  1.0000
  S   S381      1.0  0.69788  0.45715  0.02675  1.0000
  S   S382      1.0  0.70700  0.43097  0.10635  1.0000
  S   S383      1.0  0.72146  0.42468  0.06411  1.0000
  S   S384      1.0  0.68282  0.39068  0.00593  1.0000
  H   H1111     1.0  0.49750  0.35611  0.03140  1.0000
  C   C1089     1.0  0.64783  0.47416  0.04694  1.0000
  H   H1112     1.0  0.65744  0.48241  0.99391  1.0000
  H   H1113     1.0  0.64856  0.47940  0.07948  1.0000
  C   C1090     1.0  0.51778  0.33164  0.11427  1.0000
  C   C1091     1.0  0.88915  0.47993  0.29060  1.0000
  C   C1092     1.0  0.75248  0.43249  0.01748  1.0000
  C   C1093     1.0  0.53007  0.34335  0.10914  1.0000
  C   C1094     1.0  0.52301  0.34783  0.05089  1.0000
  H   H1114     1.0  0.75624  0.48497  0.05352  1.0000
  H   H1115     1.0  0.81269  0.46408  0.03735  1.0000
  C   C1095     1.0  0.50196  0.33652  0.10697  1.0000
  H   H1116     1.0  0.67036  0.33284  0.02813  1.0000
  H   H1117     1.0  0.60658  0.41360  0.14556  1.0000
  N   N95       1.0  0.50948  0.33857  0.05351  1.0000
  C   C1096     1.0  0.56341  0.27783  0.00707  1.0000
  C   C1097     1.0  0.69560  0.43772  0.02093  1.0000
  H   H1118     1.0  0.88824  0.46864  0.30235  1.0000
  H   H1119     1.0  0.72318  0.48175  0.00787  1.0000
  C   C1098     1.0  0.68923  0.40791  0.01171  1.0000
  C   C1099     1.0  0.68610  0.40871  0.03015  1.0000
  C   C1100     1.0  0.68920  0.42365  0.03474  1.0000
  H   H1120     1.0  0.57471  0.26510  0.14146  1.0000
  S   S385      1.0  0.66251  0.47149  0.11220  1.0000
  H   H1121     1.0  0.68084  0.39806  0.04088  1.0000
  H   H1122     1.0  0.68634  0.42428  0.04898  1.0000
  C   C1101     1.0  0.59164  0.36314  0.00567  1.0000
  C   C1102     1.0  0.66669  0.34369  0.03564  1.0000
  H   H1123     1.0  0.73760  0.43363  0.02133  1.0000
  C   C1103     1.0  0.55150  0.27129  0.10157  1.0000
  H   H1124     1.0  0.75383  0.43973  0.04183  1.0000
  C   C1104     1.0  0.69661  0.42144  0.99794  1.0000
  C   C1105     1.0  0.81302  0.47802  0.03014  1.0000
  C   C1106     1.0  0.58257  0.28604  0.09616  1.0000
  C   C1107     1.0  0.69017  0.48325  0.11842  1.0000
  C   C1108     1.0  0.70001  0.43622  0.00255  1.0000
  C   C1109     1.0  0.76014  0.45655  0.08952  1.0000
  C   C1110     1.0  0.74746  0.45995  0.10570  1.0000
  H   H1125     1.0  0.67291  0.35329  0.07350  1.0000
  H   H1126     1.0  0.58041  0.41036  0.01375  1.0000
  H   H1127     1.0  0.56970  0.25231  0.08523  1.0000
  C   C1111     1.0  0.77646  0.46310  0.08407  1.0000
  H   H1128     1.0  0.73487  0.45488  0.11000  1.0000
  H   H1129     1.0  0.68155  0.32801  0.05674  1.0000
  H   H1130     1.0  0.50736  0.37830  0.08063  1.0000
  H   H1131     1.0  0.78630  0.46052  0.07154  1.0000
  C   C1112     1.0  0.64216  0.37205  0.10538  1.0000
  C   C1113     1.0  0.65731  0.35866  0.11038  1.0000
  C   C1114     1.0  0.67459  0.36308  0.10697  1.0000
  C   C1115     1.0  0.67677  0.38099  0.09879  1.0000
  C   C1116     1.0  0.66182  0.39419  0.09305  1.0000
  C   C1117     1.0  0.64452  0.38976  0.09643  1.0000
  H   H1132     1.0  0.65548  0.34508  0.11771  1.0000
  H   H1133     1.0  0.68608  0.35281  0.11148  1.0000
  H   H1134     1.0  0.66338  0.40792  0.08654  1.0000
  H   H1135     1.0  0.63279  0.40023  0.09273  1.0000
  C   C1118     1.0  0.52614  0.36028  0.09724  1.0000
  H   H1136     1.0  0.54227  0.33957  0.11487  1.0000
  C   C1119     1.0  0.59118  0.36827  0.02178  1.0000
  C   C1120     1.0  0.57418  0.37521  0.03262  1.0000
  C   C1121     1.0  0.55764  0.37686  0.02747  1.0000
  C   C1122     1.0  0.58404  0.27111  0.08854  1.0000
  C   C1123     1.0  0.67293  0.34101  0.05166  1.0000
  H   H1137     1.0  0.52182  0.36171  0.04289  1.0000
  H   H1138     1.0  0.57375  0.37940  0.04500  1.0000
  H   H1139     1.0  0.54457  0.38238  0.03586  1.0000
  H   H1140     1.0  0.61319  0.39036  0.14267  1.0000
  H   H1141     1.0  0.56252  0.26540  0.01825  1.0000
  H   H1142     1.0  0.56425  0.30513  0.11229  1.0000
  H   H1143     1.0  0.55173  0.31565  0.07569  1.0000
  C   C1124     1.0  0.66803  0.35515  0.06111  1.0000
  H   H1144     1.0  0.63209  0.43919  0.99798  1.0000
  C   C1125     1.0  0.55804  0.37103  0.01178  1.0000
  H   H1145     1.0  0.59729  0.26508  0.08081  1.0000
  C   C1126     1.0  0.65678  0.37178  0.05445  1.0000
  H   H1146     1.0  0.54966  0.28745  0.00845  1.0000
  H   H1147     1.0  0.74156  0.47222  0.12916  1.0000
  N   N96       1.0  0.63563  0.40376  0.13731  1.0000
  C   C1127     1.0  0.64131  0.41989  0.13303  1.0000
  C   C1128     1.0  0.64780  0.38743  0.14118  1.0000
  C   C1129     1.0  0.65955  0.41993  0.13272  1.0000
  C   C1130     1.0  0.66615  0.38699  0.14097  1.0000
  C   C1131     1.0  0.67203  0.40335  0.13665  1.0000
  C   C1132     1.0  0.61654  0.40412  0.13712  1.0000
  H   H1148     1.0  0.63178  0.43285  0.12970  1.0000
  H   H1149     1.0  0.64353  0.37460  0.14392  1.0000
  H   H1150     1.0  0.66404  0.43274  0.12923  1.0000
  H   H1151     1.0  0.67597  0.37403  0.14334  1.0000
  H   H1152     1.0  0.68639  0.40310  0.13590  1.0000
  H   H1153     1.0  0.57368  0.28437  0.00900  1.0000
  H   H1154     1.0  0.60477  0.35772  0.99727  1.0000
  C   C1133     1.0  0.51048  0.32141  0.06448  1.0000
  N   N97       1.0  0.65079  0.37433  0.03870  1.0000
  C   C1134     1.0  0.65563  0.36056  0.02927  1.0000
  C   C1135     1.0  0.63887  0.39189  0.03223  1.0000
  H   H1155     1.0  0.65098  0.36259  0.01670  1.0000
  H   H1156     1.0  0.64525  0.40333  0.03144  1.0000
  H   H1157     1.0  0.63698  0.39296  0.01823  1.0000
  H   H1158     1.0  0.62501  0.39328  0.04166  1.0000
  N   N98       1.0  0.78048  0.43437  0.02425  1.0000
  C   C1136     1.0  0.76172  0.43591  0.02901  1.0000
  C   C1137     1.0  0.79047  0.42974  0.00795  1.0000
  H   H1159     1.0  0.65563  0.47203  0.03300  1.0000
  C   C1138     1.0  0.78172  0.42609  0.99617  1.0000
  C   C1139     1.0  0.51029  0.36524  0.08997  1.0000
  C   C1140     1.0  0.78974  0.43758  0.03691  1.0000
  C   C1141     1.0  0.61732  0.48329  0.00335  1.0000
  H   H1160     1.0  0.80528  0.42900  0.00390  1.0000
  C   C1142     1.0  0.62603  0.46473  0.00660  1.0000
  C   C1143     1.0  0.57504  0.36424  0.00083  1.0000
  H   H1161     1.0  0.55441  0.25134  0.99802  1.0000
  H   H1162     1.0  0.78745  0.42777  0.05033  1.0000
  H   H1163     1.0  0.80491  0.43602  0.03143  1.0000
  C   C1144     1.0  0.76260  0.42743  0.00102  1.0000
  C   C1145     1.0  0.55006  0.28621  0.10908  1.0000
  H   H1164     1.0  0.90431  0.46268  0.27127  1.0000
  H   H1165     1.0  0.65302  0.38273  0.06180  1.0000
  C   C1146     1.0  0.56546  0.29374  0.10622  1.0000
  S   S386      1.0  0.53184  0.26205  0.10636  1.0000
  H   H1166     1.0  0.52032  0.31899  0.12421  1.0000
  H   H1167     1.0  0.49733  0.24982  0.03259  1.0000
  C   C1147     1.0  0.53985  0.32202  0.06948  1.0000
  H   H1168     1.0  0.55581  0.24402  0.14141  1.0000
  C   C1148     1.0  0.56847  0.26384  0.09109  1.0000
  S   S387      1.0  0.53723  0.37268  0.00578  1.0000
  H   H1169     1.0  0.61452  0.40854  0.12277  1.0000
  H   H1170     1.0  0.51194  0.26819  0.98959  1.0000
  C   C1149     1.0  0.53847  0.33965  0.05864  1.0000
  S   S388      1.0  0.60253  0.29356  0.09484  1.0000
  H   H1171     1.0  0.59162  0.42781  0.99790  1.0000
  H   H1172     1.0  0.53698  0.29179  0.11733  1.0000
  S   S389      1.0  0.51543  0.24066  0.07496  1.0000
  H   H1173     1.0  0.78411  0.45172  0.03925  1.0000
  H   H1174     1.0  0.79243  0.47862  0.09015  1.0000
  H   H1175     1.0  0.88505  0.47799  0.21036  1.0000
  H   H1176     1.0  0.87125  0.47994  0.06672  1.0000
  C   C1150     1.0  0.75122  0.46981  0.11649  1.0000
  C   C1151     1.0  0.77994  0.47338  0.09457  1.0000
  H   H1177     1.0  0.63284  0.47582  0.04773  1.0000
  S   S390      1.0  0.80940  0.46766  0.00032  1.0000
  C   C1152     1.0  0.89811  0.47656  0.27302  1.0000
  H   H1178     1.0  0.63447  0.45929  0.01678  1.0000
  C   C1153     1.0  0.59978  0.25040  0.12655  1.0000
  H   H1179     1.0  0.69907  0.47032  0.11599  1.0000
  H   H1180     1.0  0.49943  0.31429  0.06719  1.0000
  H   H1181     1.0  0.93411  0.47638  0.27282  1.0000
  C   C1154     1.0  0.81162  0.48360  0.01161  1.0000
  H   H1182     1.0  0.70626  0.44624  0.99187  1.0000
  C   C1155     1.0  0.52571  0.31285  0.07256  1.0000
  H   H1183     1.0  0.52634  0.29934  0.08141  1.0000
  C   C1156     1.0  0.56271  0.25916  0.98652  1.0000
  H   H1184     1.0  0.75562  0.42468  0.99196  1.0000
  H   H1185     1.0  0.54911  0.34712  0.05648  1.0000
  H   H1186     1.0  0.65254  0.46159  0.05684  1.0000
  H   H1187     1.0  0.60795  0.26001  0.12590  1.0000
  C   C1157     1.0  0.57048  0.24136  0.13512  1.0000
  H   H1188     1.0  0.60379  0.40405  0.00166  1.0000
  H   H1189     1.0  0.92896  0.47879  0.30537  1.0000
  C   C1158     1.0  0.62483  0.45338  0.99585  1.0000
  H   H1190     1.0  0.87251  0.48528  0.24109  1.0000
  H   H1191     1.0  0.55602  0.41151  0.00018  1.0000
  Fe  Fe193     1.0  0.53267  0.23807  0.09495  1.0000
  N   N99       1.0  0.56874  0.27313  0.98895  1.0000
  H   H1192     1.0  0.81629  0.48588  0.05363  1.0000
  C   C1159     1.0  0.58109  0.25327  0.13528  1.0000
  C   C1160     1.0  0.59020  0.41348  0.00037  1.0000
  H   H1193     1.0  0.57546  0.35977  0.98866  1.0000
  H   H1194     1.0  0.69160  0.47720  0.98770  1.0000
  C   C1161     1.0  0.49836  0.35321  0.09460  1.0000
  H   H1195     1.0  0.49852  0.37551  0.12830  1.0000
  C   C1162     1.0  0.56579  0.41057  0.98717  1.0000
  S   S391      1.0  0.94199  0.27002  0.58262  1.0000
  H   H1196     1.0  0.93106  0.34128  0.64738  1.0000
  N   N100      1.0  0.85751  0.28145  0.57921  1.0000
  S   S392      1.0  0.94821  0.30552  0.60709  1.0000
  Fe  Fe194     1.0  0.92640  0.32672  0.48868  1.0000
  S   S393      1.0  0.90275  0.34958  0.49585  1.0000
  S   S394      1.0  0.95070  0.31967  0.50178  1.0000
  Fe  Fe195     1.0  0.90888  0.31899  0.46200  1.0000
  S   S395      1.0  0.88388  0.34183  0.46626  1.0000
  S   S396      1.0  0.91162  0.30247  0.44127  1.0000
  Fe  Fe196     1.0  0.90414  0.35798  0.46555  1.0000
  S   S397      1.0  0.90378  0.38771  0.45375  1.0000
  Fe  Fe197     1.0  0.88482  0.33135  0.49601  1.0000
  S   S398      1.0  0.85910  0.32855  0.51774  1.0000
  S   S399      1.0  0.92919  0.33623  0.45821  1.0000
  S   S400      1.0  0.90836  0.30741  0.49202  1.0000
  S   S401      1.0  0.92773  0.32403  0.57214  1.0000
  C   C1163     1.0  0.95120  0.37277  0.53324  1.0000
  Fe  Fe198     1.0  0.94093  0.33333  0.58934  1.0000
  S   S402      1.0  0.96175  0.35093  0.57768  1.0000
  Fe  Fe199     1.0  0.90167  0.33074  0.59331  1.0000
  S   S403      1.0  0.87350  0.34448  0.58755  1.0000
  C   C1164     1.0  0.97143  0.35035  0.59587  1.0000
  C   C1165     1.0  0.96303  0.34318  0.61387  1.0000
  C   C1166     1.0  0.90594  0.24328  0.46346  1.0000
  C   C1167     1.0  0.96041  0.33895  0.49544  1.0000
  H   H1197     1.0  0.84869  0.27147  0.56050  1.0000
  H   H1198     1.0  0.86203  0.26952  0.46213  1.0000
  C   C1168     1.0  0.90720  0.25113  0.44475  1.0000
  C   C1169     1.0  0.96033  0.37024  0.47874  1.0000
  C   C1170     1.0  0.95296  0.35462  0.48357  1.0000
  C   C1171     1.0  0.90909  0.26930  0.43801  1.0000
  C   C1172     1.0  0.98266  0.35462  0.49771  1.0000
  H   H1199     1.0  0.95435  0.38238  0.46971  1.0000
  H   H1200     1.0  0.94137  0.35488  0.47819  1.0000
  C   C1173     1.0  0.86293  0.33268  0.53731  1.0000
  C   C1174     1.0  0.88065  0.32683  0.54102  1.0000
  C   C1175     1.0  0.88390  0.33028  0.55654  1.0000
  C   C1176     1.0  0.86959  0.33999  0.56813  1.0000
  C   C1177     1.0  0.85189  0.34603  0.56431  1.0000
  C   C1178     1.0  0.84848  0.34211  0.54905  1.0000
  H   H1201     1.0  0.89187  0.31950  0.53199  1.0000
  H   H1202     1.0  0.89751  0.32551  0.55939  1.0000
  H   H1203     1.0  0.84078  0.35359  0.57323  1.0000
  H   H1204     1.0  0.83480  0.34680  0.54608  1.0000
  C   C1179     1.0  0.92636  0.26461  0.57303  1.0000
  C   C1180     1.0  0.91343  0.27842  0.56463  1.0000
  C   C1181     1.0  0.90176  0.27398  0.55616  1.0000
  H   H1205     1.0  0.91264  0.29257  0.56438  1.0000
  H   H1206     1.0  0.89194  0.28480  0.54955  1.0000
  H   H1207     1.0  0.89463  0.37217  0.57360  1.0000
  H   H1208     1.0  0.83405  0.29219  0.56710  1.0000
  C   C1182     1.0  0.90855  0.27170  0.46862  1.0000
  C   C1183     1.0  0.90973  0.27964  0.44996  1.0000
  C   C1184     1.0  0.94874  0.39179  0.60624  1.0000
  H   H1209     1.0  0.93214  0.37987  0.41817  1.0000
  S   S404      1.0  0.89888  0.45636  0.33926  1.0000
  H   H1210     1.0  0.90909  0.27942  0.47794  1.0000
  H   H1211     1.0  0.91002  0.27536  0.42353  1.0000
  Fe  Fe200     1.0  0.92079  0.31450  0.62536  1.0000
  H   H1212     1.0  0.86221  0.24766  0.49196  1.0000
  H   H1213     1.0  0.94801  0.25389  0.44994  1.0000
  C   C1185     1.0  0.88390  0.42565  0.41290  1.0000
  C   C1186     1.0  0.89096  0.41707  0.42869  1.0000
  C   C1187     1.0  0.89240  0.39829  0.43561  1.0000
  C   C1188     1.0  0.88596  0.38821  0.42718  1.0000
  H   H1214     1.0  0.88260  0.44017  0.40785  1.0000
  H   H1215     1.0  0.89555  0.42498  0.43541  1.0000
  H   H1216     1.0  0.88698  0.37369  0.43251  1.0000
  C   C1189     1.0  0.97654  0.46199  0.38376  1.0000
  H   H1217     1.0  0.89677  0.37777  0.51634  1.0000
  H   H1218     1.0  0.90676  0.24315  0.43546  1.0000
  S   S405      1.0  0.90543  0.30306  0.61192  1.0000
  H   H1219     1.0  0.95137  0.47302  0.64508  1.0000
  C   C1190     1.0  0.95535  0.27105  0.52823  1.0000
  H   H1220     1.0  0.94035  0.44833  0.37880  1.0000
  H   H1221     1.0  0.95436  0.38455  0.41533  1.0000
  C   C1191     1.0  0.96072  0.45477  0.38860  1.0000
  C   C1192     1.0  0.96114  0.24605  0.47304  1.0000
  H   H1222     1.0  0.95589  0.38113  0.51943  1.0000
  C   C1193     1.0  0.97433  0.28907  0.53316  1.0000
  H   H1223     1.0  0.86864  0.30583  0.60309  1.0000
  N   N101      1.0  0.94036  0.39906  0.39350  1.0000
  C   C1194     1.0  0.95477  0.40674  0.38270  1.0000
  C   C1195     1.0  0.92556  0.40000  0.38651  1.0000
  C   C1196     1.0  0.95471  0.41533  0.36430  1.0000
  C   C1197     1.0  0.92477  0.40897  0.36837  1.0000
  C   C1198     1.0  0.93947  0.41668  0.35721  1.0000
  C   C1199     1.0  0.94016  0.39084  0.41298  1.0000
  H   H1224     1.0  0.96631  0.40647  0.38831  1.0000
  H   H1225     1.0  0.91420  0.39391  0.39502  1.0000
  H   H1226     1.0  0.96608  0.42155  0.35574  1.0000
  C   C1200     1.0  0.90277  0.25570  0.55619  1.0000
  H   H1227     1.0  0.86468  0.25236  0.58276  1.0000
  S   S406      1.0  0.98313  0.39037  0.48089  1.0000
  H   H1228     1.0  0.90540  0.24775  0.48987  1.0000
  C   C1201     1.0  0.98750  0.35687  0.59258  1.0000
  H   H1229     1.0  0.98474  0.28789  0.54112  1.0000
  C   C1202     1.0  0.87891  0.39685  0.41127  1.0000
  N   N102      1.0  0.93121  0.37398  0.53738  1.0000
  H   H1230     1.0  0.96405  0.33696  0.64239  1.0000
  H   H1231     1.0  0.87462  0.38893  0.40431  1.0000
  C   C1203     1.0  0.97899  0.25587  0.54481  1.0000
  H   H1232     1.0  0.93347  0.40143  0.42137  1.0000
  C   C1204     1.0  0.95249  0.45393  0.37491  1.0000
  C   C1205     1.0  0.92734  0.24631  0.57312  1.0000
  H   H1233     1.0  0.95518  0.37791  0.54333  1.0000
  H   H1234     1.0  0.95869  0.35829  0.53372  1.0000
  H   H1235     1.0  0.87056  0.31575  0.45297  1.0000
  H   H1236     1.0  0.95461  0.45016  0.40294  1.0000
  C   C1206     1.0  0.97083  0.34215  0.62851  1.0000
  H   H1237     1.0  0.92825  0.37094  0.56621  1.0000
  C   C1207     1.0  0.89346  0.37511  0.54543  1.0000
  C   C1208     1.0  0.87859  0.41546  0.40372  1.0000
  H   H1238     1.0  0.87876  0.37535  0.54864  1.0000
  S   S407      1.0  0.94854  0.46141  0.33921  1.0000
  H   H1239     1.0  0.94749  0.28359  0.52127  1.0000
  C   C1209     1.0  0.96108  0.39962  0.59124  1.0000
  N   N103      1.0  0.96937  0.27158  0.53561  1.0000
  H   H1240     1.0  0.87083  0.29775  0.44287  1.0000
  C   C1210     1.0  0.97648  0.46645  0.35147  1.0000
  N   N104      1.0  0.86366  0.29186  0.47219  1.0000
  C   C1211     1.0  0.86251  0.27421  0.47393  1.0000
  C   C1212     1.0  0.86441  0.29769  0.48708  1.0000
  C   C1213     1.0  0.86258  0.26177  0.49081  1.0000
  C   C1214     1.0  0.86484  0.28554  0.50406  1.0000
  C   C1215     1.0  0.86391  0.26749  0.50591  1.0000
  H   H1241     1.0  0.93921  0.25414  0.52452  1.0000
  C   C1216     1.0  0.95221  0.38769  0.62383  1.0000
  H   H1242     1.0  0.86485  0.31177  0.48589  1.0000
  C   C1217     1.0  0.84862  0.28453  0.56382  1.0000
  H   H1243     1.0  0.86602  0.29010  0.51568  1.0000
  H   H1244     1.0  0.96301  0.25969  0.47178  1.0000
  H   H1245     1.0  0.88385  0.27444  0.61733  1.0000
  C   C1218     1.0  0.96823  0.39116  0.62613  1.0000
  C   C1219     1.0  0.85844  0.29622  0.58495  1.0000
  C   C1220     1.0  0.86332  0.30473  0.45445  1.0000
  H   H1246     1.0  0.98614  0.41492  0.44269  1.0000
  H   H1247     1.0  0.95039  0.33855  0.61660  1.0000
  S   S408      1.0  0.90394  0.45968  0.37906  1.0000
  H   H1248     1.0  0.84881  0.31100  0.45313  1.0000
  C   C1221     1.0  0.98464  0.46746  0.36517  1.0000
  C   C1222     1.0  0.90360  0.37634  0.52734  1.0000
  S   S409      1.0  0.87390  0.42522  0.38175  1.0000
  Fe  Fe201     1.0  0.88348  0.45161  0.36883  1.0000
  H   H1249     1.0  0.94285  0.38141  0.63558  1.0000
  C   C1223     1.0  0.91561  0.24184  0.56470  1.0000
  N   N105      1.0  0.98043  0.39851  0.61130  1.0000
  H   H1250     1.0  0.98250  0.27825  0.57892  1.0000
  C   C1224     1.0  0.97534  0.33893  0.50247  1.0000
  S   S410      1.0  0.98564  0.46479  0.40096  1.0000
  C   C1225     1.0  0.92139  0.37265  0.55518  1.0000
  H   H1251     1.0  0.98115  0.32690  0.51169  1.0000
  H   H1252     1.0  0.98043  0.31111  0.56322  1.0000
  C   C1226     1.0  0.90238  0.37330  0.55946  1.0000
  C   C1227     1.0  0.86527  0.26412  0.58736  1.0000
  C   C1228     1.0  0.87619  0.27639  0.60684  1.0000
  Fe  Fe202     1.0  0.91772  0.46677  0.34946  1.0000
  C   C1229     1.0  0.87491  0.26135  0.60114  1.0000
  C   C1230     1.0  0.97686  0.40307  0.59407  1.0000
  C   C1231     1.0  0.90661  0.25359  0.47538  1.0000
  S   S411      1.0  0.91447  0.34288  0.60859  1.0000
  C   C1232     1.0  0.97509  0.37028  0.48590  1.0000
  H   H1253     1.0  0.85213  0.30988  0.57862  1.0000
  H   H1254     1.0  0.93669  0.38861  0.60420  1.0000
  C   C1233     1.0  0.86776  0.29396  0.59883  1.0000
  C   C1234     1.0  0.96004  0.46023  0.35633  1.0000
  C   C1235     1.0  0.95075  0.25441  0.52985  1.0000
  C   C1236     1.0  0.92262  0.37556  0.52355  1.0000
  H   H1255     1.0  0.98257  0.47111  0.33712  1.0000
  H   H1256     1.0  0.93044  0.37625  0.50948  1.0000
  H   H1257     1.0  0.93896  0.42396  0.34317  1.0000
  H   H1258     1.0  0.99360  0.41462  0.61944  1.0000
  H   H1259     1.0  0.91266  0.41012  0.36315  1.0000
  Fe  Fe203     1.0  0.93227  0.29693  0.59177  1.0000
  H   H1260     1.0  0.99206  0.43707  0.43396  1.0000
  S   S412      1.0  0.86442  0.47938  0.36646  1.0000
  Fe  Fe204     1.0  0.88148  0.48482  0.33773  1.0000
  H   H1261     1.0  0.86439  0.25795  0.51900  1.0000
  H   H1262     1.0  0.85623  0.29262  0.55129  1.0000
  H   H1263     1.0  0.88173  0.24766  0.60700  1.0000
  C   C1237     1.0  0.98732  0.34781  0.62525  1.0000
  H   H1264     1.0  0.96182  0.29944  0.53761  1.0000
  H   H1265     1.0  0.97113  0.38741  0.63977  1.0000
  H   H1266     1.0  0.99400  0.35466  0.50337  1.0000
  C   C1238     1.0  0.99631  0.42296  0.44190  1.0000
  H   H1267     1.0  0.98045  0.29392  0.51841  1.0000
  H   H1268     1.0  0.95869  0.40267  0.57744  1.0000
  S   S413      1.0  0.88698  0.25058  0.54656  1.0000
  C   C1239     1.0  0.95277  0.24279  0.46074  1.0000
  H   H1269     1.0  0.94218  0.47993  0.41554  1.0000
  H   H1270     1.0  0.95648  0.30630  0.65071  1.0000
  H   H1271     1.0  0.98637  0.40912  0.58232  1.0000
  H   H1272     1.0  0.99698  0.47287  0.36123  1.0000
  H   H1273     1.0  0.99385  0.36279  0.57869  1.0000
  H   H1274     1.0  0.98998  0.25627  0.55080  1.0000
  C   C1240     1.0  0.99088  0.28615  0.58136  1.0000
  C   C1241     1.0  0.98965  0.30453  0.57260  1.0000
  C   C1242     1.0  0.97468  0.23905  0.54683  1.0000
  C   C1243     1.0  0.96054  0.23830  0.53920  1.0000
  H   H1275     1.0  0.99575  0.42405  0.45608  1.0000
  S   S414      1.0  0.99716  0.34517  0.64397  1.0000
  C   C1244     1.0  0.99544  0.35560  0.60730  1.0000
  C   C1245     1.0  0.99714  0.40193  0.61409  1.0000
  S   S415      1.0  0.81177  0.46007  0.95075  1.0000
  N   N106      1.0  0.95891  0.30437  0.67778  1.0000
  C   C1246     1.0  0.86082  0.48072  0.90676  1.0000
  S   S416      1.0  0.77150  0.47722  0.97511  1.0000
  Fe  Fe205     1.0  0.57358  0.33800  0.95710  1.0000
  S   S417      1.0  0.56031  0.36763  0.95543  1.0000
  S   S418      1.0  0.60385  0.32592  0.94870  1.0000
  Fe  Fe206     1.0  0.53709  0.32581  0.97193  1.0000
  S   S419      1.0  0.52046  0.35442  0.97227  1.0000
  C   C1247     1.0  0.96016  0.45297  0.71999  1.0000
  Fe  Fe207     1.0  0.53890  0.36169  0.94467  1.0000
  S   S420      1.0  0.52832  0.38168  0.92100  1.0000
  C   C1248     1.0  0.57212  0.40695  0.95590  1.0000
  Fe  Fe208     1.0  0.96491  0.47031  0.82005  1.0000
  S   S421      1.0  0.55392  0.33284  0.94336  1.0000
  S   S422      1.0  0.52318  0.30184  0.98315  1.0000
  H   H1276     1.0  0.73528  0.41190  0.91244  1.0000
  C   C1249     1.0  0.92314  0.33936  0.66135  1.0000
  Fe  Fe209     1.0  0.66358  0.39392  0.94796  1.0000
  C   C1250     1.0  0.94322  0.31492  0.71126  1.0000
  S   S423      1.0  0.66516  0.37163  0.93385  1.0000
  Fe  Fe210     1.0  0.68197  0.42584  0.94160  1.0000
  H   H1277     1.0  0.54436  0.31564  0.90698  1.0000
  S   S424      1.0  0.70151  0.44305  0.92230  1.0000
  H   H1278     1.0  0.84257  0.46292  0.87507  1.0000
  Fe  Fe211     1.0  0.67315  0.40239  0.97960  1.0000
  H   H1279     1.0  0.74361  0.41637  0.96458  1.0000
  S   S425      1.0  0.69036  0.39583  0.95289  1.0000
  S   S426      1.0  0.65669  0.42352  0.93414  1.0000
  N   N107      1.0  0.70592  0.39066  0.90511  1.0000
  Fe  Fe212     1.0  0.92875  0.38215  0.70227  1.0000
  S   S427      1.0  0.93060  0.40507  0.67725  1.0000
  S   S428      1.0  0.91448  0.35894  0.70770  1.0000
  Fe  Fe213     1.0  0.94830  0.39734  0.72241  1.0000
  S   S429      1.0  0.95144  0.42126  0.69922  1.0000
  Fe  Fe214     1.0  0.78173  0.46277  0.95168  1.0000
  Fe  Fe215     1.0  0.92247  0.42281  0.69801  1.0000
  S   S430      1.0  0.90389  0.45072  0.69661  1.0000
  H   H1280     1.0  0.69378  0.40316  0.88182  1.0000
  S   S431      1.0  0.91838  0.40034  0.72290  1.0000
  C   C1251     1.0  0.74004  0.42744  0.95332  1.0000
  H   H1281     1.0  0.88893  0.46888  0.90995  1.0000
  S   S432      1.0  0.95447  0.47840  0.79400  1.0000
  C   C1252     1.0  0.88017  0.47661  0.90040  1.0000
  Fe  Fe216     1.0  0.93156  0.46428  0.81015  1.0000
  C   C1253     1.0  0.94095  0.45883  0.72225  1.0000
  S   S433      1.0  0.91724  0.44998  0.79839  1.0000
  H   H1282     1.0  0.74521  0.38084  0.93093  1.0000
  H   H1283     1.0  0.49887  0.36397  0.94397  1.0000
  C   C1254     1.0  0.73436  0.38349  0.92348  1.0000
  S   S434      1.0  0.94376  0.45341  0.83520  1.0000
  S   S435      1.0  0.96238  0.39627  0.74484  1.0000
  H   H1284     1.0  0.71022  0.47406  0.95641  1.0000
  C   C1255     1.0  0.51074  0.35441  0.90223  1.0000
  C   C1256     1.0  0.71440  0.40432  0.90406  1.0000
  C   C1257     1.0  0.49895  0.32851  0.90474  1.0000
  C   C1258     1.0  0.72882  0.40092  0.91310  1.0000
  Fe  Fe217     1.0  0.95945  0.40142  0.68089  1.0000
  C   C1259     1.0  0.91309  0.34772  0.69131  1.0000
  C   C1260     1.0  0.90280  0.33412  0.69764  1.0000
  C   C1261     1.0  0.61451  0.46048  0.98218  1.0000
  H   H1285     1.0  0.54545  0.40731  0.97456  1.0000
  H   H1286     1.0  0.72936  0.35619  0.93304  1.0000
  H   H1287     1.0  0.96834  0.44693  0.70840  1.0000
  H   H1288     1.0  0.89502  0.33187  0.71172  1.0000
  H   H1289     1.0  0.60033  0.40646  0.94096  1.0000
  C   C1262     1.0  0.69524  0.47647  0.95929  1.0000
  C   C1263     1.0  0.90330  0.32270  0.68627  1.0000
  H   H1290     1.0  0.90399  0.41946  0.87981  1.0000
  H   H1291     1.0  0.94053  0.28609  0.68667  1.0000
  C   C1264     1.0  0.58316  0.27957  0.95681  1.0000
  H   H1292     1.0  0.75446  0.46503  0.92505  1.0000
  C   C1265     1.0  0.93777  0.30105  0.70721  1.0000
  C   C1266     1.0  0.93045  0.46296  0.66766  1.0000
  Fe  Fe218     1.0  0.80125  0.47686  0.97268  1.0000
  C   C1267     1.0  0.69049  0.39479  0.89593  1.0000
  C   C1268     1.0  0.72550  0.36968  0.92464  1.0000
  H   H1293     1.0  0.58023  0.26228  0.94066  1.0000
  C   C1269     1.0  0.94999  0.41142  0.75955  1.0000
  C   C1270     1.0  0.95897  0.41575  0.77081  1.0000
  C   C1271     1.0  0.94913  0.42768  0.78276  1.0000
  C   C1272     1.0  0.93020  0.43497  0.78372  1.0000
  C   C1273     1.0  0.92127  0.43057  0.77252  1.0000
  C   C1274     1.0  0.93118  0.41906  0.76027  1.0000
  H   H1294     1.0  0.70402  0.36285  0.91676  1.0000
  H   H1295     1.0  0.95610  0.43099  0.79140  1.0000
  C   C1275     1.0  0.53091  0.32442  0.90572  1.0000
  H   H1296     1.0  0.92414  0.41576  0.75171  1.0000
  C   C1276     1.0  0.86046  0.46286  0.84813  1.0000
  C   C1277     1.0  0.59613  0.40981  0.96872  1.0000
  H   H1297     1.0  0.56190  0.24400  0.96724  1.0000
  H   H1298     1.0  0.70979  0.41808  0.89652  1.0000
  H   H1299     1.0  0.59681  0.48427  0.96923  1.0000
  H   H1300     1.0  0.91690  0.43723  0.86870  1.0000
  H   H1301     1.0  0.50875  0.36904  0.90070  1.0000
  C   C1278     1.0  0.72026  0.44231  0.93154  1.0000
  C   C1279     1.0  0.72468  0.42841  0.94642  1.0000
  C   C1280     1.0  0.92303  0.35063  0.67299  1.0000
  C   C1281     1.0  0.75080  0.44065  0.94569  1.0000
  C   C1282     1.0  0.74611  0.45490  0.93111  1.0000
  C   C1283     1.0  0.73102  0.45555  0.92385  1.0000
  H   H1302     1.0  0.71652  0.41812  0.95240  1.0000
  C   C1284     1.0  0.68482  0.47822  0.97681  1.0000
  C   C1285     1.0  0.95654  0.32350  0.69840  1.0000
  H   H1303     1.0  0.86766  0.44627  0.89144  1.0000
  C   C1286     1.0  0.62005  0.33947  0.94514  1.0000
  C   C1287     1.0  0.63791  0.33381  0.93505  1.0000
  C   C1288     1.0  0.65140  0.34390  0.93179  1.0000
  C   C1289     1.0  0.64738  0.35960  0.93890  1.0000
  C   C1290     1.0  0.62957  0.36530  0.94927  1.0000
  C   C1291     1.0  0.61581  0.35532  0.95223  1.0000
  H   H1304     1.0  0.64132  0.32159  0.92959  1.0000
  H   H1305     1.0  0.66508  0.33939  0.92379  1.0000
  H   H1306     1.0  0.62642  0.37732  0.95494  1.0000
  H   H1307     1.0  0.64209  0.48532  0.96874  1.0000
  C   C1292     1.0  0.91390  0.48339  0.68835  1.0000
  H   H1308     1.0  0.98359  0.44980  0.73143  1.0000
  C   C1293     1.0  0.95806  0.46239  0.74782  1.0000
  C   C1294     1.0  0.56694  0.25492  0.96917  1.0000
  H   H1309     1.0  0.93646  0.31969  0.72393  1.0000
  H   H1310     1.0  0.90488  0.46504  0.73227  1.0000
  H   H1311     1.0  0.93102  0.36111  0.66803  1.0000
  C   C1295     1.0  0.65804  0.48294  0.93411  1.0000
  H   H1312     1.0  0.90326  0.47080  0.75360  1.0000
  H   H1313     1.0  0.60209  0.35968  0.96022  1.0000
  S   S436      1.0  0.95842  0.37696  0.70416  1.0000
  C   C1296     1.0  0.91674  0.46685  0.68310  1.0000
  H   H1314     1.0  0.89596  0.31169  0.69167  1.0000
  H   H1315     1.0  0.93270  0.45011  0.66362  1.0000
  H   H1316     1.0  0.69420  0.47774  0.93154  1.0000
  C   C1297     1.0  0.52898  0.26378  0.94506  1.0000
  C   C1298     1.0  0.53645  0.27942  0.93828  1.0000
  C   C1299     1.0  0.53463  0.29126  0.94980  1.0000
  C   C1300     1.0  0.52570  0.28731  0.96831  1.0000
  C   C1301     1.0  0.51855  0.27149  0.97521  1.0000
  C   C1302     1.0  0.52020  0.25975  0.96363  1.0000
  H   H1317     1.0  0.54365  0.28233  0.92405  1.0000
  H   H1318     1.0  0.54022  0.30333  0.94435  1.0000
  H   H1319     1.0  0.56756  0.40522  0.94452  1.0000
  S   S437      1.0  0.77065  0.43813  0.95400  1.0000
  H   H1320     1.0  0.90644  0.44395  0.84035  1.0000
  C   C1303     1.0  0.87853  0.45752  0.83841  1.0000
  H   H1321     1.0  0.90084  0.43894  0.88987  1.0000
  S   S438      1.0  0.66672  0.43270  0.96879  1.0000
  Fe  Fe219     1.0  0.54311  0.35793  0.98303  1.0000
  H   H1322     1.0  0.67784  0.40234  0.90403  1.0000
  C   C1304     1.0  0.68616  0.47820  0.94536  1.0000
  N   N108      1.0  0.66732  0.48088  0.94896  1.0000
  H   H1323     1.0  0.90662  0.43612  0.77325  1.0000
  H   H1324     1.0  0.50492  0.41582  0.90821  1.0000
  N   N109      1.0  0.88854  0.44435  0.86688  1.0000
  C   C1305     1.0  0.89246  0.44810  0.84806  1.0000
  C   C1306     1.0  0.87078  0.44916  0.87652  1.0000
  H   H1325     1.0  0.51509  0.24739  0.96920  1.0000
  H   H1326     1.0  0.97443  0.32495  0.67167  1.0000
  C   C1307     1.0  0.98081  0.43900  0.66259  1.0000
  C   C1308     1.0  0.93889  0.46846  0.74946  1.0000
  S   S439      1.0  0.91246  0.47575  0.87416  1.0000
  S   S440      1.0  0.98554  0.40383  0.65952  1.0000
  C   C1309     1.0  0.90326  0.43437  0.87681  1.0000
  H   H1327     1.0  0.78968  0.42241  0.98325  1.0000
  C   C1310     1.0  0.71118  0.37354  0.91536  1.0000
  H   H1328     1.0  0.72772  0.46630  0.91226  1.0000
  H   H1329     1.0  0.92680  0.29492  0.71676  1.0000
  Fe  Fe220     1.0  0.92642  0.47935  0.84394  1.0000
  C   C1311     1.0  0.96644  0.29935  0.65979  1.0000
  H   H1330     1.0  0.96452  0.46335  0.75821  1.0000
  C   C1312     1.0  0.96873  0.45466  0.73293  1.0000
  C   C1313     1.0  0.52819  0.34328  0.90369  1.0000
  C   C1314     1.0  0.57720  0.26523  0.95424  1.0000
  C   C1315     1.0  0.99372  0.48008  0.84445  1.0000
  C   C1316     1.0  0.99269  0.42175  0.66329  1.0000
  C   C1317     1.0  0.60488  0.47876  0.97972  1.0000
  H   H1331     1.0  0.53943  0.34931  0.90346  1.0000
  S   S441      1.0  0.53123  0.24952  0.93002  1.0000
  C   C1318     1.0  0.91372  0.32499  0.66823  1.0000
  Fe  Fe221     1.0  0.64217  0.42756  0.96259  1.0000
  H   H1332     1.0  0.64475  0.47830  0.93957  1.0000
  H   H1333     1.0  0.61035  0.41057  0.96699  1.0000
  H   H1334     1.0  0.59103  0.28785  0.94531  1.0000
  C   C1319     1.0  0.96433  0.31798  0.68165  1.0000
  H   H1335     1.0  0.93438  0.45706  0.71233  1.0000
  H   H1336     1.0  0.85473  0.47614  0.92111  1.0000
  C   C1320     1.0  0.94563  0.29609  0.69019  1.0000
  H   H1337     1.0  0.97352  0.40985  0.77030  1.0000
  C   C1321     1.0  0.85649  0.45854  0.86731  1.0000
  N   N110      1.0  0.93056  0.46632  0.73693  1.0000
  H   H1338     1.0  0.68725  0.38211  0.89481  1.0000
  H   H1339     1.0  0.97524  0.46566  0.66878  1.0000
  H   H1340     1.0  0.97977  0.47796  0.84991  1.0000
  C   C1322     1.0  0.91048  0.47280  0.73885  1.0000
  C   C1323     1.0  0.88825  0.48226  0.88175  1.0000
  C   C1324     1.0  0.57877  0.28335  0.97436  1.0000
  H   H1341     1.0  0.84960  0.47042  0.84080  1.0000
  S   S442      1.0  0.55798  0.32858  0.98570  1.0000
  C   C1325     1.0  0.59048  0.40765  0.95389  1.0000
  H   H1342     1.0  0.96025  0.33484  0.70111  1.0000
  C   C1326     1.0  0.55967  0.40832  0.97267  1.0000
  C   C1327     1.0  0.98468  0.45245  0.66902  1.0000
  H   H1343     1.0  0.93063  0.47433  0.76116  1.0000
  S   S443      1.0  0.61470  0.44704  0.96725  1.0000
  H   H1344     1.0  0.88182  0.46072  0.82347  1.0000
  S   S444      1.0  0.91692  0.30774  0.65615  1.0000
  S   S445      1.0  0.64703  0.39772  0.97594  1.0000
  H   H1345     1.0  0.99116  0.39353  0.69888  1.0000
  H   H1346     1.0  0.51810  0.30229  0.90782  1.0000
  N   N111      1.0  0.58389  0.41103  0.98515  1.0000
  C   C1328     1.0  0.50416  0.38933  0.92601  1.0000
  C   C1329     1.0  0.51623  0.31695  0.90618  1.0000
  H   H1347     1.0  0.90334  0.48643  0.70029  1.0000
  C   C1330     1.0  0.94107  0.47582  0.65728  1.0000
  H   H1348     1.0  0.96829  0.44172  0.65766  1.0000
  C   C1331     1.0  0.66561  0.48120  0.98031  1.0000
  H   H1349     1.0  0.69983  0.42041  0.98372  1.0000
  H   H1350     1.0  0.66680  0.47449  0.92406  1.0000
  H   H1351     1.0  0.58347  0.29456  0.97615  1.0000
  H   H1352     1.0  0.96872  0.28435  0.66122  1.0000
  C   C1332     1.0  0.65702  0.48267  0.96608  1.0000
  S   S446      1.0  0.99582  0.46224  0.81730  1.0000
  H   H1353     1.0  0.97991  0.30335  0.65304  1.0000
  C   C1333     1.0  0.60702  0.62033  0.08064  1.0000
  H   H1354     1.0  0.88339  0.49315  0.08537  1.0000
  H   H1355     1.0  0.89109  0.51791  0.09114  1.0000
  C   C1334     1.0  0.65273  0.50682  0.07215  1.0000
  C   C1335     1.0  0.54893  0.64144  0.04851  1.0000
  H   H1356     1.0  0.55318  0.63808  0.01018  1.0000
  H   H1357     1.0  0.85685  0.53342  0.03326  1.0000
  C   C1336     1.0  0.56430  0.64508  0.05215  1.0000
  H   H1358     1.0  0.58110  0.64700  0.09435  1.0000
  Fe  Fe222     1.0  0.90031  0.53931  0.18137  1.0000
  S   S447      1.0  0.92395  0.51485  0.18493  1.0000
  S   S448      1.0  0.87948  0.54758  0.16299  1.0000
  Fe  Fe223     1.0  0.90637  0.55440  0.21159  1.0000
  S   S449      1.0  0.92937  0.53070  0.21814  1.0000
  S   S450      1.0  0.90083  0.57835  0.22481  1.0000
  Fe  Fe224     1.0  0.93934  0.53455  0.18770  1.0000
  S   S451      1.0  0.96952  0.53599  0.17715  1.0000
  Fe  Fe225     1.0  0.91205  0.51348  0.21515  1.0000
  H   H1359     1.0  0.57041  0.64964  0.12700  1.0000
  S   S452      1.0  0.91696  0.55910  0.18113  1.0000
  S   S453      1.0  0.88764  0.53686  0.21163  1.0000
  C   C1337     1.0  0.88325  0.52851  0.08153  1.0000
  H   H1360     1.0  0.91388  0.58855  0.27928  1.0000
  C   C1338     1.0  0.58059  0.63772  0.12324  1.0000
  Fe  Fe226     1.0  0.65250  0.57815  0.09268  1.0000
  S   S454      1.0  0.64982  0.56940  0.12318  1.0000
  S   S455      1.0  0.62999  0.57516  0.08123  1.0000
  Fe  Fe227     1.0  0.68842  0.58963  0.08635  1.0000
  S   S456      1.0  0.68854  0.58229  0.11624  1.0000
  S   S457      1.0  0.71273  0.59994  0.06715  1.0000
  Fe  Fe228     1.0  0.68012  0.55712  0.11616  1.0000
  Fe  Fe229     1.0  0.65837  0.59549  0.12031  1.0000
  S   S458      1.0  0.64536  0.61098  0.14291  1.0000
  S   S459      1.0  0.68216  0.56340  0.08580  1.0000
  S   S460      1.0  0.65879  0.60533  0.09021  1.0000
  S   S461      1.0  0.82713  0.53709  0.08293  1.0000
  Fe  Fe230     1.0  0.83170  0.51256  0.10588  1.0000
  S   S462      1.0  0.78315  0.57192  0.10253  1.0000
  C   C1339     1.0  0.68599  0.51299  0.12521  1.0000
  S   S463      1.0  0.80365  0.52029  0.12372  1.0000
  H   H1361     1.0  0.50586  0.71283  0.04337  1.0000
  S   S464      1.0  0.82014  0.52384  0.04060  1.0000
  H   H1362     1.0  0.90746  0.59825  0.24793  1.0000
  S   S465      1.0  0.50363  0.70020  0.99904  1.0000
  S   S466      1.0  0.51741  0.65278  0.03485  1.0000
  C   C1340     1.0  0.57058  0.70744  0.01203  1.0000
  H   H1363     1.0  0.87091  0.53601  0.09009  1.0000
  S   S467      1.0  0.58385  0.66805  0.05561  1.0000
  S   S468      1.0  0.59562  0.69959  0.07979  1.0000
  C   C1341     1.0  0.53399  0.65580  0.04464  1.0000
  N   N112      1.0  0.59893  0.61851  0.00399  1.0000
  H   H1364     1.0  0.55565  0.71061  0.01876  1.0000
  C   C1342     1.0  0.56426  0.66292  0.05272  1.0000
  C   C1343     1.0  0.54884  0.67696  0.05003  1.0000
  C   C1344     1.0  0.53397  0.67349  0.04551  1.0000
  C   C1345     1.0  0.86318  0.52446  0.04436  1.0000
  C   C1346     1.0  0.86998  0.53163  0.05526  1.0000
  C   C1347     1.0  0.65996  0.50377  0.12121  1.0000
  H   H1365     1.0  0.52287  0.68466  0.04180  1.0000
  C   C1348     1.0  0.60777  0.60822  0.11314  1.0000
  S   S469      1.0  0.55814  0.71904  0.06251  1.0000
  N   N113      1.0  0.65097  0.49040  0.05070  1.0000
  H   H1366     1.0  0.88432  0.53450  0.31101  1.0000
  H   H1367     1.0  0.74105  0.53182  0.09906  1.0000
  C   C1349     1.0  0.62952  0.63209  0.13942  1.0000
  C   C1350     1.0  0.62646  0.64162  0.12195  1.0000
  C   C1351     1.0  0.61275  0.65794  0.12016  1.0000
  C   C1352     1.0  0.60211  0.66458  0.13585  1.0000
  C   C1353     1.0  0.60554  0.65521  0.15314  1.0000
  C   C1354     1.0  0.61919  0.63908  0.15490  1.0000
  H   H1368     1.0  0.63452  0.63637  0.10992  1.0000
  H   H1369     1.0  0.61025  0.66518  0.10674  1.0000
  C   C1355     1.0  0.98125  0.64371  0.27655  1.0000
  H   H1370     1.0  0.62158  0.63184  0.16840  1.0000
  C   C1356     1.0  0.73235  0.59181  0.07687  1.0000
  C   C1357     1.0  0.74471  0.60310  0.07371  1.0000
  C   C1358     1.0  0.76017  0.59699  0.08176  1.0000
  C   C1359     1.0  0.76379  0.57927  0.09240  1.0000
  C   C1360     1.0  0.75160  0.56781  0.09536  1.0000
  C   C1361     1.0  0.73570  0.57419  0.08788  1.0000
  H   H1371     1.0  0.74213  0.61675  0.06530  1.0000
  H   H1372     1.0  0.76950  0.60592  0.07951  1.0000
  H   H1373     1.0  0.75421  0.55424  0.10383  1.0000
  H   H1374     1.0  0.72607  0.56550  0.09048  1.0000
  C   C1362     1.0  0.65090  0.57245  0.02089  1.0000
  C   C1363     1.0  0.63384  0.56821  0.03050  1.0000
  C   C1364     1.0  0.62724  0.56947  0.04898  1.0000
  C   C1365     1.0  0.63778  0.57480  0.05788  1.0000
  C   C1366     1.0  0.65469  0.57932  0.04820  1.0000
  C   C1367     1.0  0.66121  0.57821  0.02968  1.0000
  H   H1375     1.0  0.62582  0.56372  0.02388  1.0000
  H   H1376     1.0  0.61415  0.56595  0.05651  1.0000
  H   H1377     1.0  0.66275  0.58371  0.05496  1.0000
  H   H1378     1.0  0.67433  0.58167  0.02224  1.0000
  Fe  Fe231     1.0  0.79832  0.54337  0.09986  1.0000
  H   H1379     1.0  0.73342  0.51111  0.10520  1.0000
  C   C1368     1.0  0.88078  0.49783  0.29279  1.0000
  C   C1369     1.0  0.87395  0.53471  0.15031  1.0000
  C   C1370     1.0  0.88481  0.51763  0.14746  1.0000
  C   C1371     1.0  0.87966  0.50789  0.13743  1.0000
  C   C1372     1.0  0.86363  0.51510  0.13021  1.0000
  C   C1373     1.0  0.85282  0.53218  0.13302  1.0000
  C   C1374     1.0  0.85800  0.54193  0.14298  1.0000
  H   H1380     1.0  0.89723  0.51201  0.15287  1.0000
  H   H1381     1.0  0.62782  0.61085  0.00428  1.0000
  H   H1382     1.0  0.84049  0.53794  0.12747  1.0000
  H   H1383     1.0  0.84956  0.55517  0.14503  1.0000
  C   C1375     1.0  0.94644  0.51659  0.28349  1.0000
  H   H1384     1.0  0.81565  0.52763  0.00423  1.0000
  C   C1376     1.0  0.72073  0.49650  0.00597  1.0000
  C   C1377     1.0  0.97856  0.54417  0.19128  1.0000
  C   C1378     1.0  0.96671  0.55300  0.20504  1.0000
  C   C1379     1.0  0.97386  0.56012  0.21574  1.0000
  C   C1380     1.0  0.60209  0.72665  0.02722  1.0000
  Fe  Fe232     1.0  0.81607  0.51959  0.07150  1.0000
  H   H1385     1.0  0.95193  0.55512  0.20698  1.0000
  H   H1386     1.0  0.96447  0.56720  0.22611  1.0000
  C   C1381     1.0  0.94513  0.60046  0.19657  1.0000
  H   H1387     1.0  0.94509  0.54071  0.24716  1.0000
  Fe  Fe233     1.0  0.62778  0.52347  0.99316  1.0000
  S   S470      1.0  0.61582  0.55193  0.99776  1.0000
  H   H1388     1.0  0.55183  0.60679  0.00947  1.0000
  H   H1389     1.0  0.76143  0.51662  0.14727  1.0000
  H   H1390     1.0  0.89168  0.52022  0.24832  1.0000
  Fe  Fe234     1.0  0.57626  0.69622  0.10737  1.0000
  C   C1382     1.0  0.86737  0.49458  0.22945  1.0000
  S   S471      1.0  0.98635  0.59010  0.30198  1.0000
  H   H1391     1.0  0.64545  0.50675  0.12091  1.0000
  C   C1383     1.0  0.89098  0.50899  0.26004  1.0000
  C   C1384     1.0  0.65307  0.50532  0.03672  1.0000
  C   C1385     1.0  0.58141  0.59679  0.00537  1.0000
  H   H1392     1.0  0.97947  0.58081  0.15623  1.0000
  C   C1386     1.0  0.60193  0.60929  0.13167  1.0000
  H   H1393     1.0  0.85258  0.50390  0.26082  1.0000
  C   C1387     1.0  0.99293  0.55881  0.21259  1.0000
  C   C1388     1.0  0.91218  0.56063  0.28267  1.0000
  C   C1389     1.0  0.90885  0.54812  0.27459  1.0000
  C   C1390     1.0  0.90548  0.55355  0.25680  1.0000
  C   C1391     1.0  0.90503  0.57158  0.24712  1.0000
  C   C1392     1.0  0.90797  0.58422  0.25531  1.0000
  C   C1393     1.0  0.91166  0.57872  0.27304  1.0000
  H   H1394     1.0  0.90884  0.53419  0.28204  1.0000
  H   H1395     1.0  0.90297  0.54387  0.25064  1.0000
  C   C1394     1.0  0.65501  0.52205  0.05795  1.0000
  N   N114      1.0  0.73273  0.56637  0.14003  1.0000
  C   C1395     1.0  0.72489  0.55227  0.14093  1.0000
  C   C1396     1.0  0.75070  0.56295  0.14156  1.0000
  C   C1397     1.0  0.73508  0.53419  0.14355  1.0000
  C   C1398     1.0  0.76115  0.54504  0.14455  1.0000
  C   C1399     1.0  0.75333  0.53058  0.14540  1.0000
  C   C1400     1.0  0.72223  0.58531  0.13627  1.0000
  H   H1396     1.0  0.71073  0.55488  0.13952  1.0000
  H   H1397     1.0  0.75726  0.57413  0.13998  1.0000
  H   H1398     1.0  0.72889  0.52306  0.14400  1.0000
  H   H1399     1.0  0.77537  0.54255  0.14573  1.0000
  N   N115      1.0  0.57994  0.72031  0.01454  1.0000
  H   H1400     1.0  0.72755  0.59452  0.14129  1.0000
  H   H1401     1.0  0.72335  0.59034  0.12120  1.0000
  H   H1402     1.0  0.70739  0.58637  0.14326  1.0000
  H   H1403     1.0  0.71170  0.49290  0.12329  1.0000
  H   H1404     1.0  0.61237  0.72200  0.03563  1.0000
  C   C1401     1.0  0.59342  0.71428  0.02455  1.0000
  C   C1402     1.0  0.95115  0.58635  0.17075  1.0000
  N   N116      1.0  0.71467  0.53432  0.00045  1.0000
  C   C1403     1.0  0.73168  0.52369  0.00258  1.0000
  N   N117      1.0  0.85464  0.51048  0.23163  1.0000
  C   C1404     1.0  0.73500  0.50464  0.00528  1.0000
  C   C1405     1.0  0.58831  0.62420  0.13671  1.0000
  H   H1405     1.0  0.69220  0.50117  0.00464  1.0000
  H   H1406     1.0  0.65673  0.53311  0.02896  1.0000
  H   H1407     1.0  0.74296  0.52994  0.00163  1.0000
  H   H1408     1.0  0.60398  0.63381  0.07120  1.0000
  H   H1409     1.0  0.57172  0.70862  0.99714  1.0000
  H   H1410     1.0  0.88817  0.49472  0.13524  1.0000
  C   C1406     1.0  0.61682  0.62323  0.00112  1.0000
  S   S472      1.0  0.93507  0.59892  0.29971  1.0000
  H   H1411     1.0  0.58343  0.64547  0.00632  1.0000
  H   H1412     1.0  0.61837  0.59663  0.10932  1.0000
  H   H1413     1.0  0.86887  0.54628  0.05244  1.0000
  C   C1407     1.0  0.86372  0.50576  0.04842  1.0000
  Fe  Fe235     1.0  0.64482  0.55612  0.98701  1.0000
  H   H1414     1.0  0.57653  0.69301  0.01804  1.0000
  H   H1415     1.0  0.60845  0.59899  0.14195  1.0000
  H   H1416     1.0  0.99504  0.60493  0.23817  1.0000
  H   H1417     1.0  0.93661  0.50494  0.31212  1.0000
  S   S473      1.0  0.91050  0.48705  0.23582  1.0000
  H   H1418     1.0  0.99612  0.59275  0.26141  1.0000
  H   H1419     1.0  0.65636  0.53446  0.06087  1.0000
  H   H1420     1.0  0.59746  0.66032  0.16527  1.0000
  H   H1421     1.0  0.96675  0.53434  0.25450  1.0000
  H   H1422     1.0  0.89227  0.53808  0.07317  1.0000
  H   H1423     1.0  0.96888  0.60611  0.20156  1.0000
  H   H1424     1.0  0.58101  0.58329  0.00430  1.0000
  C   C1408     1.0  0.93874  0.59320  0.18551  1.0000
  H   H1425     1.0  0.96704  0.62275  0.27896  1.0000
  C   C1409     1.0  0.75604  0.49797  0.05630  1.0000
  C   C1410     1.0  0.49881  0.71812  0.05561  1.0000
  N   N118      1.0  0.87726  0.52043  0.06971  1.0000
  H   H1426     1.0  0.59731  0.69990  0.03083  1.0000
  N   N119      1.0  0.97605  0.59375  0.17836  1.0000
  Fe  Fe236     1.0  0.57730  0.72754  0.07407  1.0000
  H   H1427     1.0  0.92426  0.59255  0.18864  1.0000
  C   C1411     1.0  0.99402  0.60051  0.31498  1.0000
  C   C1412     1.0  0.99569  0.59422  0.17443  1.0000
  H   H1428     1.0  0.94947  0.52812  0.28655  1.0000
  N   N120      1.0  0.60051  0.62178  0.09996  1.0000
  S   S474      1.0  0.91669  0.55324  0.30489  1.0000
  H   H1429     1.0  0.52307  0.71075  0.06697  1.0000
  H   H1430     1.0  0.65280  0.50494  0.02293  1.0000
  H   H1431     1.0  0.93559  0.60536  0.20834  1.0000
  C   C1413     1.0  0.81626  0.50822  0.03003  1.0000
  C   C1414     1.0  0.70335  0.50742  0.00410  1.0000
  H   H1432     1.0  0.65845  0.52983  0.12675  1.0000
  S   S475      1.0  0.62213  0.49814  0.01399  1.0000
  S   S476      1.0  0.82305  0.49427  0.09296  1.0000
  C   C1415     1.0  0.56505  0.61001  0.00811  1.0000
  C   C1416     1.0  0.70052  0.52644  0.00138  1.0000
  S   S477      1.0  0.55993  0.72504  0.10248  1.0000
  H   H1433     1.0  0.54907  0.62775  0.04769  1.0000
  Fe  Fe237     1.0  0.52106  0.67248  0.00777  1.0000
  S   S478      1.0  0.55660  0.68511  0.09917  1.0000
  C   C1417     1.0  0.81221  0.50163  0.00244  1.0000
  C   C1418     1.0  0.73446  0.52360  0.09416  1.0000
  C   C1419     1.0  0.87117  0.49443  0.06316  1.0000
  S   S479      1.0  0.58373  0.68392  0.13471  1.0000
  C   C1420     1.0  0.69734  0.49605  0.12248  1.0000
  Fe  Fe238     1.0  0.57469  0.69065  0.07106  1.0000
  C   C1421     1.0  0.74505  0.50306  0.07258  1.0000
  H   H1434     1.0  0.61593  0.63239  0.01027  1.0000
  C   C1422     1.0  0.94466  0.50100  0.26178  1.0000
  C   C1423     1.0  0.66732  0.51686  0.12448  1.0000
  H   H1435     1.0  0.60038  0.61067  0.07788  1.0000
  S   S480      1.0  0.51142  0.72415  0.10068  1.0000
  Fe  Fe239     1.0  0.79449  0.50424  0.10913  1.0000
  C   C1424     1.0  0.96393  0.60081  0.19267  1.0000
  C   C1425     1.0  0.93905  0.50360  0.29802  1.0000
  C   C1426     1.0  0.49944  0.72459  0.08433  1.0000
  H   H1436     1.0  0.57623  0.63416  0.05429  1.0000
  S   S481      1.0  0.78703  0.52797  0.08676  1.0000
  H   H1437     1.0  0.87512  0.52620  0.27909  1.0000
  C   C1427     1.0  0.97879  0.62881  0.27138  1.0000
  N   N121      1.0  0.99134  0.62155  0.25741  1.0000
  S   S482      1.0  0.65997  0.57001  0.99812  1.0000
  C   C1428     1.0  0.81472  0.51382  0.01157  1.0000
  Fe  Fe240     1.0  0.54200  0.71427  0.09166  1.0000
  C   C1429     1.0  0.58689  0.63628  0.10480  1.0000
  C   C1430     1.0  0.88159  0.51233  0.27747  1.0000
  C   C1431     1.0  0.50857  0.71723  0.06878  1.0000
  H   H1438     1.0  0.85419  0.52700  0.24950  1.0000
  H   H1439     1.0  0.54880  0.69073  0.05036  1.0000
  S   S483      1.0  0.69530  0.52960  0.12869  1.0000
  C   C1432     1.0  0.96985  0.58676  0.16734  1.0000
  H   H1440     1.0  0.87444  0.55855  0.30457  1.0000
  H   H1441     1.0  0.94648  0.58018  0.16235  1.0000
  N   N122      1.0  0.74547  0.51893  0.07669  1.0000
  H   H1442     1.0  0.83876  0.53516  0.21840  1.0000
  H   H1443     1.0  0.58422  0.62561  0.15093  1.0000
  H   H1444     1.0  0.62228  0.61521  0.07734  1.0000
  C   C1433     1.0  0.65523  0.52130  0.04008  1.0000
  S   S484      1.0  0.54749  0.68225  0.99963  1.0000
  H   H1445     1.0  0.86028  0.54223  0.30968  1.0000
  N   N123      1.0  0.94935  0.51505  0.26566  1.0000
  H   H1446     1.0  0.77621  0.53461  0.03901  1.0000
  C   C1434     1.0  0.56581  0.62760  0.00847  1.0000
  C   C1435     1.0  0.93465  0.48899  0.29422  1.0000
  H   H1447     1.0  0.61106  0.59115  0.00057  1.0000
  H   H1448     1.0  0.97144  0.64912  0.28791  1.0000
  H   H1449     1.0  0.65241  0.50727  0.08612  1.0000
  C   C1436     1.0  0.87800  0.50203  0.07368  1.0000
  C   C1437     1.0  0.58297  0.63166  0.00634  1.0000
  H   H1450     1.0  0.96397  0.52354  0.23811  1.0000
  S   S485      1.0  0.85791  0.50266  0.11724  1.0000
  C   C1438     1.0  0.75573  0.53063  0.06440  1.0000
  C   C1439     1.0  0.59835  0.60133  0.00322  1.0000
  H   H1451     1.0  0.70774  0.55801  0.01163  1.0000
  H   H1452     1.0  0.75565  0.54349  0.06744  1.0000
  C   C1440     1.0  0.71142  0.55422  0.99802  1.0000
  C   C1441     1.0  0.84846  0.52232  0.21682  1.0000
  C   C1442     1.0  0.95662  0.52909  0.25065  1.0000
  H   H1453     1.0  0.77650  0.50523  0.03185  1.0000
  C   C1443     1.0  0.99668  0.65117  0.26735  1.0000
  C   C1444     1.0  0.98906  0.60528  0.25292  1.0000
  C   C1445     1.0  0.84822  0.51547  0.24966  1.0000
  C   C1446     1.0  0.76717  0.52582  0.04816  1.0000
  C   C1447     1.0  0.76738  0.50932  0.04418  1.0000
  H   H1454     1.0  0.94642  0.50002  0.24765  1.0000
  H   H1455     1.0  0.85047  0.52793  0.18747  1.0000
  H   H1456     1.0  0.72032  0.53135  0.09262  1.0000
  C   C1448     1.0  0.85506  0.51834  0.19928  1.0000
  H   H1457     1.0  0.73657  0.49400  0.08217  1.0000
  H   H1458     1.0  0.97422  0.60487  0.25570  1.0000
  H   H1459     1.0  0.74863  0.49631  0.00649  1.0000
  H   H1460     1.0  0.83288  0.51959  0.25314  1.0000
  C   C1449     1.0  0.81513  0.49034  0.03940  1.0000
  H   H1461     1.0  0.69992  0.56139  0.99080  1.0000
  C   C1450     1.0  0.89919  0.49114  0.25776  1.0000
  H   H1462     1.0  0.68705  0.53490  0.99972  1.0000
  C   C1451     1.0  0.86820  0.50226  0.19692  1.0000
  C   C1452     1.0  0.65061  0.49105  0.06828  1.0000
  H   H1463     1.0  0.87371  0.49921  0.18334  1.0000
  H   H1464     1.0  0.85791  0.50017  0.04041  1.0000
  S   S486      1.0  0.77155  0.48954  0.12408  1.0000
  S   S487      1.0  0.86859  0.50237  0.31435  1.0000
  H   H1465     1.0  0.51924  0.72267  0.14231  1.0000
  Fe  Fe241     1.0  0.92519  0.57331  0.31536  1.0000
  C   C1453     1.0  0.87169  0.54539  0.31363  1.0000
  H   H1466     1.0  0.62104  0.63023  0.98656  1.0000
  C   C1454     1.0  0.60647  0.49022  0.99014  1.0000
  H   H1467     1.0  0.54946  0.72616  0.14454  1.0000
  Fe  Fe242     1.0  0.95717  0.58826  0.31603  1.0000
  S   S488      1.0  0.53166  0.73628  0.99294  1.0000
  H   H1468     1.0  0.72389  0.55932  0.98947  1.0000
  C   C1455     1.0  0.93752  0.48764  0.27599  1.0000
  C   C1456     1.0  0.67145  0.48710  0.11788  1.0000
  C   C1457     1.0  0.87445  0.49030  0.21207  1.0000
  H   H1469     1.0  0.81127  0.50605  0.98817  1.0000
  Fe  Fe243     1.0  0.53055  0.70929  0.98834  1.0000
  H   H1470     1.0  0.59954  0.50451  0.98773  1.0000
  C   C1458     1.0  0.52175  0.73630  0.13956  1.0000
  Fe  Fe244     1.0  0.93079  0.57652  0.35139  1.0000
  S   S489      1.0  0.90632  0.58619  0.33836  1.0000
  S   S490      1.0  0.92632  0.56389  0.38139  1.0000
  S   S491      1.0  0.94882  0.63395  0.56906  1.0000
  N   N124      1.0  0.86687  0.54619  0.33311  1.0000
  H   H1471     1.0  0.92779  0.66377  0.35751  1.0000
  S   S492      1.0  0.94134  0.60220  0.33934  1.0000
  C   C1459     1.0  0.85870  0.54683  0.37025  1.0000
  H   H1472     1.0  0.87249  0.56933  0.36171  1.0000
  C   C1460     1.0  0.90346  0.62084  0.60693  1.0000
  H   H1473     1.0  0.86065  0.71687  0.57304  1.0000
  H   H1474     1.0  0.95184  0.68377  0.46279  1.0000
  S   S493      1.0  0.87981  0.50420  0.39598  1.0000
  H   H1475     1.0  0.95421  0.59711  0.58896  1.0000
  C   C1461     1.0  0.97627  0.71722  0.54102  1.0000
  H   H1476     1.0  0.99319  0.51594  0.64086  1.0000
  H   H1477     1.0  0.98476  0.64926  0.54511  1.0000
  H   H1478     1.0  0.95275  0.65917  0.59480  1.0000
  C   C1462     1.0  0.96244  0.51757  0.37072  1.0000
  H   H1479     1.0  0.84721  0.52333  0.37458  1.0000
  H   H1480     1.0  0.98457  0.65262  0.51231  1.0000
  Fe  Fe245     1.0  0.91554  0.68769  0.52754  1.0000
  S   S494      1.0  0.92521  0.71214  0.52800  1.0000
  S   S495      1.0  0.89432  0.69337  0.51062  1.0000
  Fe  Fe246     1.0  0.93729  0.66246  0.55508  1.0000
  S   S496      1.0  0.94861  0.68458  0.55847  1.0000
  C   C1463     1.0  0.98758  0.59748  0.33405  1.0000
  C   C1464     1.0  0.94728  0.71916  0.48265  1.0000
  N   N125      1.0  0.91985  0.72147  0.47234  1.0000
  Fe  Fe247     1.0  0.95296  0.69329  0.52793  1.0000
  S   S497      1.0  0.97948  0.70161  0.51221  1.0000
  S   S498      1.0  0.90800  0.67878  0.55828  1.0000
  S   S499      1.0  0.94406  0.66972  0.52420  1.0000
  S   S500      1.0  0.91855  0.65598  0.44230  1.0000
  C   C1465     1.0  0.89985  0.68112  0.49308  1.0000
  C   C1466     1.0  0.88962  0.68723  0.47931  1.0000
  C   C1467     1.0  0.89520  0.67931  0.46384  1.0000
  C   C1468     1.0  0.91061  0.66475  0.46242  1.0000
  C   C1469     1.0  0.92035  0.65806  0.47658  1.0000
  C   C1470     1.0  0.91510  0.66636  0.49181  1.0000
  H   H1481     1.0  0.87773  0.69854  0.48025  1.0000
  H   H1482     1.0  0.88761  0.68452  0.45295  1.0000
  H   H1483     1.0  0.93228  0.64680  0.47552  1.0000
  H   H1484     1.0  0.92292  0.66140  0.50247  1.0000
  Fe  Fe248     1.0  0.92244  0.67942  0.41840  1.0000
  H   H1485     1.0  0.88934  0.62752  0.61203  1.0000
  H   H1486     1.0  0.85598  0.54669  0.38482  1.0000
  S   S501      1.0  0.94014  0.67539  0.39076  1.0000
  H   H1487     1.0  0.96506  0.52001  0.34175  1.0000
  H   H1488     1.0  0.96967  0.69619  0.47736  1.0000
  C   C1471     1.0  0.93645  0.49701  0.37625  1.0000
  C   C1472     1.0  0.90564  0.68353  0.34644  1.0000
  S   S502      1.0  0.90178  0.49577  0.34522  1.0000
  C   C1473     1.0  0.90903  0.51696  0.63470  1.0000
  H   H1489     1.0  0.87456  0.70848  0.54262  1.0000
  S   S503      1.0  0.90573  0.70151  0.35607  1.0000
  S   S504      1.0  0.90666  0.72094  0.57778  1.0000
  H   H1490     1.0  0.97255  0.52561  0.36878  1.0000
  C   C1474     1.0  0.91491  0.63046  0.59224  1.0000
  C   C1475     1.0  0.85377  0.53369  0.36451  1.0000
  S   S505      1.0  0.89985  0.63866  0.32192  1.0000
  H   H1491     1.0  0.92104  0.67877  0.60070  1.0000
  H   H1492     1.0  0.95482  0.72468  0.48897  1.0000
  H   H1493     1.0  0.89082  0.72525  0.48243  1.0000
  H   H1494     1.0  0.91336  0.56028  0.61438  1.0000
  H   H1495     1.0  0.97544  0.65936  0.35615  1.0000
  H   H1496     1.0  0.88327  0.55988  0.63145  1.0000
  H   H1497     1.0  0.92578  0.63917  0.34362  1.0000
  H   H1498     1.0  0.92657  0.59689  0.39553  1.0000
  H   H1499     1.0  0.98317  0.64971  0.38569  1.0000
  S   S506      1.0  0.93651  0.69976  0.42112  1.0000
  S   S507      1.0  0.98210  0.69947  0.38431  1.0000
  C   C1476     1.0  0.91333  0.54740  0.38539  1.0000
  C   C1477     1.0  0.91137  0.54153  0.37061  1.0000
  C   C1478     1.0  0.90110  0.52826  0.37377  1.0000
  C   C1479     1.0  0.89258  0.52096  0.39168  1.0000
  C   C1480     1.0  0.89419  0.52713  0.40643  1.0000
  C   C1481     1.0  0.90476  0.54017  0.40331  1.0000
  H   H1500     1.0  0.91795  0.54701  0.35672  1.0000
  H   H1501     1.0  0.89959  0.52392  0.36228  1.0000
  H   H1502     1.0  0.88746  0.52163  0.42031  1.0000
  H   H1503     1.0  0.90612  0.54479  0.41476  1.0000
  H   H1504     1.0  0.92093  0.54176  0.60236  1.0000
  C   C1482     1.0  0.91811  0.54518  0.61603  1.0000
  C   C1483     1.0  0.94203  0.65423  0.60593  1.0000
  H   H1505     1.0  0.93885  0.73318  0.42428  1.0000
  C   C1484     1.0  0.90313  0.65565  0.33106  1.0000
  H   H1506     1.0  0.96157  0.71800  0.54374  1.0000
  S   S508      1.0  0.93200  0.72050  0.37916  1.0000
  Fe  Fe249     1.0  0.91531  0.72095  0.40771  1.0000
  N   N126      1.0  0.94072  0.50006  0.39103  1.0000
  C   C1485     1.0  0.87220  0.55883  0.33867  1.0000
  C   C1486     1.0  0.87401  0.53597  0.64871  1.0000
  C   C1487     1.0  0.92794  0.70583  0.46583  1.0000
  H   H1507     1.0  0.92055  0.70056  0.45914  1.0000
  H   H1508     1.0  0.97390  0.73014  0.56319  1.0000
  C   C1488     1.0  0.94580  0.69634  0.46775  1.0000
  H   H1509     1.0  0.90031  0.49269  0.65229  1.0000
  H   H1510     1.0  0.92631  0.48898  0.37827  1.0000
  C   C1489     1.0  0.92422  0.66514  0.60918  1.0000
  C   C1490     1.0  0.98821  0.70988  0.52628  1.0000
  C   C1491     1.0  0.94583  0.63662  0.61676  1.0000
  C   C1492     1.0  0.90092  0.73092  0.47048  1.0000
  H   H1511     1.0  0.95961  0.62810  0.61387  1.0000
  C   C1493     1.0  0.98321  0.67046  0.35199  1.0000
  H   H1512     1.0  0.98953  0.67143  0.33711  1.0000
  C   C1494     1.0  0.91047  0.60282  0.61541  1.0000
  C   C1495     1.0  0.98950  0.68492  0.43653  1.0000
  N   N127      1.0  0.89489  0.64535  0.39011  1.0000
  C   C1496     1.0  0.90629  0.64005  0.40229  1.0000
  C   C1497     1.0  0.89438  0.63349  0.38013  1.0000
  C   C1498     1.0  0.91789  0.62259  0.40441  1.0000
  C   C1499     1.0  0.90582  0.61594  0.38189  1.0000
  C   C1500     1.0  0.91765  0.61050  0.39409  1.0000
  C   C1501     1.0  0.88266  0.66360  0.38841  1.0000
  H   H1513     1.0  0.90648  0.64934  0.41046  1.0000
  H   H1514     1.0  0.88540  0.63766  0.37041  1.0000
  H   H1515     1.0  0.92692  0.61851  0.41406  1.0000
  H   H1516     1.0  0.90559  0.60662  0.37378  1.0000
  C   C1502     1.0  0.94006  0.60382  0.59397  1.0000
  H   H1517     1.0  0.87751  0.66779  0.37546  1.0000
  H   H1518     1.0  0.87064  0.66387  0.40028  1.0000
  H   H1519     1.0  0.89025  0.67405  0.38792  1.0000
  H   H1520     1.0  0.88101  0.67553  0.32021  1.0000
  C   C1503     1.0  0.92861  0.59422  0.60846  1.0000
  Fe  Fe250     1.0  0.92011  0.70184  0.55844  1.0000
  C   C1504     1.0  0.93336  0.62201  0.58597  1.0000
  C   C1505     1.0  0.89268  0.68676  0.33573  1.0000
  H   H1521     1.0  0.92776  0.50208  0.41866  1.0000
  C   C1506     1.0  0.91764  0.66631  0.34934  1.0000
  C   C1507     1.0  0.86801  0.55948  0.35729  1.0000
  C   C1508     1.0  0.99609  0.65362  0.53432  1.0000
  Fe  Fe251     1.0  0.91820  0.69834  0.38003  1.0000
  H   H1522     1.0  0.90958  0.64448  0.58606  1.0000
  H   H1523     1.0  0.95721  0.51226  0.40018  1.0000
  C   C1509     1.0  0.91651  0.65239  0.34145  1.0000
  S   S509      1.0  0.89685  0.59157  0.63522  1.0000
  H   H1524     1.0  0.93385  0.58009  0.61400  1.0000
  C   C1510     1.0  0.87318  0.72229  0.54412  1.0000
  C   C1511     1.0  0.95563  0.70318  0.47604  1.0000
  H   H1525     1.0  0.93123  0.54111  0.62098  1.0000
  S   S510      1.0  0.89943  0.70071  0.40765  1.0000
  H   H1526     1.0  0.85420  0.52322  0.34144  1.0000
  C   C1512     1.0  0.98322  0.72429  0.55192  1.0000
  C   C1513     1.0  0.95816  0.51453  0.35558  1.0000
  N   N128      1.0  0.93222  0.63002  0.63042  1.0000
  H   H1527     1.0  0.97344  0.68356  0.35420  1.0000
  H   H1528     1.0  0.97261  0.67905  0.42175  1.0000
  C   C1514     1.0  0.95363  0.51008  0.38846  1.0000
  H   H1529     1.0  0.88343  0.70005  0.33339  1.0000
  H   H1530     1.0  0.90396  0.63536  0.64465  1.0000
  Fe  Fe252     1.0  0.95223  0.69783  0.39257  1.0000
  C   C1515     1.0  0.98345  0.68583  0.42072  1.0000
  H   H1531     1.0  0.94169  0.50165  0.34669  1.0000
  H   H1532     1.0  0.94824  0.60256  0.63456  1.0000
  H   H1533     1.0  0.92451  0.60517  0.64622  1.0000
  C   C1516     1.0  0.88698  0.54508  0.63573  1.0000
  C   C1517     1.0  0.91476  0.64068  0.63388  1.0000
  C   C1518     1.0  0.91047  0.65835  0.62326  1.0000
  Fe  Fe253     1.0  0.91848  0.61076  0.32429  1.0000
  C   C1519     1.0  0.94502  0.50426  0.35833  1.0000
  S   S511      1.0  0.95126  0.50859  0.64961  1.0000
  C   C1520     1.0  0.99287  0.60655  0.34443  1.0000
  N   N129      1.0  0.90433  0.53556  0.62913  1.0000
  C   C1521     1.0  0.85796  0.53358  0.34577  1.0000
  H   H1534     1.0  0.98333  0.67750  0.44971  1.0000
  H   H1535     1.0  0.89653  0.66665  0.62579  1.0000
  H   H1536     1.0  0.98798  0.60407  0.35921  1.0000
  C   C1522     1.0  0.92914  0.72798  0.48101  1.0000
  Fe  Fe254     1.0  0.88630  0.48791  0.37417  1.0000
  C   C1523     1.0  0.86521  0.72704  0.56115  1.0000
  C   C1524     1.0  0.89132  0.67287  0.32824  1.0000
  S   S512      1.0  0.94375  0.56124  0.64552  1.0000
  C   C1525     1.0  0.99148  0.69547  0.40365  1.0000
  S   S513      1.0  0.94892  0.56161  0.32962  1.0000
  C   C1526     1.0  0.93212  0.49191  0.40977  1.0000
  C   C1527     1.0  0.99597  0.65546  0.51591  1.0000
  H   H1537     1.0  0.87994  0.56833  0.32869  1.0000
  H   H1538     1.0  0.88623  0.73140  0.51603  1.0000
  H   H1539     1.0  0.92281  0.50943  0.62953  1.0000
  C   C1528     1.0  0.93655  0.61175  0.64201  1.0000
  C   C1529     1.0  0.87973  0.73536  0.52912  1.0000
  H   H1540     1.0  0.89809  0.72919  0.45777  1.0000
  H   H1541     1.0  0.97884  0.58782  0.34090  1.0000
  C   C1530     1.0  0.99528  0.65558  0.37990  1.0000
  H   H1542     1.0  0.98563  0.73609  0.38923  1.0000
  C   C1531     1.0  0.89638  0.50741  0.64758  1.0000
  H   H1543     1.0  0.91949  0.48741  0.41010  1.0000
  C   C1532     1.0  0.90671  0.52007  0.75515  1.0000
  H   H1544     1.0  0.79377  0.51404  0.88208  1.0000
  S   S514      1.0  0.58835  0.57734  0.96074  1.0000
  Fe  Fe255     1.0  0.93888  0.53379  0.66099  1.0000
  S   S515      1.0  0.62432  0.52996  0.96413  1.0000
  Fe  Fe256     1.0  0.65269  0.53584  0.95654  1.0000
  S   S516      1.0  0.67642  0.52411  0.93577  1.0000
  H   H1545     1.0  0.68378  0.54890  0.95311  1.0000
  S   S517      1.0  0.64282  0.56553  0.95747  1.0000
  C   C1533     1.0  0.71244  0.53948  0.95473  1.0000
  H   H1546     1.0  0.94825  0.50760  0.72844  1.0000
  H   H1547     1.0  0.55912  0.68457  0.92473  1.0000
  C   C1534     1.0  0.53454  0.67409  0.92974  1.0000
  C   C1535     1.0  0.97623  0.50196  0.71253  1.0000
  H   H1548     1.0  0.76055  0.51639  0.88314  1.0000
  H   H1549     1.0  0.97214  0.50160  0.70030  1.0000
  S   S518      1.0  0.96702  0.58012  0.67006  1.0000
  S   S519      1.0  0.57895  0.66074  0.96006  1.0000
  C   C1536     1.0  0.78754  0.53236  0.90054  1.0000
  H   H1550     1.0  0.95813  0.50675  0.75655  1.0000
  H   H1551     1.0  0.86047  0.54361  0.65431  1.0000
  Fe  Fe257     1.0  0.94540  0.56527  0.67239  1.0000
  S   S520      1.0  0.91521  0.57705  0.68133  1.0000
  H   H1552     1.0  0.73608  0.53614  0.90229  1.0000
  H   H1553     1.0  0.96473  0.53112  0.80541  1.0000
  S   S521      1.0  0.90813  0.54334  0.66842  1.0000
  H   H1554     1.0  0.76772  0.55622  0.93378  1.0000
  C   C1537     1.0  0.55856  0.64174  0.92254  1.0000
  H   H1555     1.0  0.98264  0.52092  0.66332  1.0000
  Fe  Fe258     1.0  0.91369  0.54764  0.69367  1.0000
  S   S522      1.0  0.89894  0.53427  0.72111  1.0000
  H   H1556     1.0  0.98300  0.53887  0.72650  1.0000
  S   S523      1.0  0.94427  0.53642  0.68691  1.0000
  H   H1557     1.0  0.99006  0.49771  0.66077  1.0000
  H   H1558     1.0  0.91282  0.50886  0.78199  1.0000
  H   H1559     1.0  0.86907  0.50977  0.66505  1.0000
  H   H1560     1.0  0.55242  0.63877  0.96493  1.0000
  S   S524      1.0  0.74862  0.52738  0.95725  1.0000
  Fe  Fe259     1.0  0.77180  0.50285  0.95347  1.0000
  C   C1538     1.0  0.91536  0.51880  0.76932  1.0000
  C   C1539     1.0  0.75574  0.54462  0.91163  1.0000
  C   C1540     1.0  0.96851  0.50477  0.74417  1.0000
  C   C1541     1.0  0.90989  0.53291  0.73866  1.0000
  C   C1542     1.0  0.92189  0.54438  0.73628  1.0000
  C   C1543     1.0  0.93021  0.54341  0.75064  1.0000
  C   C1544     1.0  0.92682  0.53071  0.76723  1.0000
  C   C1545     1.0  0.98179  0.56794  0.68486  1.0000
  C   C1546     1.0  0.97852  0.53222  0.79733  1.0000
  H   H1561     1.0  0.92441  0.55431  0.72354  1.0000
  Fe  Fe260     1.0  0.55051  0.67500  0.97282  1.0000
  C   C1547     1.0  0.58605  0.60047  0.96031  1.0000
  N   N130      1.0  0.77401  0.54282  0.91135  1.0000
  H   H1562     1.0  0.93926  0.55248  0.74886  1.0000
  H   H1563     1.0  0.78322  0.56539  0.91319  1.0000
  H   H1564     1.0  0.89746  0.51117  0.75701  1.0000
  H   H1565     1.0  0.74498  0.55298  0.92013  1.0000
  H   H1566     1.0  0.56788  0.62884  0.92036  1.0000
  C   C1548     1.0  0.60153  0.60774  0.95764  1.0000
  C   C1549     1.0  0.59927  0.62631  0.95744  1.0000
  C   C1550     1.0  0.58152  0.63753  0.96037  1.0000
  S   S525      1.0  0.77952  0.48851  0.93011  1.0000
  H   H1567     1.0  0.96132  0.55528  0.70576  1.0000
  H   H1568     1.0  0.61525  0.59915  0.95541  1.0000
  H   H1569     1.0  0.61130  0.63194  0.95506  1.0000
  S   S526      1.0  0.91276  0.48913  0.81986  1.0000
  C   C1551     1.0  0.50761  0.66051  0.93673  1.0000
  C   C1552     1.0  0.69673  0.52537  0.94097  1.0000
  C   C1553     1.0  0.71321  0.51260  0.93668  1.0000
  C   C1554     1.0  0.72903  0.51272  0.94225  1.0000
  C   C1555     1.0  0.72870  0.52626  0.95116  1.0000
  C   C1556     1.0  0.69637  0.53880  0.95003  1.0000
  S   S527      1.0  0.80088  0.50386  0.95248  1.0000
  C   C1557     1.0  0.97564  0.55643  0.70156  1.0000
  N   N131      1.0  0.52764  0.65930  0.93087  1.0000
  C   C1558     1.0  0.55364  0.67303  0.92503  1.0000
  H   H1570     1.0  0.50338  0.64977  0.93288  1.0000
  H   H1571     1.0  0.71365  0.50235  0.92944  1.0000
  H   H1572     1.0  0.55634  0.60622  0.96489  1.0000
  C   C1559     1.0  0.99402  0.52323  0.80479  1.0000
  H   H1573     1.0  0.52527  0.68675  0.93271  1.0000
  H   H1574     1.0  0.74146  0.50245  0.93944  1.0000
  C   C1560     1.0  0.53938  0.64319  0.92756  1.0000
  N   N132      1.0  0.98687  0.50208  0.74403  1.0000
  C   C1561     1.0  0.75061  0.53515  0.90151  1.0000
  C   C1562     1.0  0.96288  0.50507  0.72836  1.0000
  S   S528      1.0  0.94868  0.49543  0.83051  1.0000
  H   H1575     1.0  0.79108  0.54396  0.92826  1.0000
  H   H1576     1.0  0.80204  0.53110  0.90013  1.0000
  C   C1563     1.0  0.56569  0.65676  0.92137  1.0000
  S   S529      1.0  0.93798  0.52895  0.78480  1.0000
  H   H1577     1.0  0.92358  0.50793  0.68344  1.0000
  H   H1578     1.0  0.50325  0.65912  0.95189  1.0000
  H   H1579     1.0  0.71221  0.55027  0.96115  1.0000
  H   H1580     1.0  0.53400  0.63126  0.92902  1.0000
  C   C1564     1.0  0.78292  0.52277  0.89017  1.0000
  S   S530      1.0  0.53620  0.70306  0.96047  1.0000
  C   C1565     1.0  0.77926  0.55266  0.92212  1.0000
  C   C1566     1.0  0.56608  0.63020  0.96313  1.0000
  H   H1581     1.0  0.96881  0.54939  0.77341  1.0000
  C   C1567     1.0  0.98083  0.54253  0.77936  1.0000
  Fe  Fe261     1.0  0.93679  0.50250  0.80545  1.0000
  C   C1568     1.0  0.56834  0.61179  0.96287  1.0000
  Fe  Fe262     1.0  0.51036  0.69221  0.97186  1.0000
  C   C1569     1.0  0.92521  0.49573  0.67860  1.0000
  H   H1582     1.0  0.58056  0.65559  0.91833  1.0000
  C   C1570     1.0  0.99254  0.50130  0.76086  1.0000
  C   C1571     1.0  0.76433  0.52407  0.89080  1.0000
  Fe  Fe263     1.0  0.61464  0.55902  0.96796  1.0000
  H   H1583     1.0  0.88295  0.49686  0.85517  1.0000
  H   H1584     1.0  0.99290  0.49361  0.86572  1.0000
  H   H1585     1.0  0.84886  0.50450  0.86637  1.0000
  Fe  Fe264     1.0  0.91332  0.57131  0.65502  1.0000
  H   H1586     1.0  0.49991  0.67398  0.93020  1.0000
  C   C1572     1.0  0.85756  0.49669  0.87593  1.0000
  S   S531      1.0  0.52506  0.66344  0.98161  1.0000
  S   S532      1.0  0.82510  0.49543  0.90147  1.0000
  C   C1573     1.0  0.93856  0.49215  0.66285  1.0000
  S   S533      1.0  0.65700  0.52694  0.98528  1.0000
  H   H1587     1.0  0.99237  0.51512  0.81873  1.0000
  C   C1574     1.0  0.98791  0.54706  0.71326  1.0000
  C   C1575     1.0  0.99492  0.49918  0.71252  1.0000
  H   H1588     1.0  0.65527  0.49755  0.92693  1.0000
  C   C1576     1.0  0.87688  0.49236  0.86953  1.0000
  C   C1577     1.0  0.99363  0.51139  0.65566  1.0000
  H   H1589     1.0  0.98131  0.50897  0.77024  1.0000
  H   H1590     1.0  0.94034  0.61266  0.65453  1.0000
  C   C1578     1.0  0.87883  0.51702  0.65473  1.0000
  C   C1579     1.0  0.84946  0.49073  0.89450  1.0000
  H   H1591     1.0  0.90716  0.48758  0.73232  1.0000
  H   H1592     1.0  0.99611  0.48684  0.76826  1.0000
  Fe  Fe265     1.0  0.80894  0.48719  0.93062  1.0000
  H   H1593     1.0  0.51935  0.91897  0.27891  1.0000
  C   C1580     1.0  0.50593  0.84606  0.16365  1.0000
  H   H1594     1.0  0.55615  0.75721  0.13661  1.0000
  H   H1595     1.0  0.53202  0.78446  0.12751  1.0000
  Fe  Fe266     1.0  0.52202  0.93351  0.21702  1.0000
  C   C1581     1.0  0.51582  0.93097  0.28478  1.0000
  S   S534      1.0  0.54301  0.92701  0.23458  1.0000
  C   C1582     1.0  0.51207  0.76851  0.13031  1.0000
  H   H1596     1.0  0.52243  0.84736  0.12628  1.0000
  C   C1583     1.0  0.53889  0.73819  0.14082  1.0000
  C   C1584     1.0  0.53009  0.83878  0.13701  1.0000
  C   C1585     1.0  0.50327  0.94994  0.13493  1.0000
  S   S535      1.0  0.52638  0.94547  0.18666  1.0000
  Fe  Fe267     1.0  0.51275  0.82848  0.10034  1.0000
  H   H1597     1.0  0.53681  0.86907  0.17770  1.0000
  H   H1598     1.0  0.59868  0.78182  0.06900  1.0000
  H   H1599     1.0  0.52475  0.89492  0.13137  1.0000
  S   S536      1.0  0.57712  0.96235  0.30084  1.0000
  C   C1586     1.0  0.50271  0.97536  0.14660  1.0000
  C   C1587     1.0  0.54267  0.75560  0.13636  1.0000
  C   C1588     1.0  0.53145  0.91294  0.30967  1.0000
  C   C1589     1.0  0.57488  0.77113  0.07174  1.0000
  N   N133      1.0  0.50857  0.75138  0.13447  1.0000
  C   C1590     1.0  0.50007  0.76036  0.03482  1.0000
  H   H1600     1.0  0.50988  0.98372  0.15007  1.0000
  H   H1601     1.0  0.52790  0.82465  0.14006  1.0000
  H   H1602     1.0  0.51134  0.76181  0.08217  1.0000
  C   C1591     1.0  0.54320  0.97432  0.25909  1.0000
  S   S537      1.0  0.49759  0.82019  0.08428  1.0000
  H   H1603     1.0  0.58094  0.80695  0.08498  1.0000
  C   C1592     1.0  0.52915  0.77088  0.13118  1.0000
  C   C1593     1.0  0.55566  0.77333  0.07819  1.0000
  C   C1594     1.0  0.55220  0.95647  0.26584  1.0000
  C   C1595     1.0  0.55280  0.94213  0.25772  1.0000
  C   C1596     1.0  0.54394  0.94548  0.24316  1.0000
  C   C1597     1.0  0.53521  0.96338  0.23626  1.0000
  C   C1598     1.0  0.50683  0.96200  0.29922  1.0000
  H   H1604     1.0  0.55853  0.95360  0.27743  1.0000
  H   H1605     1.0  0.55964  0.92833  0.26309  1.0000
  H   H1606     1.0  0.52866  0.96615  0.22484  1.0000
  C   C1599     1.0  0.57381  0.79770  0.08298  1.0000
  N   N134      1.0  0.52143  0.93029  0.30030  1.0000
  C   C1600     1.0  0.58385  0.78349  0.07393  1.0000
  H   H1607     1.0  0.54511  0.83810  0.13107  1.0000
  C   C1601     1.0  0.49996  0.88594  0.13353  1.0000
  H   H1608     1.0  0.57889  0.76568  0.00364  1.0000
  S   S538      1.0  0.50756  0.91261  0.21554  1.0000
  Fe  Fe268     1.0  0.50923  0.92651  0.18571  1.0000
  H   H1609     1.0  0.54867  0.76382  0.07645  1.0000
  H   H1610     1.0  0.50166  0.78044  0.12613  1.0000
  H   H1611     1.0  0.50141  0.94766  0.26367  1.0000
  H   H1612     1.0  0.53067  0.78976  0.09156  1.0000
  C   C1602     1.0  0.53501  0.97776  0.24406  1.0000
  C   C1603     1.0  0.49906  0.85373  0.17925  1.0000
  S   S539      1.0  0.50121  0.85857  0.09201  1.0000
  N   N135      1.0  0.52357  0.84634  0.15364  1.0000
  H   H1613     1.0  0.53863  0.96000  0.12122  1.0000
  C   C1604     1.0  0.52825  0.86212  0.17415  1.0000
  C   C1605     1.0  0.51073  0.89461  0.13904  1.0000
  C   C1606     1.0  0.58319  0.75123  0.00938  1.0000
  S   S540      1.0  0.51852  0.91139  0.16212  1.0000
  C   C1607     1.0  0.55462  0.80008  0.08928  1.0000
  H   H1614     1.0  0.54847  0.85504  0.15042  1.0000
  S   S541      1.0  0.54270  0.81761  0.10127  1.0000
  C   C1608     1.0  0.54547  0.78802  0.08667  1.0000
  H   H1615     1.0  0.50755  0.77174  0.99555  1.0000
  H   H1616     1.0  0.50561  0.87981  0.12162  1.0000
  H   H1617     1.0  0.52102  0.75653  0.04976  1.0000
  C   C1609     1.0  0.53470  0.85428  0.15865  1.0000
  C   C1610     1.0  0.51032  0.86184  0.18448  1.0000
  C   C1611     1.0  0.50673  0.76270  0.04891  1.0000
  H   H1618     1.0  0.50494  0.86851  0.19609  1.0000
  H   H1619     1.0  0.51160  0.78514  0.06995  1.0000
  H   H1620     1.0  0.53062  0.98139  0.19084  1.0000
  C   C1612     1.0  0.50370  0.90240  0.15465  1.0000
  C   C1613     1.0  0.53265  0.95555  0.13606  1.0000
  Fe  Fe269     1.0  0.58579  0.98185  0.31194  1.0000
  C   C1614     1.0  0.51686  0.94545  0.30770  1.0000
  H   H1621     1.0  0.58611  0.97952  0.25569  1.0000
  S   S542      1.0  0.58798  0.75302  0.06099  1.0000
  C   C1615     1.0  0.50561  0.94723  0.27607  1.0000
  C   C1616     1.0  0.50282  0.77490  0.07602  1.0000
  Fe  Fe270     1.0  0.49913  0.96463  0.19411  1.0000
  H   H1622     1.0  0.53764  0.94051  0.14036  1.0000
  H   H1623     1.0  0.50901  0.75222  0.02506  1.0000
  H   H1624     1.0  0.53795  0.96201  0.14416  1.0000
  H   H1625     1.0  0.51095  0.93809  0.12915  1.0000
  C   C1617     1.0  0.50119  0.96285  0.28330  1.0000
  C   C1618     1.0  0.59699  0.74521  0.01948  1.0000
  C   C1619     1.0  0.57474  0.73850  0.00703  1.0000
  H   H1626     1.0  0.54020  0.90443  0.29968  1.0000
  N   N136      1.0  0.51238  0.96032  0.13946  1.0000
  H   H1627     1.0  0.50351  0.97405  0.30494  1.0000
  H   H1628     1.0  0.56392  0.74326  0.99926  1.0000
  H   H1629     1.0  0.60336  0.75497  0.02182  1.0000
  Fe  Fe271     1.0  0.55332  0.98554  0.29466  1.0000
  H   H1630     1.0  0.54085  0.91529  0.31703  1.0000
  H   H1631     1.0  0.77118  0.92578  0.54533  1.0000
  C   C1620     1.0  0.65512  0.93736  0.48889  1.0000
  H   H1632     1.0  0.96887  0.76034  0.52959  1.0000
  H   H1633     1.0  0.98000  0.87270  0.50673  1.0000
  S   S543      1.0  0.62640  0.98187  0.45245  1.0000
  H   H1634     1.0  0.61006  0.98155  0.49043  1.0000
  H   H1635     1.0  0.73184  0.97675  0.54874  1.0000
  H   H1636     1.0  0.55947  0.96040  0.59116  1.0000
  H   H1637     1.0  0.65211  0.93066  0.50371  1.0000
  H   H1638     1.0  0.99016  0.74148  0.41773  1.0000
  S   S544      1.0  0.55165  0.93014  0.34247  1.0000
  C   C1621     1.0  0.72588  0.96755  0.42913  1.0000
  H   H1639     1.0  0.69698  0.93174  0.56214  1.0000
  N   N137      1.0  0.60483  0.96272  0.40771  1.0000
  C   C1622     1.0  0.93239  0.74492  0.43036  1.0000
  Fe  Fe272     1.0  0.94838  0.82384  0.48204  1.0000
  S   S545      1.0  0.92042  0.83868  0.49558  1.0000
  S   S546      1.0  0.97852  0.82464  0.47710  1.0000
  Fe  Fe273     1.0  0.93267  0.79588  0.47382  1.0000
  S   S547      1.0  0.90342  0.80778  0.48649  1.0000
  S   S548      1.0  0.94469  0.76986  0.46326  1.0000
  Fe  Fe274     1.0  0.91037  0.83513  0.47235  1.0000
  S   S549      1.0  0.88785  0.85469  0.45872  1.0000
  Fe  Fe275     1.0  0.91500  0.81058  0.50883  1.0000
  S   S550      1.0  0.89894  0.80410  0.53791  1.0000
  S   S551      1.0  0.93876  0.82282  0.45747  1.0000
  S   S552      1.0  0.94357  0.79621  0.49762  1.0000
  S   S553      1.0  0.53422  0.97963  0.32211  1.0000
  H   H1640     1.0  0.65491  0.92787  0.48055  1.0000
  C   C1623     1.0  0.90704  0.74404  0.56746  1.0000
  S   S554      1.0  0.65202  0.93625  0.57036  1.0000
  H   H1641     1.0  0.59960  0.93707  0.42360  1.0000
  H   H1642     1.0  0.95492  0.74161  0.44318  1.0000
  C   C1624     1.0  0.69135  0.96371  0.48179  1.0000
  H   H1643     1.0  0.97982  0.76314  0.42391  1.0000
  C   C1625     1.0  0.86345  0.74484  0.56288  1.0000
  H   H1644     1.0  0.61098  0.95407  0.33479  1.0000
  H   H1645     1.0  0.54375  0.96935  0.62106  1.0000
  Fe  Fe276     1.0  0.77998  0.93290  0.49947  1.0000
  H   H1646     1.0  0.88714  0.75395  0.59020  1.0000
  S   S555      1.0  0.76850  0.90831  0.51557  1.0000
  Fe  Fe277     1.0  0.81756  0.94180  0.48145  1.0000
  H   H1647     1.0  0.77671  0.96452  0.39721  1.0000
  S   S556      1.0  0.84795  0.93079  0.48140  1.0000
  S   S557      1.0  0.56955  0.97422  0.34061  1.0000
  Fe  Fe278     1.0  0.78432  0.96092  0.46413  1.0000
  C   C1626     1.0  0.68361  0.97435  0.61505  1.0000
  S   S558      1.0  0.80005  0.94123  0.50991  1.0000
  S   S559      1.0  0.79838  0.93132  0.47166  1.0000
  Fe  Fe279     1.0  0.66003  0.96363  0.39285  1.0000
  H   H1648     1.0  0.70663  0.95989  0.56115  1.0000
  S   S560      1.0  0.64770  0.94950  0.37882  1.0000
  Fe  Fe280     1.0  0.68932  0.95743  0.41516  1.0000
  N   N138      1.0  0.98640  0.77437  0.50692  1.0000
  S   S561      1.0  0.71430  0.93854  0.42522  1.0000
  S   S562      1.0  0.67781  0.95695  0.59177  1.0000
  S   S563      1.0  0.90234  0.74796  0.41632  1.0000
  N   N139      1.0  0.72460  0.93372  0.55993  1.0000
  H   H1649     1.0  0.61352  0.93645  0.40063  1.0000
  S   S564      1.0  0.66174  0.94982  0.42209  1.0000
  S   S565      1.0  0.68881  0.96878  0.38526  1.0000
  Fe  Fe281     1.0  0.62728  0.95689  0.56225  1.0000
  C   C1627     1.0  0.75707  0.93339  0.54896  1.0000
  H   H1650     1.0  0.97779  0.79882  0.51689  1.0000
  S   S566      1.0  0.67705  0.96439  0.54041  1.0000
  C   C1628     1.0  0.97542  0.76196  0.51508  1.0000
  Fe  Fe282     1.0  0.66527  0.94120  0.54033  1.0000
  C   C1629     1.0  0.89530  0.75768  0.57649  1.0000
  H   H1651     1.0  0.98809  0.77899  0.53235  1.0000
  S   S567      1.0  0.63948  0.95911  0.53213  1.0000
  C   C1630     1.0  0.59850  0.97091  0.39191  1.0000
  H   H1652     1.0  0.52105  0.94479  0.32019  1.0000
  H   H1653     1.0  0.72088  0.95477  0.47260  1.0000
  C   C1631     1.0  0.98784  0.83499  0.48898  1.0000
  H   H1654     1.0  0.82053  0.98273  0.52284  1.0000
  H   H1655     1.0  0.93091  0.78723  0.39360  1.0000
  C   C1632     1.0  0.70953  0.92388  0.56743  1.0000
  H   H1656     1.0  0.69020  0.96089  0.62159  1.0000
  Fe  Fe283     1.0  0.55847  0.95733  0.32880  1.0000
  C   C1633     1.0  0.74252  0.92420  0.55597  1.0000
  C   C1634     1.0  0.91492  0.75513  0.42780  1.0000
  C   C1635     1.0  0.74457  0.91141  0.51772  1.0000
  C   C1636     1.0  0.73497  0.96197  0.55067  1.0000
  C   C1637     1.0  0.71386  0.93106  0.51864  1.0000
  C   C1638     1.0  0.73307  0.92892  0.51582  1.0000
  H   H1657     1.0  0.70513  0.94460  0.51698  1.0000
  H   H1658     1.0  0.73885  0.94080  0.51267  1.0000
  C   C1639     1.0  0.75461  0.96433  0.43824  1.0000
  C   C1640     1.0  0.87003  0.75761  0.54756  1.0000
  S   S568      1.0  0.59740  0.95509  0.57179  1.0000
  C   C1641     1.0  0.72921  0.94861  0.43102  1.0000
  C   C1642     1.0  0.74501  0.93750  0.43716  1.0000
  C   C1643     1.0  0.75763  0.94532  0.44088  1.0000
  H   H1659     1.0  0.83281  0.96002  0.50278  1.0000
  C   C1644     1.0  0.60522  0.97303  0.41932  1.0000
  H   H1660     1.0  0.74769  0.92282  0.43868  1.0000
  H   H1661     1.0  0.77008  0.93669  0.44505  1.0000
  C   C1645     1.0  0.84761  0.97787  0.48087  1.0000
  C   C1646     1.0  0.68892  0.92990  0.47852  1.0000
  C   C1647     1.0  0.70611  0.91574  0.52304  1.0000
  H   H1662     1.0  0.62370  0.93880  0.41764  1.0000
  H   H1663     1.0  0.66183  0.96831  0.49102  1.0000
  S   S569      1.0  0.63633  0.98109  0.56445  1.0000
  H   H1664     1.0  0.85269  0.96813  0.47191  1.0000
  C   C1648     1.0  0.71764  0.89826  0.52462  1.0000
  S   S570      1.0  0.68212  0.91811  0.52656  1.0000
  C   C1649     1.0  0.70628  0.93421  0.47438  1.0000
  H   H1665     1.0  0.88201  0.90588  0.48730  1.0000
  C   C1650     1.0  0.87753  0.87628  0.46431  1.0000
  C   C1651     1.0  0.88512  0.88347  0.47451  1.0000
  C   C1652     1.0  0.87602  0.90032  0.47950  1.0000
  C   C1653     1.0  0.85919  0.90994  0.47453  1.0000
  C   C1654     1.0  0.85164  0.90278  0.46427  1.0000
  C   C1655     1.0  0.86091  0.88610  0.45900  1.0000
  H   H1666     1.0  0.89805  0.87612  0.47846  1.0000
  H   H1667     1.0  0.65027  0.98430  0.35274  1.0000
  H   H1668     1.0  0.83880  0.91018  0.46019  1.0000
  H   H1669     1.0  0.85505  0.88067  0.45098  1.0000
  C   C1656     1.0  0.93350  0.76525  0.44872  1.0000
  C   C1657     1.0  0.91637  0.77596  0.44559  1.0000
  C   C1658     1.0  0.90708  0.77087  0.43512  1.0000
  C   C1659     1.0  0.95683  0.77383  0.40193  1.0000
  H   H1670     1.0  0.68816  0.91654  0.47748  1.0000
  C   C1660     1.0  0.94161  0.74991  0.44087  1.0000
  H   H1671     1.0  0.91010  0.78792  0.45152  1.0000
  H   H1672     1.0  0.89360  0.77891  0.43303  1.0000
  C   C1661     1.0  0.96037  0.74942  0.38028  1.0000
  H   H1673     1.0  0.86893  0.77132  0.54915  1.0000
  C   C1662     1.0  0.89352  0.77616  0.56756  1.0000
  C   C1663     1.0  0.90347  0.78111  0.54956  1.0000
  C   C1664     1.0  0.91594  0.76755  0.54085  1.0000
  C   C1665     1.0  0.91786  0.74906  0.54988  1.0000
  H   H1674     1.0  0.88404  0.78660  0.57446  1.0000
  H   H1675     1.0  0.92392  0.77127  0.52709  1.0000
  C   C1666     1.0  0.50852  0.95342  0.37824  1.0000
  H   H1676     1.0  0.69205  0.97694  0.48327  1.0000
  C   C1667     1.0  0.97809  0.85080  0.49557  1.0000
  C   C1668     1.0  0.94480  0.76375  0.38159  1.0000
  H   H1677     1.0  0.87946  0.76806  0.50361  1.0000
  C   C1669     1.0  0.72075  0.95235  0.55764  1.0000
  H   H1678     1.0  0.96370  0.85623  0.49488  1.0000
  C   C1670     1.0  0.99129  0.76632  0.47782  1.0000
  Fe  Fe284     1.0  0.78646  0.97010  0.49894  1.0000
  C   C1671     1.0  0.70746  0.95129  0.47587  1.0000
  C   C1672     1.0  0.62293  0.97763  0.32806  1.0000
  H   H1679     1.0  0.76437  0.95972  0.54065  1.0000
  C   C1673     1.0  0.94311  0.77621  0.39227  1.0000
  N   N140      1.0  0.87834  0.75268  0.53103  1.0000
  C   C1674     1.0  0.67425  0.95883  0.48603  1.0000
  N   N141      1.0  0.67318  0.94227  0.48402  1.0000
  H   H1680     1.0  0.74564  0.90944  0.55767  1.0000
  H   H1681     1.0  0.61012  0.96654  0.43191  1.0000
  H   H1682     1.0  0.59800  0.96279  0.38276  1.0000
  C   C1675     1.0  0.58823  0.96807  0.62125  1.0000
  C   C1676     1.0  0.63830  0.96082  0.35929  1.0000
  C   C1677     1.0  0.62726  0.95234  0.35408  1.0000
  C   C1678     1.0  0.82976  0.98594  0.50956  1.0000
  Fe  Fe285     1.0  0.64971  0.97780  0.42801  1.0000
  C   C1679     1.0  0.55861  0.96763  0.61643  1.0000
  H   H1683     1.0  0.62482  0.93910  0.36192  1.0000
  Fe  Fe286     1.0  0.66222  0.96070  0.57001  1.0000
  S   S571      1.0  0.76446  0.96169  0.49134  1.0000
  H   H1684     1.0  0.73008  0.95834  0.38132  1.0000
  C   C1680     1.0  0.75323  0.95240  0.54622  1.0000
  C   C1681     1.0  0.58675  0.96035  0.59345  1.0000
  H   H1685     1.0  0.96312  0.74191  0.51108  1.0000
  C   C1682     1.0  0.52624  0.94871  0.36730  1.0000
  C   C1683     1.0  0.53040  0.93452  0.35792  1.0000
  C   C1684     1.0  0.51690  0.92498  0.35954  1.0000
  H   H1686     1.0  0.70584  0.92179  0.58267  1.0000
  H   H1687     1.0  0.96204  0.73972  0.37187  1.0000
  H   H1688     1.0  0.53668  0.95612  0.36603  1.0000
  H   H1689     1.0  0.52005  0.91408  0.35225  1.0000
  H   H1690     1.0  0.71171  0.88636  0.52798  1.0000
  H   H1691     1.0  0.71330  0.91046  0.56335  1.0000
  C   C1685     1.0  0.59711  0.96318  0.60428  1.0000
  H   H1692     1.0  0.71871  0.92436  0.47000  1.0000
  C   C1686     1.0  0.64160  0.97782  0.34889  1.0000
  N   N142      1.0  0.85075  0.86278  0.50525  1.0000
  C   C1687     1.0  0.84103  0.87812  0.51186  1.0000
  C   C1688     1.0  0.84381  0.85637  0.49434  1.0000
  C   C1689     1.0  0.82393  0.88751  0.50751  1.0000
  C   C1690     1.0  0.82676  0.86545  0.48969  1.0000
  C   C1691     1.0  0.81676  0.88108  0.49640  1.0000
  C   C1692     1.0  0.86829  0.85270  0.51055  1.0000
  H   H1693     1.0  0.84662  0.88336  0.52030  1.0000
  H   H1694     1.0  0.85172  0.84447  0.48872  1.0000
  H   H1695     1.0  0.81635  0.89980  0.51254  1.0000
  H   H1696     1.0  0.82148  0.86056  0.48073  1.0000
  H   H1697     1.0  0.80352  0.88832  0.49289  1.0000
  H   H1698     1.0  0.87761  0.84548  0.49971  1.0000
  H   H1699     1.0  0.87590  0.86212  0.51231  1.0000
  H   H1700     1.0  0.86572  0.84246  0.52360  1.0000
  H   H1701     1.0  0.50528  0.96445  0.38538  1.0000
  C   C1693     1.0  0.49900  0.93019  0.36983  1.0000
  C   C1694     1.0  0.73775  0.96709  0.38345  1.0000
  C   C1695     1.0  0.97211  0.75147  0.50472  1.0000
  H   H1702     1.0  0.74559  0.88250  0.52379  1.0000
  H   H1703     1.0  0.61197  0.96141  0.59968  1.0000
  H   H1704     1.0  0.64392  0.94966  0.48622  1.0000
  H   H1705     1.0  0.97813  0.74524  0.47791  1.0000
  H   H1706     1.0  0.93396  0.76505  0.37454  1.0000
  C   C1696     1.0  0.73679  0.89609  0.52224  1.0000
  C   C1697     1.0  0.88616  0.76581  0.51528  1.0000
  S   S572      1.0  0.80545  0.97147  0.47109  1.0000
  C   C1698     1.0  0.61937  0.96083  0.33872  1.0000
  H   H1707     1.0  0.75992  0.94475  0.39099  1.0000
  C   C1699     1.0  0.61057  0.94276  0.41272  1.0000
  C   C1700     1.0  0.56751  0.96253  0.59956  1.0000
  C   C1701     1.0  0.56898  0.97030  0.62733  1.0000
  H   H1708     1.0  0.95512  0.78327  0.41063  1.0000
  C   C1702     1.0  0.98737  0.86016  0.50215  1.0000
  S   S573      1.0  0.77176  0.97460  0.43946  1.0000
  C   C1703     1.0  0.73851  0.97537  0.43276  1.0000
  C   C1704     1.0  0.75460  0.95944  0.38881  1.0000
  C   C1705     1.0  0.97371  0.74738  0.39021  1.0000
  N   N143      1.0  0.97160  0.75921  0.40123  1.0000
  C   C1706     1.0  0.98041  0.75343  0.48607  1.0000
  C   C1707     1.0  0.83644  0.97329  0.49823  1.0000
  H   H1709     1.0  0.71396  0.97629  0.42425  1.0000
  Fe  Fe287     1.0  0.65007  0.98209  0.53471  1.0000
  H   H1710     1.0  0.90132  0.76062  0.51093  1.0000
  C   C1708     1.0  0.67603  0.97640  0.59994  1.0000
  H   H1711     1.0  0.59630  0.97005  0.62971  1.0000
  H   H1712     1.0  0.88422  0.77930  0.51875  1.0000
  C   C1709     1.0  0.98880  0.78607  0.51768  1.0000
  C   C1710     1.0  0.76401  0.97072  0.39230  1.0000
  H   H1713     1.0  0.89872  0.74584  0.46941  1.0000
  S   S574      1.0  0.55821  0.97646  0.64858  1.0000
  C   C1711     1.0  0.99403  0.77685  0.48847  1.0000
  H   H1714     1.0  0.92776  0.73876  0.54327  1.0000
  H   H1715     1.0  0.92286  0.74044  0.48608  1.0000
  C   C1712     1.0  0.73054  0.98588  0.38157  1.0000
  S   S575      1.0  0.67732  0.98412  0.42376  1.0000
  C   C1713     1.0  0.98552  0.75632  0.41199  1.0000
  C   C1714     1.0  0.63413  0.98609  0.33313  1.0000
  H   H1716     1.0  0.85762  0.74858  0.57615  1.0000
  H   H1717     1.0  0.52135  0.90534  0.31979  1.0000
  H   H1718     1.0  0.51934  0.96191  0.73732  1.0000
  C   C1715     1.0  0.52563  0.75234  0.95824  1.0000
  C   C1716     1.0  0.53055  0.96416  0.72549  1.0000
  C   C1717     1.0  0.52209  0.75416  0.97645  1.0000
  C   C1718     1.0  0.54982  0.95588  0.69731  1.0000
  C   C1719     1.0  0.51020  0.77002  0.98163  1.0000
  H   H1719     1.0  0.52511  0.98456  0.74911  1.0000
  C   C1720     1.0  0.53554  0.95297  0.71270  1.0000
  H   H1720     1.0  0.52797  0.94252  0.71446  1.0000
  H   H1721     1.0  0.55352  0.94774  0.68691  1.0000
  S   S576      1.0  0.50862  0.96344  0.65888  1.0000
  Fe  Fe288     1.0  0.52710  0.98262  0.65491  1.0000
  C   C1721     1.0  0.55897  0.96978  0.69496  1.0000
  H   H1722     1.0  0.50215  0.89628  0.87104  1.0000
  H   H1723     1.0  0.53523  0.74049  0.95395  1.0000
  C   C1722     1.0  0.51712  0.76612  0.94535  1.0000
  H   H1724     1.0  0.50070  0.83785  0.92908  1.0000
  H   H1725     1.0  0.56983  0.97238  0.68283  1.0000
  H   H1726     1.0  0.51995  0.76463  0.93127  1.0000
  H   H1727     1.0  0.50852  0.83577  0.90567  1.0000
  C   C1723     1.0  0.50474  0.78163  0.95069  1.0000
  C   C1724     1.0  0.50103  0.87098  0.89132  1.0000
  C   C1725     1.0  0.50127  0.78358  0.96886  1.0000
  C   C1726     1.0  0.49890  0.88998  0.88556  1.0000
  H   H1728     1.0  0.50621  0.86263  0.88105  1.0000
  C   C1727     1.0  0.49741  0.84332  0.91524  1.0000
  N   N144      1.0  0.53940  0.97797  0.72292  1.0000
  C   C1728     1.0  0.55351  0.98079  0.70794  1.0000
