data_image0
_chemical_formula_structural       CSC2SFeCHCHFeS2FeS2FeSFeS3CHN2C2H7SHCH2SH2SNHC5H3CHCHC3H6C6HFeH2FeHCHCFeHNC2HC2H2SC2SC3NC6H5C3H6CHCH2C2HSHFeH2C4H5SNCHC2HC2HCS2HC3S3FeHSHC2FeCFeH2C6HCSCH2C2S2H2S2CHCFeS2FeSCFeSFeHSCH3SCFeHSC2HSC2NHFeSHC4HC4H4C6HC2HSC3HSH4CH3CHC2HCHSH2SHCHCHCNFeH5CSNC7H2C2NCHSC3HCHCSCFeHCH2NHC3S2H3C2HC3H3C2HCHCHC3H2FeH2NFeC2H2SHCFeH4FeHCFeNSC2SFeH3C2H2CH3SCHNHSCH3CSHSCH3S2FeS2FeS2FeHFeCS2H4CHC2HS2HC2HNCS2C2H3C2HFe2HSC7H4CSCH2NHNHCHCFeH3C6H2CHCSH3CHFe2H3SHC2H4FeHC2HC2H3C3H2FeHS4CH3FeSCSHSCHCFeS2FeS2FeCFeCS2C3H2C6FeCSHC6H4CHC9H2CHCH3C2FeNCHNCSCHC4S2C3HC2HCHS2C2H2CHCS2C3HC2HC2H2CH3CH2C2H4C4H2C2H2C2H2CHCH2CH4CNHNHCH11C3HFeC2HCHC2HNHFeC2H3S3CH2SCFeCHC4S2CHSHC2FeHSFeS2HFeCS2C7H4C2SHCNH2C3H4FeC2H3C2SC2SCH2FeCH2NC2H2NC2H4SCHC2HCHCH3CHCH2C4SCHFeS2C2SCH2CHNH3C4HC2FeNCHSH3CSH4CHCHCHCNCFeHFeHCH5SFeSH2C5H3S2HSFeSCHSCH2SHC2H2CH2SHCFeSFeS3HC2HCH2S2CHC7H4C7H4CSFeH2CFe2H3FeSH2C5H4CHCH2CHSC2FeSFeSHCHCH3SNFeCNSH6CHCHCNC6H3CHC2HNC3H2CSH4C3HSNSC3HCH3FeHSH2SH2FeHSHC2SNH2C2SCH3FeSCFeCH2SHCH2C5H2C2FeCFeCH5SC3SHC2SC3HNC5HNC3SHC2HSHC2H3SH2CH2CH2SH2CFeSHFeS2FeHFeS3HC4HFeCSH2SHS2HC3FeS2NHCHSCS2FeS2FeCHFeSFeHS2C2H2C2H5C6H4SH3C2H2C2FeC2H2SH3CHFeHCHCSHCHC8SH4CHFeC2NCH2CHC7H4C2NC6H8NC6H5N2H2SCH2CHCHC4H3CSCH3SNCSC3S3C3H2C2Fe2NHCH3CHCH2SC3HFeHCHSFeHC3FeSH3SHC3HFe2SHCHC3H3FeHC2H2SNCHCSCHCHCH3CNH2CHFeHFeHCSHCFeSHSCNHSC2HSCSFeC2H2FeHCS2HC4HS2HC3H3FeC2H3SC6H4CFeHS2C2HCFeH3CHC2H2CHCSCNH3CNCHFeSCH6C2HCHCSCFeSC2FeHSFeS2H2FeSHSH5CH2FeSFeCSHCSHC2HCHFeS2HFe2HS2FeSCSFeHFeSCSC7HC4HSH5C4SHC3HFeCH2CFeCH2S2C7H4C2SHCNHCHC3H2NC3HCHCH2FeC7H3CSCHCHC2HC2SCHSNHNC6NHFeHFeH2SNC6H10C2H3CHC2HCHCH2SHNC2H2SCHNCHSCSC3HCHCSNCH2CHSCHCHNHFeH2CHC2H2C2HC2SCHCH6C2H2CH6CFeC3SFeHFeNSHFeCHFeSHSH2SH2C2HCHCSHFeCH2SHS2HC2HNCSCH2FeHCH2C4H2C2SC4HC3H2C4SFeCH3CSHCSC2HCHSHCHS2H2C2SFeSHFeC2S2H2NSHSH2FeHCHCHC2H2CHCSHCNC6FeCFe2H2S3CHCNHCSH2CHC5H4CHCSH5CHC2SHFeC2HCHCNSCHFeS2CHFeS2FeSFeSCSHS2CFeHNC6H7SCH3C3NHCH3C2H5C3H2C3H4SC2NHC3HCHNC6H6C2SNH3SHCFeHFeCHCHSC3SCHCH2S2H2C3FeS2FeSFe4S3C2HSCHSCHCH2CNS2CHCHS2HCH2NHC6H4C3HCHNHC2SH2CHCHCHCH2C3H3C3H2FeCHCH2CSH2CH3SHSCSCHFeSHFeSFeS2HC2HS2FeS2FeS2FeCFeHS2FeHSC3HC11H3C2H2SCH2CHC5H2CHNHFeH2CHCHC6H5SHC2HC3H2C7H3CH2C4H6C2H3C2SHNFeSHNCHSCH2CHSHC2FeC4HNSFeC2HSCH3CSC2HCFeHCH2NC6H10NFeSCSCH2CHCHCH2NC2H4CSC2SC3HCS2CFeHNH2CSH5CSCH3C2HCH3C2H2CFeSHC4HCSCH4CHCH3S3FeSFeSCFeSFeSFeS3HC2HC3HCHC2HC9H5C2SFeCHCH4CH2C4SC4H2CH3CNHC2NFeSC2FeH4C4SHCH2C2SHC3H2SCHNH2FeHC2H4CHFeCHSH2CHS2H2C3HCSH3CNHCNHCHCH2C2NHCH3CH2FeSC2HCHCSH3NCHFeNSFeS2H2SFeSFeCSHCHFeS2FeSHCSHSC2HC2SC3HCNH4C2FeCH2CHCHC2H4C3H5C8H4C2H2CNSHCHS2CFeC2SC4HFeSCHC3HCH3CHCHCHC3H4C3H2SNS3HC2HFeNCH2SNC3SH4C3HNH2NSFeH4CSC2FeCHC2H2CHCH2CH2CH2C2H3CH3CHC2HCH2FeC3HCFeCHCHCH3SHSC2HC2HCFeH2C
_chemical_formula_sum              "C1152 S384 Fe192 H1152 N96"
_cell_length_a       63.1286
_cell_length_b       63.9935
_cell_length_c       65.7109
_cell_angle_alpha    75.6115
_cell_angle_beta     80.0377
_cell_angle_gamma    78.8621

_space_group_name_H-M_alt    "P 1"
_space_group_IT_number       1

loop_
  _space_group_symop_operation_xyz
  'x, y, z'

loop_
  _atom_site_type_symbol
  _atom_site_label
  _atom_site_symmetry_multiplicity
  _atom_site_fract_x
  _atom_site_fract_y
  _atom_site_fract_z
  _atom_site_occupancy
  C   C1        1.0  0.36172  0.30714  0.99453  1.0000
  S   S1        1.0  0.39624  0.23319  0.03158  1.0000
  C   C2        1.0  0.46999  0.00364  0.17222  1.0000
  C   C3        1.0  0.32128  0.14456  0.06210  1.0000
  S   S2        1.0  0.42468  0.14861  0.18643  1.0000
  Fe  Fe1       1.0  0.43564  0.13009  0.21766  1.0000
  C   C4        1.0  0.35303  0.32917  0.98769  1.0000
  H   H1        1.0  0.47012  0.21225  0.00175  1.0000
  C   C5        1.0  0.38250  0.11749  0.00787  1.0000
  H   H2        1.0  0.43674  0.16576  0.99055  1.0000
  Fe  Fe2       1.0  0.44569  0.09126  0.09511  1.0000
  S   S3        1.0  0.42218  0.06761  0.10755  1.0000
  S   S4        1.0  0.46768  0.09501  0.11687  1.0000
  Fe  Fe3       1.0  0.43409  0.10132  0.05054  1.0000
  S   S5        1.0  0.41022  0.07759  0.05904  1.0000
  S   S6        1.0  0.43502  0.12360  0.01812  1.0000
  Fe  Fe4       1.0  0.39950  0.09213  0.08751  1.0000
  S   S7        1.0  0.36397  0.10178  0.09792  1.0000
  Fe  Fe5       1.0  0.43528  0.05517  0.07808  1.0000
  S   S8        1.0  0.44579  0.01865  0.08441  1.0000
  S   S9        1.0  0.42176  0.11720  0.07805  1.0000
  S   S10       1.0  0.46042  0.07749  0.06670  1.0000
  C   C6        1.0  0.41998  0.01074  0.05809  1.0000
  H   H3        1.0  0.43075  0.04549  0.19676  1.0000
  N   N1        1.0  0.47036  0.19334  0.03316  1.0000
  N   N2        1.0  0.36081  0.11608  0.01344  1.0000
  C   C7        1.0  0.38942  0.13370  0.99076  1.0000
  C   C8        1.0  0.36562  0.27507  0.05397  1.0000
  H   H4        1.0  0.46328  0.22780  0.02216  1.0000
  H   H5        1.0  0.30070  0.36549  0.99279  1.0000
  H   H6        1.0  0.26847  0.45517  0.03253  1.0000
  H   H7        1.0  0.41483  0.41386  0.01075  1.0000
  H   H8        1.0  0.42320  0.22034  0.99653  1.0000
  H   H9        1.0  0.47864  0.11683  0.02929  1.0000
  H   H10       1.0  0.28002  0.38994  0.01606  1.0000
  S   S11       1.0  0.38285  0.18893  0.00378  1.0000
  H   H11       1.0  0.36820  0.15453  0.03029  1.0000
  C   C9        1.0  0.48421  0.16059  0.05725  1.0000
  H   H12       1.0  0.43624  0.19866  0.03134  1.0000
  H   H13       1.0  0.35153  0.08478  0.02592  1.0000
  S   S12       1.0  0.37768  0.40387  0.98837  1.0000
  H   H14       1.0  0.37401  0.14409  0.18438  1.0000
  H   H15       1.0  0.31747  0.31726  0.03306  1.0000
  S   S13       1.0  0.25811  0.47291  0.07040  1.0000
  N   N3        1.0  0.46052  0.99524  0.15946  1.0000
  H   H16       1.0  0.42965  0.16477  0.05757  1.0000
  C   C10       1.0  0.35273  0.12228  0.07775  1.0000
  C   C11       1.0  0.36634  0.13185  0.06022  1.0000
  C   C12       1.0  0.35751  0.14794  0.04391  1.0000
  C   C13       1.0  0.44980  0.18811  0.03865  1.0000
  C   C14       1.0  0.33014  0.12869  0.07873  1.0000
  H   H17       1.0  0.36564  0.09380  0.04310  1.0000
  H   H18       1.0  0.38370  0.12667  0.05892  1.0000
  H   H19       1.0  0.47732  0.09245  0.15831  1.0000
  C   C15       1.0  0.36451  0.29699  0.05419  1.0000
  H   H20       1.0  0.31948  0.27747  0.01383  1.0000
  C   C16       1.0  0.45579  0.13976  0.01066  1.0000
  H   H21       1.0  0.45073  0.44301  0.99964  1.0000
  C   C17       1.0  0.41914  0.26713  0.01371  1.0000
  C   C18       1.0  0.45873  0.00615  0.13892  1.0000
  C   C19       1.0  0.28294  0.46463  0.05559  1.0000
  H   H22       1.0  0.40213  0.00303  0.03638  1.0000
  H   H23       1.0  0.48512  0.03023  0.17489  1.0000
  H   H24       1.0  0.39405  0.43480  0.01917  1.0000
  H   H25       1.0  0.41086  0.27493  0.02636  1.0000
  H   H26       1.0  0.00898  0.47283  0.16893  1.0000
  H   H27       1.0  0.41902  0.02783  0.05027  1.0000
  C   C20       1.0  0.43755  0.13491  0.16638  1.0000
  C   C21       1.0  0.45458  0.11755  0.17052  1.0000
  C   C22       1.0  0.46402  0.10576  0.15501  1.0000
  C   C23       1.0  0.45606  0.11082  0.13548  1.0000
  C   C24       1.0  0.43890  0.12809  0.13129  1.0000
  C   C25       1.0  0.42992  0.14038  0.14660  1.0000
  H   H28       1.0  0.46063  0.11321  0.18566  1.0000
  Fe  Fe6       1.0  0.23168  0.48448  0.04960  1.0000
  H   H29       1.0  0.43275  0.13214  0.11619  1.0000
  H   H30       1.0  0.41674  0.15381  0.14334  1.0000
  Fe  Fe7       1.0  0.37943  0.22241  0.00952  1.0000
  H   H31       1.0  0.35445  0.15469  0.15255  1.0000
  C   C26       1.0  0.32284  0.45478  0.03063  1.0000
  H   H32       1.0  0.32844  0.12944  0.00663  1.0000
  C   C27       1.0  0.30342  0.45220  0.02467  1.0000
  Fe  Fe8       1.0  0.21824  0.48046  0.00945  1.0000
  H   H33       1.0  0.30377  0.44653  0.01043  1.0000
  N   N4        1.0  0.33167  0.28359  0.03957  1.0000
  C   C28       1.0  0.34905  0.26863  0.04642  1.0000
  C   C29       1.0  0.33058  0.30517  0.03952  1.0000
  H   H34       1.0  0.37755  0.30230  0.05944  1.0000
  C   C30       1.0  0.34686  0.31215  0.04700  1.0000
  C   C31       1.0  0.34568  0.13017  0.00196  1.0000
  H   H35       1.0  0.37949  0.26316  0.05911  1.0000
  H   H36       1.0  0.35041  0.25163  0.04582  1.0000
  S   S14       1.0  0.35784  0.34830  0.00080  1.0000
  C   C32       1.0  0.41045  0.99669  0.05025  1.0000
  C   C33       1.0  0.44468  0.01739  0.21858  1.0000
  S   S15       1.0  0.34797  0.44983  0.01495  1.0000
  C   C34       1.0  0.44595  0.16897  0.05357  1.0000
  C   C35       1.0  0.47403  0.04341  0.22214  1.0000
  C   C36       1.0  0.46929  0.17243  0.98889  1.0000
  N   N5        1.0  0.39718  0.10226  0.16093  1.0000
  C   C37       1.0  0.38638  0.10779  0.14354  1.0000
  C   C38       1.0  0.39228  0.11468  0.17583  1.0000
  C   C39       1.0  0.37080  0.12666  0.14029  1.0000
  C   C40       1.0  0.37700  0.13380  0.17297  1.0000
  C   C41       1.0  0.36624  0.13982  0.15504  1.0000
  C   C42       1.0  0.41367  0.08259  0.16380  1.0000
  H   H37       1.0  0.38985  0.09770  0.13196  1.0000
  H   H38       1.0  0.40085  0.11041  0.18961  1.0000
  H   H39       1.0  0.36244  0.13104  0.12633  1.0000
  H   H40       1.0  0.42503  0.08327  0.17473  1.0000
  H   H41       1.0  0.40566  0.06787  0.17017  1.0000
  C   C43       1.0  0.46328  0.15520  0.06302  1.0000
  C   C44       1.0  0.46649  0.02606  0.13075  1.0000
  C   C45       1.0  0.41582  0.24616  0.01354  1.0000
  H   H42       1.0  0.31251  0.25963  0.03912  1.0000
  H   H43       1.0  0.43470  0.29485  0.99651  1.0000
  H   H44       1.0  0.36220  0.27409  0.99247  1.0000
  H   H45       1.0  0.37274  0.30244  0.00637  1.0000
  H   H46       1.0  0.46063  0.14023  0.07459  1.0000
  H   H47       1.0  0.00552  0.47731  0.08179  1.0000
  C   C46       1.0  0.47596  0.02161  0.23311  1.0000
  H   H48       1.0  0.30219  0.47190  0.07624  1.0000
  C   C47       1.0  0.32231  0.46192  0.04922  1.0000
  H   H49       1.0  0.29882  0.28724  0.03344  1.0000
  H   H50       1.0  0.24956  0.41838  0.00309  1.0000
  C   C48       1.0  0.42600  0.23640  0.99691  1.0000
  C   C49       1.0  0.33500  0.15438  0.04471  1.0000
  H   H51       1.0  0.31949  0.12120  0.09217  1.0000
  S   S16       1.0  0.47030  0.12323  0.22434  1.0000
  H   H52       1.0  0.45130  0.99956  0.12867  1.0000
  Fe  Fe9       1.0  0.34649  0.19666  0.00439  1.0000
  H   H53       1.0  0.45436  0.39150  0.99209  1.0000
  H   H54       1.0  0.49110  0.21616  0.01484  1.0000
  C   C50       1.0  0.28345  0.45725  0.03710  1.0000
  C   C51       1.0  0.31479  0.27667  0.03108  1.0000
  C   C52       1.0  0.44334  0.03890  0.20687  1.0000
  C   C53       1.0  0.45812  0.05191  0.20857  1.0000
  H   H55       1.0  0.18202  0.47604  0.98849  1.0000
  H   H56       1.0  0.46517  0.03461  0.11442  1.0000
  H   H57       1.0  0.42089  0.43129  0.02615  1.0000
  H   H58       1.0  0.45708  0.06864  0.19960  1.0000
  H   H59       1.0  0.30381  0.14928  0.06277  1.0000
  S   S17       1.0  0.02289  0.47846  0.00482  1.0000
  N   N6        1.0  0.41796  0.44602  0.99360  1.0000
  C   C54       1.0  0.35368  0.09914  0.03151  1.0000
  H   H60       1.0  0.42387  0.08114  0.14848  1.0000
  C   C55       1.0  0.27542  0.39129  0.00056  1.0000
  C   C56       1.0  0.47597  0.03484  0.14373  1.0000
  H   H61       1.0  0.33808  0.10553  0.04034  1.0000
  C   C57       1.0  0.46123  0.00862  0.23133  1.0000
  C   C58       1.0  0.30246  0.46651  0.06183  1.0000
  H   H62       1.0  0.34625  0.32938  0.04636  1.0000
  C   C59       1.0  0.43235  0.27848  0.99673  1.0000
  S   S18       1.0  0.34319  0.22925  0.01255  1.0000
  S   S19       1.0  0.42552  0.00150  0.21761  1.0000
  H   H63       1.0  0.99888  0.47908  0.11952  1.0000
  C   C60       1.0  0.45242  0.15988  0.99620  1.0000
  C   C61       1.0  0.25837  0.40729  0.99328  1.0000
  C   C62       1.0  0.48751  0.17977  0.04210  1.0000
  S   S20       1.0  0.20846  0.46507  0.04337  1.0000
  S   S21       1.0  0.32387  0.17349  0.02345  1.0000
  S   S22       1.0  0.43063  0.09518  0.22657  1.0000
  Fe  Fe10      1.0  0.00403  0.48084  0.03664  1.0000
  H   H64       1.0  0.33731  0.46374  0.05396  1.0000
  S   S23       1.0  0.48906  0.06081  0.22791  1.0000
  H   H65       1.0  0.40111  0.03868  0.23588  1.0000
  C   C63       1.0  0.99444  0.46761  0.09258  1.0000
  C   C64       1.0  0.00044  0.48968  0.16919  1.0000
  Fe  Fe11      1.0  0.34873  0.42977  0.99122  1.0000
  C   C65       1.0  0.41166  0.43073  0.01341  1.0000
  Fe  Fe12      1.0  0.46431  0.08872  0.23549  1.0000
  H   H66       1.0  0.39456  0.10647  0.01699  1.0000
  H   H67       1.0  0.48196  0.05032  0.13760  1.0000
  C   C66       1.0  0.47592  0.13240  0.01818  1.0000
  C   C67       1.0  0.48963  0.16484  0.99600  1.0000
  C   C68       1.0  0.47390  0.21340  0.01728  1.0000
  C   C69       1.0  0.28696  0.37753  0.98754  1.0000
  C   C70       1.0  0.49284  0.14486  0.01074  1.0000
  C   C71       1.0  0.43143  0.00241  0.07556  1.0000
  H   H68       1.0  0.47144  0.99498  0.18846  1.0000
  C   C72       1.0  0.47778  0.02357  0.16461  1.0000
  S   S24       1.0  0.32516  0.40824  0.99021  1.0000
  C   C73       1.0  0.43880  0.45057  0.98884  1.0000
  H   H69       1.0  0.10368  0.49207  0.06792  1.0000
  H   H70       1.0  0.21294  0.02115  0.37052  1.0000
  C   C74       1.0  0.06277  0.07537  0.34730  1.0000
  C   C75       1.0  0.13795  0.07535  0.41122  1.0000
  S   S25       1.0  0.34244  0.99419  0.34845  1.0000
  S   S26       1.0  0.04144  0.28428  0.46732  1.0000
  H   H71       1.0  0.00123  0.33628  0.33442  1.0000
  H   H72       1.0  0.30253  0.99234  0.42770  1.0000
  S   S27       1.0  0.06235  0.22404  0.45935  1.0000
  S   S28       1.0  0.40101  0.00530  0.35163  1.0000
  C   C76       1.0  0.07287  0.03503  0.33656  1.0000
  H   H73       1.0  0.31921  0.01703  0.45451  1.0000
  C   C77       1.0  0.02244  0.38274  0.48378  1.0000
  Fe  Fe13      1.0  0.07552  0.07333  0.46193  1.0000
  S   S29       1.0  0.07140  0.10956  0.44983  1.0000
  S   S30       1.0  0.11083  0.06130  0.46545  1.0000
  Fe  Fe14      1.0  0.02777  0.07220  0.46085  1.0000
  S   S31       1.0  0.02011  0.10845  0.44882  1.0000
  C   C78       1.0  0.16314  0.00889  0.42527  1.0000
  Fe  Fe15      1.0  0.05158  0.10399  0.42723  1.0000
  S   S32       1.0  0.05557  0.12238  0.39329  1.0000
  Fe  Fe16      1.0  0.04071  0.11027  0.47251  1.0000
  H   H74       1.0  0.08688  0.08519  0.32102  1.0000
  S   S33       1.0  0.05783  0.06751  0.43744  1.0000
  C   C79       1.0  0.00970  0.25108  0.42647  1.0000
  H   H75       1.0  0.12092  0.14481  0.45585  1.0000
  H   H76       1.0  0.29128  0.00227  0.34464  1.0000
  H   H77       1.0  0.01321  0.40459  0.28203  1.0000
  S   S34       1.0  0.00093  0.05168  0.46849  1.0000
  C   C80       1.0  0.01556  0.35095  0.47404  1.0000
  Fe  Fe17      1.0  0.41973  0.10067  0.25923  1.0000
  H   H78       1.0  0.12683  0.09007  0.40420  1.0000
  S   S35       1.0  0.38915  0.08937  0.27790  1.0000
  C   C81       1.0  0.38192  0.00172  0.29551  1.0000
  C   C82       1.0  0.39268  0.06573  0.29803  1.0000
  H   H79       1.0  0.14870  0.01725  0.45476  1.0000
  S   S36       1.0  0.45296  0.09047  0.26931  1.0000
  C   C83       1.0  0.10147  0.15997  0.48022  1.0000
  C   C84       1.0  0.42108  0.99601  0.29312  1.0000
  N   N7        1.0  0.08373  0.05174  0.32531  1.0000
  H   H80       1.0  0.00851  0.42115  0.31451  1.0000
  Fe  Fe18      1.0  0.14337  0.04773  0.34210  1.0000
  S   S37       1.0  0.11920  0.02721  0.36177  1.0000
  H   H81       1.0  0.03634  0.40713  0.31463  1.0000
  C   C85       1.0  0.07854  0.07184  0.33019  1.0000
  C   C86       1.0  0.01906  0.40559  0.32078  1.0000
  C   C87       1.0  0.01459  0.34797  0.41622  1.0000
  C   C88       1.0  0.26799  0.01781  0.36651  1.0000
  H   H82       1.0  0.15317  0.04497  0.47661  1.0000
  C   C89       1.0  0.07796  0.11178  0.37689  1.0000
  C   C90       1.0  0.09002  0.09112  0.38363  1.0000
  C   C91       1.0  0.10044  0.11547  0.34259  1.0000
  C   C92       1.0  0.08330  0.12396  0.35639  1.0000
  H   H83       1.0  0.08611  0.08166  0.39943  1.0000
  H   H84       1.0  0.10435  0.12494  0.32671  1.0000
  H   H85       1.0  0.07406  0.13996  0.35111  1.0000
  H   H86       1.0  0.39033  0.05758  0.25297  1.0000
  C   C93       1.0  0.00772  0.37058  0.48030  1.0000
  C   C94       1.0  0.37691  0.04026  0.32810  1.0000
  C   C95       1.0  0.48319  0.99516  0.29417  1.0000
  C   C96       1.0  0.40336  0.04380  0.25022  1.0000
  C   C97       1.0  0.41595  0.03565  0.31784  1.0000
  C   C98       1.0  0.16371  0.01290  0.44500  1.0000
  H   H87       1.0  0.17473  0.05409  0.42565  1.0000
  C   C99       1.0  0.49214  0.10433  0.29967  1.0000
  C   C100      1.0  0.05283  0.19901  0.46903  1.0000
  H   H88       1.0  0.42220  0.05073  0.35539  1.0000
  S   S38       1.0  0.04618  0.07431  0.48654  1.0000
  C   C101      1.0  0.00537  0.37238  0.28681  1.0000
  C   C102      1.0  0.04934  0.16361  0.46393  1.0000
  C   C103      1.0  0.05707  0.18361  0.45642  1.0000
  H   H89       1.0  0.99681  0.34005  0.29662  1.0000
  S   S39       1.0  0.34651  0.00760  0.39321  1.0000
  H   H90       1.0  0.05247  0.15195  0.45400  1.0000
  H   H91       1.0  0.06625  0.18718  0.44079  1.0000
  H   H92       1.0  0.04438  0.32855  0.46634  1.0000
  H   H93       1.0  0.02028  0.32156  0.44310  1.0000
  C   C104      1.0  0.05715  0.03793  0.35389  1.0000
  H   H94       1.0  0.09320  0.05410  0.29235  1.0000
  H   H95       1.0  0.42885  0.12914  0.30039  1.0000
  H   H96       1.0  0.07990  0.02261  0.43543  1.0000
  C   C105      1.0  0.30898  0.00628  0.46551  1.0000
  H   H97       1.0  0.04898  0.02445  0.36305  1.0000
  C   C106      1.0  0.48966  0.12719  0.29360  1.0000
  C   C107      1.0  0.01007  0.36840  0.32884  1.0000
  H   H98       1.0  0.24115  0.03166  0.38645  1.0000
  C   C108      1.0  0.19807  0.06015  0.39783  1.0000
  H   H99       1.0  0.43207  0.02672  0.32022  1.0000
  S   S40       1.0  0.28754  0.02549  0.37808  1.0000
  H   H100      1.0  0.21162  0.05037  0.40573  1.0000
  H   H101      1.0  0.40553  0.13087  0.32055  1.0000
  S   S41       1.0  0.00613  0.38265  0.38327  1.0000
  H   H102      1.0  0.13843  0.07618  0.42781  1.0000
  C   C109      1.0  0.24586  0.02320  0.37367  1.0000
  H   H103      1.0  0.00341  0.37419  0.27033  1.0000
  C   C110      1.0  0.22992  0.01728  0.36464  1.0000
  H   H104      1.0  0.21756  0.99594  0.41036  1.0000
  C   C111      1.0  0.08123  0.00778  0.44776  1.0000
  N   N8        1.0  0.04435  0.37529  0.48139  1.0000
  Fe  Fe19      1.0  0.18091  0.00957  0.34578  1.0000
  H   H105      1.0  0.03043  0.35278  0.41461  1.0000
  H   H106      1.0  0.40330  0.08185  0.33092  1.0000
  H   H107      1.0  0.45777  0.05348  0.36517  1.0000
  H   H108      1.0  0.04018  0.06071  0.37286  1.0000
  H   H109      1.0  0.36629  0.99729  0.30325  1.0000
  C   C112      1.0  0.29119  0.00410  0.43590  1.0000
  S   S42       1.0  0.13238  0.08366  0.33096  1.0000
  N   N9        1.0  0.42809  0.10157  0.32654  1.0000
  C   C113      1.0  0.41884  0.08313  0.33506  1.0000
  C   C114      1.0  0.44718  0.10358  0.33253  1.0000
  C   C115      1.0  0.42938  0.06554  0.34902  1.0000
  C   C116      1.0  0.45818  0.08631  0.34645  1.0000
  C   C117      1.0  0.44929  0.06710  0.35455  1.0000
  C   C118      1.0  0.41696  0.11970  0.31171  1.0000
  C   C119      1.0  0.00887  0.33030  0.43236  1.0000
  H   H110      1.0  0.45416  0.11850  0.32632  1.0000
  H   H111      1.0  0.14904  0.09340  0.37023  1.0000
  C   C120      1.0  0.31205  0.00030  0.48691  1.0000
  C   C121      1.0  0.09867  0.00239  0.45964  1.0000
  N   N10       1.0  0.40270  0.02528  0.26852  1.0000
  C   C122      1.0  0.10043  0.04844  0.30739  1.0000
  H   H112      1.0  0.42754  0.05896  0.29058  1.0000
  S   S43       1.0  0.00800  0.24865  0.48473  1.0000
  C   C123      1.0  0.05220  0.05822  0.35935  1.0000
  C   C124      1.0  0.05223  0.35639  0.47456  1.0000
  C   C125      1.0  0.00872  0.23049  0.43994  1.0000
  H   H113      1.0  0.18224  0.99976  0.39735  1.0000
  C   C126      1.0  0.20308  0.00448  0.43996  1.0000
  H   H114      1.0  0.05896  0.09124  0.35135  1.0000
  C   C127      1.0  0.18370  0.01088  0.45227  1.0000
  S   S44       1.0  0.13808  0.01027  0.41692  1.0000
  C   C128      1.0  0.41342  0.05401  0.30108  1.0000
  Fe  Fe20      1.0  0.04392  0.24801  0.47833  1.0000
  H   H115      1.0  0.36814  0.99454  0.43325  1.0000
  C   C129      1.0  0.03774  0.15879  0.48423  1.0000
  H   H116      1.0  0.02349  0.21866  0.44103  1.0000
  H   H117      1.0  0.18413  0.01323  0.46791  1.0000
  N   N11       1.0  0.15984  0.07430  0.39926  1.0000
  H   H118      1.0  0.11047  0.01345  0.45646  1.0000
  C   C130      1.0  0.16278  0.08432  0.37821  1.0000
  C   C131      1.0  0.18353  0.08257  0.36648  1.0000
  C   C132      1.0  0.20126  0.07032  0.37637  1.0000
  S   S45       1.0  0.15780  0.02399  0.32143  1.0000
  S   S46       1.0  0.16845  0.03561  0.36411  1.0000
  H   H119      1.0  0.18567  0.09009  0.34967  1.0000
  H   H120      1.0  0.21737  0.06841  0.36734  1.0000
  H   H121      1.0  0.13107  0.06049  0.41158  1.0000
  C   C133      1.0  0.38304  0.01938  0.27806  1.0000
  C   C134      1.0  0.00409  0.35112  0.32275  1.0000
  H   H122      1.0  0.38411  0.01168  0.45582  1.0000
  C   C135      1.0  0.01097  0.38947  0.29351  1.0000
  C   C136      1.0  0.11214  0.09461  0.34911  1.0000
  C   C137      1.0  0.39767  0.02871  0.33128  1.0000
  H   H123      1.0  0.29489  0.02080  0.42832  1.0000
  H   H124      1.0  0.36275  0.03511  0.33857  1.0000
  H   H125      1.0  0.11624  0.06657  0.37502  1.0000
  C   C138      1.0  0.17712  0.06228  0.40906  1.0000
  C   C139      1.0  0.11014  0.14239  0.47071  1.0000
  H   H126      1.0  0.47001  0.00880  0.29237  1.0000
  C   C140      1.0  0.10704  0.08252  0.36972  1.0000
  H   H127      1.0  0.43720  0.01836  0.26809  1.0000
  C   C141      1.0  0.37443  0.05878  0.31150  1.0000
  H   H128      1.0  0.35834  0.06784  0.30921  1.0000
  C   C142      1.0  0.37574  0.99786  0.46300  1.0000
  C   C143      1.0  0.25827  0.00067  0.34111  1.0000
  C   C144      1.0  0.42162  0.01367  0.27561  1.0000
  H   H129      1.0  0.48234  0.09556  0.29397  1.0000
  H   H130      1.0  0.36808  0.02854  0.27236  1.0000
  Fe  Fe21      1.0  0.14534  0.01307  0.38220  1.0000
  H   H131      1.0  0.11401  0.05756  0.30656  1.0000
  H   H132      1.0  0.07654  0.01924  0.33238  1.0000
  N   N12       1.0  0.29368  0.99825  0.45848  1.0000
  Fe  Fe22      1.0  0.13557  0.00224  0.34327  1.0000
  C   C145      1.0  0.23608  0.00608  0.34824  1.0000
  C   C146      1.0  0.10456  0.12173  0.48036  1.0000
  H   H133      1.0  0.10775  0.03093  0.30906  1.0000
  H   H134      1.0  0.06437  0.39997  0.47101  1.0000
  S   S47       1.0  0.47071  0.14259  0.27667  1.0000
  H   H135      1.0  0.01700  0.40325  0.33832  1.0000
  C   C147      1.0  0.27421  0.00635  0.35034  1.0000
  Fe  Fe23      1.0  0.31995  0.00369  0.37633  1.0000
  H   H136      1.0  0.01194  0.36662  0.34533  1.0000
  H   H137      1.0  0.40771  0.11361  0.30202  1.0000
  H   H138      1.0  0.06956  0.35024  0.47291  1.0000
  H   H139      1.0  0.47359  0.08778  0.35078  1.0000
  Fe  Fe24      1.0  0.45608  0.12573  0.25759  1.0000
  H   H140      1.0  0.41911  0.05005  0.24727  1.0000
  C   C148      1.0  0.06581  0.99379  0.45173  1.0000
  Fe  Fe25      1.0  0.36903  0.99459  0.36712  1.0000
  N   N13       1.0  0.01304  0.38741  0.31433  1.0000
  S   S48       1.0  0.22664  0.99551  0.45207  1.0000
  C   C149      1.0  0.18258  0.00339  0.41247  1.0000
  C   C150      1.0  0.20263  0.00127  0.41979  1.0000
  S   S49       1.0  0.42175  0.13644  0.24983  1.0000
  Fe  Fe26      1.0  0.00546  0.28494  0.47648  1.0000
  H   H141      1.0  0.00422  0.34093  0.47224  1.0000
  H   H142      1.0  0.10520  0.17624  0.47271  1.0000
  H   H143      1.0  0.02508  0.25505  0.41750  1.0000
  C   C151      1.0  0.99965  0.35968  0.40246  1.0000
  C   C152      1.0  0.00166  0.35320  0.30159  1.0000
  H   H144      1.0  0.00208  0.19173  0.46220  1.0000
  H   H145      1.0  0.27424  0.00393  0.43342  1.0000
  C   C153      1.0  0.03797  0.34396  0.47082  1.0000
  H   H146      1.0  0.48818  0.01506  0.24373  1.0000
  H   H147      1.0  0.05212  0.99783  0.44272  1.0000
  H   H148      1.0  0.11138  0.10810  0.47289  1.0000
  S   S50       1.0  0.21665  0.99774  0.33698  1.0000
  C   C154      1.0  0.05948  0.38794  0.48563  1.0000
  H   H149      1.0  0.36717  0.08873  0.66166  1.0000
  N   N14       1.0  0.00281  0.43692  0.59332  1.0000
  H   H150      1.0  0.40185  0.10414  0.57172  1.0000
  S   S51       1.0  0.02921  0.44281  0.72872  1.0000
  C   C155      1.0  0.44336  0.02583  0.58496  1.0000
  H   H151      1.0  0.36739  0.00414  0.62573  1.0000
  H   H152      1.0  0.45097  0.08206  0.73629  1.0000
  H   H153      1.0  0.32432  0.00656  0.49241  1.0000
  C   C156      1.0  0.10511  0.02991  0.50260  1.0000
  S   S52       1.0  0.02063  0.39046  0.54251  1.0000
  H   H154      1.0  0.25733  0.00375  0.55249  1.0000
  S   S53       1.0  0.40452  0.08980  0.73355  1.0000
  C   C157      1.0  0.99886  0.45545  0.57788  1.0000
  H   H155      1.0  0.17356  0.99399  0.56392  1.0000
  H   H156      1.0  0.46087  0.00234  0.64467  1.0000
  H   H157      1.0  0.05189  0.39669  0.49842  1.0000
  S   S54       1.0  0.04779  0.24754  0.51165  1.0000
  S   S55       1.0  0.34920  0.02124  0.55025  1.0000
  Fe  Fe27      1.0  0.44404  0.07048  0.66385  1.0000
  S   S56       1.0  0.45624  0.07745  0.69123  1.0000
  S   S57       1.0  0.44926  0.08497  0.62890  1.0000
  Fe  Fe28      1.0  0.42307  0.03253  0.69026  1.0000
  S   S58       1.0  0.43351  0.03483  0.72061  1.0000
  S   S59       1.0  0.40298  0.00948  0.68462  1.0000
  Fe  Fe29      1.0  0.42380  0.07101  0.70962  1.0000
  H   H158      1.0  0.01895  0.40375  0.59998  1.0000
  Fe  Fe30      1.0  0.46533  0.04110  0.70078  1.0000
  C   C158      1.0  0.01065  0.41587  0.58736  1.0000
  S   S60       1.0  0.41038  0.06819  0.68102  1.0000
  S   S61       1.0  0.45612  0.03463  0.67182  1.0000
  H   H159      1.0  0.48859  0.06602  0.64746  1.0000
  H   H160      1.0  0.36907  0.08587  0.57899  1.0000
  H   H161      1.0  0.20057  0.00842  0.57817  1.0000
  H   H162      1.0  0.02401  0.17080  0.51236  1.0000
  C   C159      1.0  0.40268  0.10271  0.60469  1.0000
  H   H163      1.0  0.01676  0.32406  0.51966  1.0000
  C   C160      1.0  0.08190  0.13592  0.50822  1.0000
  C   C161      1.0  0.13588  0.00632  0.51862  1.0000
  H   H164      1.0  0.48253  0.99748  0.69633  1.0000
  S   S62       1.0  0.02995  0.13301  0.49469  1.0000
  S   S63       1.0  0.38467  0.00272  0.50081  1.0000
  H   H165      1.0  0.37203  0.06136  0.65728  1.0000
  C   C162      1.0  0.15012  0.01833  0.50373  1.0000
  C   C163      1.0  0.04056  0.19451  0.48904  1.0000
  H   H166      1.0  0.43821  0.00859  0.56243  1.0000
  N   N15       1.0  0.46567  0.00521  0.61159  1.0000
  C   C164      1.0  0.45323  0.02426  0.60290  1.0000
  S   S64       1.0  0.38289  0.03686  0.58934  1.0000
  S   S65       1.0  0.06212  0.30416  0.51108  1.0000
  C   C165      1.0  0.39398  0.09940  0.58784  1.0000
  C   C166      1.0  0.37548  0.08938  0.59189  1.0000
  H   H167      1.0  0.41739  0.11002  0.60182  1.0000
  H   H168      1.0  0.40005  0.09796  0.63843  1.0000
  H   H169      1.0  0.00167  0.42318  0.62655  1.0000
  C   C167      1.0  0.49117  0.06405  0.63128  1.0000
  C   C168      1.0  0.36594  0.08272  0.61282  1.0000
  H   H170      1.0  0.00149  0.45459  0.56132  1.0000
  Fe  Fe31      1.0  0.04133  0.28417  0.50161  1.0000
  Fe  Fe32      1.0  0.01152  0.25067  0.51734  1.0000
  H   H171      1.0  0.08031  0.33305  0.52739  1.0000
  S   S66       1.0  0.00388  0.44511  0.67689  1.0000
  C   C169      1.0  0.39273  0.09587  0.62544  1.0000
  C   C170      1.0  0.38859  0.02844  0.61578  1.0000
  C   C171      1.0  0.40275  0.03900  0.62241  1.0000
  C   C172      1.0  0.40756  0.03288  0.64334  1.0000
  C   C173      1.0  0.39770  0.01654  0.65806  1.0000
  C   C174      1.0  0.38311  0.00628  0.65161  1.0000
  C   C175      1.0  0.37871  0.01208  0.63048  1.0000
  H   H172      1.0  0.41013  0.05195  0.61131  1.0000
  H   H173      1.0  0.41871  0.04106  0.64807  1.0000
  H   H174      1.0  0.06648  0.09852  0.51355  1.0000
  H   H175      1.0  0.37501  0.99399  0.66295  1.0000
  C   C176      1.0  0.44620  0.00771  0.57603  1.0000
  S   S67       1.0  0.29622  0.99814  0.57105  1.0000
  C   C177      1.0  0.47468  0.07251  0.61838  1.0000
  H   H176      1.0  0.34675  0.07917  0.65208  1.0000
  H   H177      1.0  0.08035  0.17036  0.50653  1.0000
  N   N16       1.0  0.37440  0.08629  0.62926  1.0000
  H   H178      1.0  0.10224  0.00323  0.53008  1.0000
  N   N17       1.0  0.09029  0.11882  0.49869  1.0000
  H   H179      1.0  0.46565  0.07687  0.58725  1.0000
  C   C178      1.0  0.47832  0.07023  0.59732  1.0000
  H   H180      1.0  0.99661  0.27603  0.58341  1.0000
  C   C179      1.0  0.36460  0.07852  0.65113  1.0000
  Fe  Fe33      1.0  0.37022  0.01271  0.57641  1.0000
  H   H181      1.0  0.09294  0.08977  0.52276  1.0000
  H   H182      1.0  0.35220  0.07397  0.61583  1.0000
  H   H183      1.0  0.48183  0.01827  0.63030  1.0000
  C   C180      1.0  0.03133  0.36483  0.53656  1.0000
  C   C181      1.0  0.05374  0.35748  0.53564  1.0000
  C   C182      1.0  0.06287  0.33831  0.52863  1.0000
  C   C183      1.0  0.04963  0.32622  0.52269  1.0000
  C   C184      1.0  0.02709  0.33306  0.52445  1.0000
  C   C185      1.0  0.01797  0.35241  0.53123  1.0000
  H   H184      1.0  0.06416  0.36692  0.53982  1.0000
  H   H185      1.0  0.00732  0.29071  0.55753  1.0000
  C   C186      1.0  0.47436  0.00362  0.63128  1.0000
  H   H186      1.0  0.43304  0.04077  0.57840  1.0000
  C   C187      1.0  0.11331  0.01253  0.51852  1.0000
  S   S68       1.0  0.99566  0.22718  0.54389  1.0000
  H   H187      1.0  0.45047  0.03819  0.61018  1.0000
  H   H188      1.0  0.00074  0.35813  0.53138  1.0000
  H   H189      1.0  0.03719  0.20634  0.49889  1.0000
  C   C188      1.0  0.08746  0.15669  0.49922  1.0000
  H   H190      1.0  0.02263  0.41765  0.57273  1.0000
  Fe  Fe34      1.0  0.37245  0.99595  0.53588  1.0000
  Fe  Fe35      1.0  0.00090  0.44264  0.71193  1.0000
  H   H191      1.0  0.08777  0.03401  0.50188  1.0000
  H   H192      1.0  0.99681  0.40910  0.58446  1.0000
  H   H193      1.0  0.16750  0.01377  0.50392  1.0000
  S   S69       1.0  0.00499  0.28728  0.51009  1.0000
  H   H194      1.0  0.07034  0.13370  0.52257  1.0000
  C   C189      1.0  0.99881  0.43787  0.61425  1.0000
  C   C190      1.0  0.08438  0.09719  0.50866  1.0000
  H   H195      1.0  0.00197  0.09913  0.50847  1.0000
  H   H196      1.0  0.01624  0.39766  0.48930  1.0000
  H   H197      1.0  0.07426  0.37703  0.49134  1.0000
  H   H198      1.0  0.43305  0.00135  0.50479  1.0000
  Fe  Fe36      1.0  0.33283  0.99284  0.56889  1.0000
  H   H199      1.0  0.00266  0.26331  0.56097  1.0000
  C   C191      1.0  0.99617  0.27891  0.56610  1.0000
  C   C192      1.0  0.03310  0.17437  0.49668  1.0000
  H   H200      1.0  0.08880  0.08593  0.49760  1.0000
  C   C193      1.0  0.14196  0.03600  0.48832  1.0000
  C   C194      1.0  0.11957  0.04132  0.48722  1.0000
  H   H201      1.0  0.39283  0.09145  0.81105  1.0000
  H   H202      1.0  0.24421  0.41037  0.93578  1.0000
  H   H203      1.0  0.49071  0.16951  0.94305  1.0000
  C   C195      1.0  0.43532  0.40521  0.96623  1.0000
  C   C196      1.0  0.47228  0.00966  0.77262  1.0000
  C   C197      1.0  0.44220  0.26866  0.97990  1.0000
  H   H204      1.0  0.42901  0.00391  0.88716  1.0000
  H   H205      1.0  0.37870  0.03244  0.85531  1.0000
  Fe  Fe37      1.0  0.33003  0.42171  0.95499  1.0000
  H   H206      1.0  0.47293  0.16155  0.78533  1.0000
  S   S70       1.0  0.29892  0.42870  0.94041  1.0000
  S   S71       1.0  0.35139  0.44535  0.95659  1.0000
  S   S72       1.0  0.35784  0.39544  0.94832  1.0000
  S   S73       1.0  0.34736  0.21070  0.96923  1.0000
  C   C198      1.0  0.18858  0.47977  0.97189  1.0000
  H   H207      1.0  0.46208  0.46735  0.96561  1.0000
  H   H208      1.0  0.39222  0.11572  0.76497  1.0000
  H   H209      1.0  0.05655  0.45466  0.75359  1.0000
  Fe  Fe38      1.0  0.38357  0.20504  0.96928  1.0000
  S   S74       1.0  0.40978  0.19235  0.94534  1.0000
  C   C199      1.0  0.40966  0.11053  0.76386  1.0000
  S   S75       1.0  0.06060  0.48415  0.83021  1.0000
  H   H210      1.0  0.10408  0.48002  0.95999  1.0000
  S   S76       1.0  0.45867  0.28204  0.95840  1.0000
  C   C200      1.0  0.47191  0.41213  0.96634  1.0000
  H   H211      1.0  0.04784  0.47393  0.78333  1.0000
  C   C201      1.0  0.03975  0.46018  0.75924  1.0000
  Fe  Fe39      1.0  0.43837  0.08363  0.86645  1.0000
  S   S77       1.0  0.46943  0.09281  0.84724  1.0000
  S   S78       1.0  0.43426  0.04865  0.88106  1.0000
  Fe  Fe40      1.0  0.41681  0.13079  0.86230  1.0000
  S   S79       1.0  0.44575  0.14399  0.84178  1.0000
  S   S80       1.0  0.38705  0.15215  0.87448  1.0000
  Fe  Fe41      1.0  0.44754  0.11648  0.82556  1.0000
  C   C202      1.0  0.42162  0.11612  0.77736  1.0000
  Fe  Fe42      1.0  0.46501  0.11934  0.86513  1.0000
  C   C203      1.0  0.33925  0.33516  0.97195  1.0000
  S   S81       1.0  0.41655  0.10560  0.84370  1.0000
  S   S82       1.0  0.43601  0.10776  0.88667  1.0000
  C   C204      1.0  0.43668  0.04163  0.84103  1.0000
  C   C205      1.0  0.43419  0.03268  0.86284  1.0000
  C   C206      1.0  0.43090  0.01088  0.87029  1.0000
  H   H212      1.0  0.40934  0.02575  0.78063  1.0000
  H   H213      1.0  0.43930  0.05842  0.83515  1.0000
  C   C207      1.0  0.40950  0.46798  0.95976  1.0000
  C   C208      1.0  0.42706  0.26346  0.92372  1.0000
  C   C209      1.0  0.21905  0.47741  0.94412  1.0000
  C   C210      1.0  0.39169  0.03192  0.78406  1.0000
  C   C211      1.0  0.42963  0.99818  0.85603  1.0000
  C   C212      1.0  0.47488  0.16936  0.87461  1.0000
  Fe  Fe43      1.0  0.34804  0.24265  0.97753  1.0000
  C   C213      1.0  0.30269  0.48577  0.89681  1.0000
  S   S83       1.0  0.45989  0.11836  0.79094  1.0000
  H   H214      1.0  0.46220  0.16573  0.86758  1.0000
  C   C214      1.0  0.40265  0.18337  0.92454  1.0000
  C   C215      1.0  0.38095  0.18310  0.92269  1.0000
  C   C216      1.0  0.37610  0.17398  0.90695  1.0000
  C   C217      1.0  0.39293  0.16487  0.89326  1.0000
  C   C218      1.0  0.41453  0.16565  0.89486  1.0000
  C   C219      1.0  0.41934  0.17528  0.91014  1.0000
  H   H215      1.0  0.36791  0.18965  0.93345  1.0000
  H   H216      1.0  0.35934  0.17356  0.90564  1.0000
  H   H217      1.0  0.42752  0.15879  0.88429  1.0000
  H   H218      1.0  0.43613  0.17593  0.91107  1.0000
  C   C220      1.0  0.00134  0.46349  0.75719  1.0000
  H   H219      1.0  0.44070  0.26899  0.92765  1.0000
  C   C221      1.0  0.13900  0.48467  0.90227  1.0000
  C   C222      1.0  0.00388  0.41509  0.78732  1.0000
  C   C223      1.0  0.03485  0.47109  0.77605  1.0000
  C   C224      1.0  0.44424  0.10994  0.77560  1.0000
  C   C225      1.0  0.38981  0.07473  0.81432  1.0000
  C   C226      1.0  0.39251  0.24825  0.91426  1.0000
  C   C227      1.0  0.99649  0.47425  0.77394  1.0000
  C   C228      1.0  0.02297  0.45647  0.74970  1.0000
  C   C229      1.0  0.43149  0.00733  0.83428  1.0000
  H   H220      1.0  0.47290  0.32153  0.92473  1.0000
  H   H221      1.0  0.46495  0.02650  0.76704  1.0000
  C   C230      1.0  0.49049  0.32269  0.92289  1.0000
  H   H222      1.0  0.41684  0.22587  0.89965  1.0000
  C   C231      1.0  0.43061  0.47296  0.95489  1.0000
  H   H223      1.0  0.39553  0.07290  0.78157  1.0000
  H   H224      1.0  0.32240  0.32356  0.95199  1.0000
  H   H225      1.0  0.43652  0.03625  0.80998  1.0000
  C   C232      1.0  0.21060  0.47290  0.96552  1.0000
  C   C233      1.0  0.34144  0.29684  0.97137  1.0000
  Fe  Fe44      1.0  0.37902  0.41772  0.95354  1.0000
  N   N18       1.0  0.47950  0.14065  0.94133  1.0000
  C   C234      1.0  0.38496  0.06334  0.83516  1.0000
  H   H226      1.0  0.38623  0.04333  0.76947  1.0000
  N   N19       1.0  0.26424  0.39555  0.96044  1.0000
  C   C235      1.0  0.99667  0.47764  0.87106  1.0000
  S   S84       1.0  0.42769  0.99262  0.81623  1.0000
  C   C236      1.0  0.39139  0.06420  0.79771  1.0000
  H   H227      1.0  0.33276  0.35218  0.96638  1.0000
  C   C237      1.0  0.49175  0.15285  0.88154  1.0000
  C   C238      1.0  0.46961  0.11157  0.92958  1.0000
  C   C239      1.0  0.38893  0.26503  0.92524  1.0000
  C   C240      1.0  0.03537  0.48599  0.92906  1.0000
  S   S85       1.0  0.47891  0.22265  0.94349  1.0000
  S   S86       1.0  0.38416  0.23790  0.97490  1.0000
  C   C241      1.0  0.45271  0.42858  0.93577  1.0000
  C   C242      1.0  0.20573  0.48980  0.92910  1.0000
  C   C243      1.0  0.48542  0.12256  0.93285  1.0000
  H   H228      1.0  0.44783  0.23962  0.90777  1.0000
  C   C244      1.0  0.30818  0.46675  0.91228  1.0000
  C   C245      1.0  0.29310  0.45245  0.92073  1.0000
  H   H229      1.0  0.46651  0.18786  0.97771  1.0000
  C   C246      1.0  0.44182  0.13699  0.94463  1.0000
  H   H230      1.0  0.32412  0.46305  0.91745  1.0000
  S   S87       1.0  0.41068  0.42521  0.93360  1.0000
  S   S88       1.0  0.00588  0.49158  0.80443  1.0000
  C   C247      1.0  0.17513  0.49193  0.95681  1.0000
  C   C248      1.0  0.47473  0.19088  0.87614  1.0000
  H   H231      1.0  0.15660  0.48053  0.89951  1.0000
  H   H232      1.0  0.99698  0.46005  0.87869  1.0000
  C   C249      1.0  0.42014  0.09809  0.74908  1.0000
  H   H233      1.0  0.37925  0.16117  0.96616  1.0000
  C   C250      1.0  0.33341  0.31898  0.96385  1.0000
  S   S89       1.0  0.33275  0.27653  0.96244  1.0000
  S   S90       1.0  0.05121  0.48643  0.88797  1.0000
  C   C251      1.0  0.25879  0.39784  0.93910  1.0000
  C   C252      1.0  0.43889  0.24772  0.98008  1.0000
  C   C253      1.0  0.47799  0.00238  0.79313  1.0000
  H   H234      1.0  0.42177  0.39697  0.97395  1.0000
  C   C254      1.0  0.01312  0.47808  0.78341  1.0000
  C   C255      1.0  0.38330  0.03169  0.82209  1.0000
  H   H235      1.0  0.02350  0.48539  0.96174  1.0000
  C   C256      1.0  0.41380  0.23919  0.90781  1.0000
  C   C257      1.0  0.47128  0.42535  0.94593  1.0000
  H   H236      1.0  0.26084  0.44628  0.92026  1.0000
  H   H237      1.0  0.38634  0.29998  0.94023  1.0000
  C   C258      1.0  0.47602  0.99505  0.75933  1.0000
  H   H238      1.0  0.38708  0.45037  0.98283  1.0000
  H   H239      1.0  0.99851  0.40198  0.76182  1.0000
  H   H240      1.0  0.04828  0.47234  0.93263  1.0000
  C   C259      1.0  0.44272  0.09169  0.74755  1.0000
  H   H241      1.0  0.37888  0.24194  0.91120  1.0000
  H   H242      1.0  0.02149  0.41107  0.78438  1.0000
  C   C260      1.0  0.28196  0.47238  0.96894  1.0000
  C   C261      1.0  0.48013  0.18079  0.80529  1.0000
  H   H243      1.0  0.13479  0.48959  0.86944  1.0000
  H   H244      1.0  0.00428  0.43112  0.81230  1.0000
  H   H245      1.0  0.33993  0.15819  0.97620  1.0000
  H   H246      1.0  0.41347  0.12579  0.78863  1.0000
  C   C262      1.0  0.43122  0.24683  0.91251  1.0000
  C   C263      1.0  0.44767  0.11886  0.93555  1.0000
  C   C264      1.0  0.44536  0.46430  0.96954  1.0000
  C   C265      1.0  0.28115  0.37996  0.96737  1.0000
  H   H247      1.0  0.13817  0.48181  0.93564  1.0000
  H   H248      1.0  0.37231  0.27166  0.93063  1.0000
  C   C266      1.0  0.27255  0.45729  0.91380  1.0000
  C   C267      1.0  0.40210  0.28899  0.94258  1.0000
  H   H249      1.0  0.43520  0.11070  0.93283  1.0000
  H   H250      1.0  0.42482  0.14304  0.94903  1.0000
  C   C268      1.0  0.45476  0.09792  0.76053  1.0000
  C   C269      1.0  0.12846  0.48543  0.92272  1.0000
  H   H251      1.0  0.40163  0.28089  0.95967  1.0000
  H   H252      1.0  0.41518  0.29933  0.93836  1.0000
  C   C270      1.0  0.43520  0.02901  0.82679  1.0000
  H   H253      1.0  0.47131  0.00042  0.74353  1.0000
  C   C271      1.0  0.43448  0.41890  0.94604  1.0000
  H   H254      1.0  0.46182  0.20365  0.87037  1.0000
  H   H255      1.0  0.38172  0.01455  0.82535  1.0000
  C   C272      1.0  0.35589  0.29104  0.98648  1.0000
  H   H256      1.0  0.47228  0.09330  0.75896  1.0000
  H   H257      1.0  0.45221  0.43918  0.92015  1.0000
  H   H258      1.0  0.40652  0.13527  0.98686  1.0000
  H   H259      1.0  0.47482  0.01373  0.80350  1.0000
  C   C273      1.0  0.26690  0.47649  0.89871  1.0000
  N   N20       1.0  0.38815  0.04298  0.80170  1.0000
  H   H260      1.0  0.47435  0.09781  0.92198  1.0000
  N   N21       1.0  0.40612  0.27244  0.92982  1.0000
  H   H261      1.0  0.24002  0.42210  0.96737  1.0000
  C   C274      1.0  0.38160  0.04169  0.83912  1.0000
  H   H262      1.0  0.45318  0.16254  0.95344  1.0000
  H   H263      1.0  0.27264  0.40299  0.92710  1.0000
  H   H264      1.0  0.38445  0.07106  0.84826  1.0000
  H   H265      1.0  0.44530  0.24056  0.96676  1.0000
  H   H266      1.0  0.27442  0.47128  0.98567  1.0000
  H   H267      1.0  0.46860  0.19506  0.79943  1.0000
  H   H268      1.0  0.48464  0.43394  0.93830  1.0000
  H   H269      1.0  0.23608  0.47223  0.93932  1.0000
  H   H270      1.0  0.38268  0.01785  0.78788  1.0000
  H   H271      1.0  0.25546  0.38205  0.93722  1.0000
  H   H272      1.0  0.00289  0.47920  0.85393  1.0000
  C   C275      1.0  0.35207  0.14653  0.98472  1.0000
  C   C276      1.0  0.45393  0.40194  0.97640  1.0000
  C   C277      1.0  0.48256  0.16204  0.79735  1.0000
  H   H273      1.0  0.00815  0.48410  0.87808  1.0000
  Fe  Fe45      1.0  0.48318  0.25561  0.94698  1.0000
  C   C278      1.0  0.49232  0.18092  0.82105  1.0000
  C   C279      1.0  0.28200  0.49072  0.89012  1.0000
  H   H274      1.0  0.49037  0.19528  0.82760  1.0000
  C   C280      1.0  0.37409  0.14828  0.97916  1.0000
  H   H275      1.0  0.39815  0.47388  0.94816  1.0000
  C   C281      1.0  0.40340  0.45444  0.97932  1.0000
  C   C282      1.0  0.25299  0.40926  0.97303  1.0000
  H   H276      1.0  0.27154  0.46546  0.96110  1.0000
  N   N22       1.0  0.10633  0.49113  0.92628  1.0000
  H   H277      1.0  0.25096  0.48017  0.89354  1.0000
  Fe  Fe46      1.0  0.35443  0.38366  0.98362  1.0000
  C   C283      1.0  0.12679  0.48997  0.88540  1.0000
  C   C284      1.0  0.45800  0.14794  0.94715  1.0000
  H   H278      1.0  0.29056  0.36964  0.95708  1.0000
  H   H279      1.0  0.29821  0.46193  0.96846  1.0000
  H   H280      1.0  0.43573  0.48292  0.93953  1.0000
  S   S91       1.0  0.22825  0.46134  0.98435  1.0000
  S   S92       1.0  0.49329  0.12611  0.87816  1.0000
  S   S93       1.0  0.49135  0.22326  0.88550  1.0000
  C   C285      1.0  0.49116  0.19593  0.88512  1.0000
  H   H281      1.0  0.49228  0.30546  0.96378  1.0000
  H   H282      1.0  0.07849  0.48961  0.95014  1.0000
  S   S94       1.0  0.44087  0.90651  0.08138  1.0000
  C   C286      1.0  0.45713  0.94263  0.01262  1.0000
  Fe  Fe47      1.0  0.44441  0.87982  0.06373  1.0000
  C   C287      1.0  0.24583  0.54153  0.06164  1.0000
  H   H283      1.0  0.46798  0.78407  0.03839  1.0000
  C   C288      1.0  0.43312  0.79368  0.04231  1.0000
  C   C289      1.0  0.43271  0.98023  0.08553  1.0000
  C   C290      1.0  0.36640  0.90368  0.99689  1.0000
  C   C291      1.0  0.46313  0.96157  0.03810  1.0000
  S   S95       1.0  0.20638  0.51384  0.05251  1.0000
  S   S96       1.0  0.42616  0.93930  0.22666  1.0000
  C   C292      1.0  0.49095  0.84730  0.01298  1.0000
  H   H284      1.0  0.11357  0.55947  0.06153  1.0000
  S   S97       1.0  0.31712  0.58246  0.99200  1.0000
  H   H285      1.0  0.33041  0.92982  0.05736  1.0000
  C   C293      1.0  0.46989  0.92389  0.02272  1.0000
  C   C294      1.0  0.27284  0.59297  0.99247  1.0000
  Fe  Fe48      1.0  0.41801  0.88708  0.10529  1.0000
  H   H286      1.0  0.26207  0.57875  0.05006  1.0000
  S   S98       1.0  0.41289  0.88489  0.14057  1.0000
  Fe  Fe49      1.0  0.39647  0.87696  0.07138  1.0000
  S   S99       1.0  0.41709  0.89621  0.04478  1.0000
  S   S100      1.0  0.36968  0.86011  0.06714  1.0000
  H   H287      1.0  0.43297  0.68888  0.99097  1.0000
  Fe  Fe50      1.0  0.41157  0.92106  0.06460  1.0000
  C   C295      1.0  0.41480  0.78714  0.01567  1.0000
  S   S101      1.0  0.42419  0.85880  0.08924  1.0000
  S   S102      1.0  0.38842  0.90344  0.08958  1.0000
  C   C296      1.0  0.30646  0.52804  0.04981  1.0000
  C   C297      1.0  0.37329  0.85023  0.04387  1.0000
  C   C298      1.0  0.38950  0.85649  0.02734  1.0000
  C   C299      1.0  0.39107  0.85024  0.00812  1.0000
  C   C300      1.0  0.37708  0.83688  0.00554  1.0000
  C   C301      1.0  0.36106  0.83011  0.02216  1.0000
  C   C302      1.0  0.35901  0.83704  0.04125  1.0000
  H   H288      1.0  0.40050  0.86668  0.02908  1.0000
  H   H289      1.0  0.46654  0.85381  0.19431  1.0000
  H   H290      1.0  0.35008  0.81990  0.02020  1.0000
  H   H291      1.0  0.34633  0.83221  0.05399  1.0000
  C   C303      1.0  0.41210  0.97440  0.06005  1.0000
  C   C304      1.0  0.42281  0.96635  0.07800  1.0000
  S   S103      1.0  0.22180  0.56022  0.00381  1.0000
  H   H292      1.0  0.30078  0.58340  0.03963  1.0000
  C   C305      1.0  0.46731  0.83244  0.99657  1.0000
  N   N23       1.0  0.35412  0.91509  0.03592  1.0000
  H   H293      1.0  0.42362  0.94939  0.08604  1.0000
  H   H294      1.0  0.03652  0.55564  0.02602  1.0000
  C   C306      1.0  0.43523  0.91298  0.17939  1.0000
  C   C307      1.0  0.42145  0.90701  0.16793  1.0000
  C   C308      1.0  0.25172  0.58786  0.99556  1.0000
  H   H295      1.0  0.40402  0.90956  0.17261  1.0000
  H   H296      1.0  0.34827  0.90597  0.06946  1.0000
  H   H297      1.0  0.07128  0.54393  0.00443  1.0000
  H   H298      1.0  0.45632  0.66814  0.99499  1.0000
  Fe  Fe51      1.0  0.00536  0.52873  0.03015  1.0000
  C   C309      1.0  0.45269  0.89350  0.14510  1.0000
  C   C310      1.0  0.46650  0.89933  0.15671  1.0000
  H   H299      1.0  0.10617  0.53934  0.01844  1.0000
  H   H300      1.0  0.45996  0.97629  0.04425  1.0000
  H   H301      1.0  0.30119  0.54150  0.00280  1.0000
  C   C311      1.0  0.37662  0.91875  0.00214  1.0000
  C   C312      1.0  0.09284  0.49256  0.03837  1.0000
  S   S104      1.0  0.35749  0.76968  0.99174  1.0000
  C   C313      1.0  0.47325  0.85354  0.02755  1.0000
  C   C314      1.0  0.34990  0.89448  0.01128  1.0000
  S   S105      1.0  0.47555  0.91258  0.19041  1.0000
  C   C315      1.0  0.99979  0.53315  0.10594  1.0000
  H   H302      1.0  0.07239  0.55589  0.07568  1.0000
  H   H303      1.0  0.46745  0.86882  0.22552  1.0000
  Fe  Fe52      1.0  0.00215  0.51022  0.99238  1.0000
  C   C316      1.0  0.45375  0.96164  0.02029  1.0000
  H   H304      1.0  0.27992  0.50977  0.05963  1.0000
  H   H305      1.0  0.42832  0.92009  0.19274  1.0000
  N   N24       1.0  0.43418  0.77770  0.00638  1.0000
  C   C317      1.0  0.48800  0.83670  0.99749  1.0000
  C   C318      1.0  0.43015  0.89677  0.15111  1.0000
  H   H306      1.0  0.46861  0.77008  0.00642  1.0000
  H   H307      1.0  0.35805  0.93164  0.05940  1.0000
  N   N25       1.0  0.09134  0.54786  0.04768  1.0000
  C   C319      1.0  0.07224  0.55363  0.05989  1.0000
  C   C320      1.0  0.09112  0.54460  0.02790  1.0000
  H   H308      1.0  0.37828  0.93605  0.02583  1.0000
  H   H309      1.0  0.39255  0.90225  0.23633  1.0000
  H   H310      1.0  0.33184  0.89238  0.04238  1.0000
  H   H311      1.0  0.47244  0.90891  0.01706  1.0000
  S   S106      1.0  0.14922  0.49584  0.05825  1.0000
  C   C321      1.0  0.29072  0.57627  0.99497  1.0000
  H   H312      1.0  0.44034  0.97542  0.18235  1.0000
  C   C322      1.0  0.48372  0.94295  0.06761  1.0000
  C   C323      1.0  0.31240  0.54883  0.04430  1.0000
  H   H313      1.0  0.11285  0.53037  0.06984  1.0000
  C   C324      1.0  0.47890  0.92435  0.04060  1.0000
  H   H314      1.0  0.03708  0.56128  0.06185  1.0000
  C   C325      1.0  0.26629  0.54936  0.00372  1.0000
  H   H315      1.0  0.44963  0.94233  0.99907  1.0000
  H   H316      1.0  0.40332  0.85569  0.99521  1.0000
  H   H317      1.0  0.34239  0.88215  0.00767  1.0000
  C   C326      1.0  0.41220  0.86684  0.20912  1.0000
  H   H318      1.0  0.44137  0.97373  0.09917  1.0000
  C   C327      1.0  0.45309  0.77642  0.01446  1.0000
  H   H319      1.0  0.39862  0.80279  0.04105  1.0000
  H   H320      1.0  0.23792  0.54598  0.04697  1.0000
  C   C328      1.0  0.41395  0.79507  0.03387  1.0000
  C   C329      1.0  0.45273  0.84887  0.02676  1.0000
  C   C330      1.0  0.05192  0.55341  0.03207  1.0000
  C   C331      1.0  0.29637  0.56714  0.04481  1.0000
  S   S107      1.0  0.40244  0.95645  0.04871  1.0000
  C   C332      1.0  0.28740  0.55446  0.00069  1.0000
  H   H321      1.0  0.12631  0.54152  0.04429  1.0000
  Fe  Fe53      1.0  0.21686  0.52538  0.01782  1.0000
  S   S108      1.0  0.02419  0.53128  0.99767  1.0000
  S   S109      1.0  0.19242  0.51013  0.00784  1.0000
  C   C333      1.0  0.27452  0.56440  0.05062  1.0000
  C   C334      1.0  0.45782  0.90857  0.17423  1.0000
  S   S110      1.0  0.47376  0.95507  0.22300  1.0000
  C   C335      1.0  0.45285  0.78437  0.03253  1.0000
  H   H322      1.0  0.01055  0.52027  0.11494  1.0000
  H   H323      1.0  0.43911  0.85306  0.03823  1.0000
  C   C336      1.0  0.00185  0.53614  0.08382  1.0000
  H   H324      1.0  0.24375  0.52444  0.06984  1.0000
  N   N26       1.0  0.47548  0.94307  0.04803  1.0000
  H   H325      1.0  0.47097  0.93920  0.08135  1.0000
  H   H326      1.0  0.48808  0.95912  0.06710  1.0000
  H   H327      1.0  0.43277  0.80049  0.05596  1.0000
  C   C337      1.0  0.07142  0.54718  0.01986  1.0000
  C   C338      1.0  0.45146  0.85916  0.20367  1.0000
  C   C339      1.0  0.34738  0.92099  0.05652  1.0000
  C   C340      1.0  0.43238  0.87555  0.23240  1.0000
  H   H328      1.0  0.45952  0.88538  0.13228  1.0000
  C   C341      1.0  0.11198  0.54474  0.05623  1.0000
  C   C342      1.0  0.28447  0.52590  0.05572  1.0000
  Fe  Fe54      1.0  0.46137  0.92587  0.21949  1.0000
  N   N27       1.0  0.26887  0.54394  0.05623  1.0000
  C   C343      1.0  0.37015  0.92442  0.02181  1.0000
  H   H329      1.0  0.01437  0.52576  0.07588  1.0000
  S   S111      1.0  0.47663  0.86744  0.04650  1.0000
  H   H330      1.0  0.26401  0.53255  0.00810  1.0000
  H   H331      1.0  0.23795  0.60089  0.99363  1.0000
  H   H332      1.0  0.39992  0.78891  0.00882  1.0000
  C   C344      1.0  0.34400  0.90033  0.03088  1.0000
  S   S112      1.0  0.24347  0.49729  0.01555  1.0000
  H   H333      1.0  0.39682  0.86710  0.20376  1.0000
  H   H334      1.0  0.44332  0.97614  0.01297  1.0000
  H   H335      1.0  0.31870  0.51368  0.04908  1.0000
  H   H336      1.0  0.32928  0.55089  0.03889  1.0000
  C   C345      1.0  0.24838  0.56605  0.00109  1.0000
  H   H337      1.0  0.23727  0.55228  0.07242  1.0000
  C   C346      1.0  0.05226  0.55662  0.05223  1.0000
  H   H338      1.0  0.44447  0.96960  0.15645  1.0000
  C   C347      1.0  0.43147  0.85858  0.19767  1.0000
  H   H339      1.0  0.43397  0.83481  0.01083  1.0000
  C   C348      1.0  0.45247  0.97434  0.16805  1.0000
  N   N28       1.0  0.41286  0.87520  0.22624  1.0000
  C   C349      1.0  0.44980  0.83851  0.01125  1.0000
  Fe  Fe55      1.0  0.04399  0.49960  0.01200  1.0000
  H   H340      1.0  0.27522  0.60987  0.98857  1.0000
  Fe  Fe56      1.0  0.43866  0.96725  0.23261  1.0000
  H   H341      1.0  0.43091  0.85281  0.18358  1.0000
  C   C350      1.0  0.45196  0.86764  0.22117  1.0000
  H   H342      1.0  0.46620  0.96108  0.17255  1.0000
  H   H343      1.0  0.48398  0.89589  0.15262  1.0000
  H   H344      1.0  0.37795  0.88252  0.23196  1.0000
  H   H345      1.0  0.48820  0.90943  0.04873  1.0000
  H   H346      1.0  0.01288  0.50067  0.16563  1.0000
  S   S113      1.0  0.02720  0.49901  0.04516  1.0000
  Fe  Fe57      1.0  0.18403  0.49590  0.04251  1.0000
  S   S114      1.0  0.07977  0.49575  0.99954  1.0000
  H   H347      1.0  0.38967  0.92580  0.99120  1.0000
  H   H348      1.0  0.07602  0.49218  0.04516  1.0000
  C   C351      1.0  0.13649  0.49357  0.02095  1.0000
  C   C352      1.0  0.09899  0.49348  0.01670  1.0000
  C   C353      1.0  0.10851  0.49253  0.05122  1.0000
  C   C354      1.0  0.13033  0.49338  0.04246  1.0000
  C   C355      1.0  0.12087  0.49368  0.00811  1.0000
  H   H349      1.0  0.15324  0.49379  0.01412  1.0000
  H   H350      1.0  0.12575  0.49419  0.99141  1.0000
  H   H351      1.0  0.43283  0.88233  0.24587  1.0000
  S   S115      1.0  0.18763  0.90682  0.48033  1.0000
  S   S116      1.0  0.00668  0.72318  0.39911  1.0000
  H   H352      1.0  0.11346  0.92987  0.41289  1.0000
  S   S117      1.0  0.18014  0.96513  0.48582  1.0000
  Fe  Fe58      1.0  0.34306  0.95993  0.36761  1.0000
  S   S118      1.0  0.33846  0.93171  0.35525  1.0000
  C   C356      1.0  0.35416  0.96216  0.48136  1.0000
  H   H353      1.0  0.01702  0.84838  0.41590  1.0000
  S   S119      1.0  0.37114  0.95940  0.38442  1.0000
  C   C357      1.0  0.00974  0.63132  0.38031  1.0000
  H   H354      1.0  0.05639  0.96335  0.47054  1.0000
  H   H355      1.0  0.47984  0.95120  0.32684  1.0000
  S   S120      1.0  0.46483  0.90811  0.25313  1.0000
  H   H356      1.0  0.03501  0.64440  0.38913  1.0000
  C   C358      1.0  0.27408  0.94105  0.42746  1.0000
  C   C359      1.0  0.28931  0.92619  0.41801  1.0000
  H   H357      1.0  0.14663  0.96619  0.44059  1.0000
  H   H358      1.0  0.37311  0.88299  0.30861  1.0000
  C   C360      1.0  0.16737  0.92509  0.41609  1.0000
  H   H359      1.0  0.18411  0.95590  0.44306  1.0000
  H   H360      1.0  0.27259  0.93987  0.44440  1.0000
  S   S121      1.0  0.06860  0.91977  0.42774  1.0000
  H   H361      1.0  0.41789  0.96036  0.36378  1.0000
  C   C361      1.0  0.35573  0.97040  0.45941  1.0000
  Fe  Fe59      1.0  0.01098  0.75390  0.40765  1.0000
  S   S122      1.0  0.04020  0.77122  0.39739  1.0000
  Fe  Fe60      1.0  0.08543  0.89023  0.41562  1.0000
  S   S123      1.0  0.11362  0.89074  0.38964  1.0000
  S   S124      1.0  0.05575  0.82414  0.46146  1.0000
  S   S125      1.0  0.05468  0.87743  0.41624  1.0000
  H   H362      1.0  0.11236  0.95923  0.43196  1.0000
  C   C362      1.0  0.37305  0.89848  0.31247  1.0000
  C   C363      1.0  0.48408  0.97803  0.28408  1.0000
  H   H363      1.0  0.11623  0.84588  0.37911  1.0000
  C   C364      1.0  0.42901  0.95231  0.35251  1.0000
  H   H364      1.0  0.00453  0.67589  0.34284  1.0000
  H   H365      1.0  0.47351  0.97149  0.35513  1.0000
  S   S126      1.0  0.43930  0.95358  0.26748  1.0000
  S   S127      1.0  0.34298  0.95870  0.44417  1.0000
  C   C365      1.0  0.14719  0.95336  0.43235  1.0000
  H   H366      1.0  0.00204  0.88149  0.44854  1.0000
  C   C366      1.0  0.14823  0.92064  0.41122  1.0000
  C   C367      1.0  0.04342  0.78637  0.41523  1.0000
  C   C368      1.0  0.05084  0.80648  0.40748  1.0000
  C   C369      1.0  0.05423  0.81844  0.42155  1.0000
  C   C370      1.0  0.05020  0.81036  0.44344  1.0000
  C   C371      1.0  0.04276  0.79025  0.45118  1.0000
  C   C372      1.0  0.03933  0.77831  0.43711  1.0000
  H   H367      1.0  0.05418  0.81271  0.39055  1.0000
  H   H368      1.0  0.06069  0.83351  0.41540  1.0000
  H   H369      1.0  0.03992  0.78374  0.46810  1.0000
  H   H370      1.0  0.03423  0.76252  0.44325  1.0000
  C   C373      1.0  0.26105  0.95769  0.41494  1.0000
  C   C374      1.0  0.11251  0.95941  0.34815  1.0000
  C   C375      1.0  0.13224  0.94521  0.35017  1.0000
  C   C376      1.0  0.13241  0.92379  0.36224  1.0000
  C   C377      1.0  0.11296  0.91687  0.37303  1.0000
  C   C378      1.0  0.09325  0.93115  0.37123  1.0000
  C   C379      1.0  0.09299  0.95231  0.35849  1.0000
  H   H371      1.0  0.14732  0.95063  0.34205  1.0000
  H   H372      1.0  0.14766  0.91273  0.36346  1.0000
  H   H373      1.0  0.07816  0.92582  0.37940  1.0000
  H   H374      1.0  0.07770  0.96326  0.35692  1.0000
  C   C380      1.0  0.08580  0.96965  0.47886  1.0000
  S   S128      1.0  0.99499  0.67879  0.44722  1.0000
  Fe  Fe61      1.0  0.07393  0.89852  0.45970  1.0000
  H   H375      1.0  0.13091  0.96305  0.48070  1.0000
  H   H376      1.0  0.43603  0.98722  0.29907  1.0000
  C   C381      1.0  0.12882  0.90049  0.46778  1.0000
  Fe  Fe62      1.0  0.34631  0.97234  0.40896  1.0000
  Fe  Fe63      1.0  0.43036  0.92407  0.26062  1.0000
  H   H377      1.0  0.30361  0.91699  0.38874  1.0000
  H   H378      1.0  0.43101  0.91414  0.32391  1.0000
  H   H379      1.0  0.19784  0.93065  0.43703  1.0000
  Fe  Fe64      1.0  0.06044  0.85933  0.44914  1.0000
  S   S129      1.0  0.40660  0.90289  0.28056  1.0000
  H   H380      1.0  0.40591  0.93226  0.35032  1.0000
  H   H381      1.0  0.11490  0.76765  0.44643  1.0000
  C   C382      1.0  0.35772  0.92467  0.33429  1.0000
  C   C383      1.0  0.37265  0.93838  0.32289  1.0000
  C   C384      1.0  0.38776  0.93210  0.30612  1.0000
  C   C385      1.0  0.38798  0.91203  0.30098  1.0000
  C   C386      1.0  0.35793  0.90481  0.32894  1.0000
  H   H382      1.0  0.37227  0.95383  0.32689  1.0000
  H   H383      1.0  0.39911  0.94274  0.29717  1.0000
  H   H384      1.0  0.34644  0.89418  0.33767  1.0000
  H   H385      1.0  0.25340  0.97232  0.38343  1.0000
  C   C387      1.0  0.46353  0.94729  0.33179  1.0000
  H   H386      1.0  0.40041  0.97687  0.31706  1.0000
  C   C388      1.0  0.28115  0.94692  0.36090  1.0000
  H   H387      1.0  0.10661  0.81258  0.37193  1.0000
  H   H388      1.0  0.47153  0.97834  0.27473  1.0000
  C   C389      1.0  0.12775  0.94951  0.42751  1.0000
  H   H389      1.0  0.00921  0.67224  0.40485  1.0000
  S   S130      1.0  0.08576  0.91316  0.48283  1.0000
  C   C390      1.0  0.18704  0.94603  0.43084  1.0000
  C   C391      1.0  0.12835  0.93307  0.41682  1.0000
  Fe  Fe65      1.0  0.03825  0.90484  0.43183  1.0000
  S   S131      1.0  0.09271  0.86982  0.44735  1.0000
  Fe  Fe66      1.0  0.47364  0.93897  0.25743  1.0000
  S   S132      1.0  0.04196  0.88600  0.46503  1.0000
  H   H390      1.0  0.29994  0.91355  0.42750  1.0000
  C   C392      1.0  0.29123  0.92816  0.39608  1.0000
  H   H391      1.0  0.02092  0.61934  0.37294  1.0000
  C   C393      1.0  0.00091  0.85385  0.41115  1.0000
  H   H392      1.0  0.45358  0.99071  0.34056  1.0000
  H   H393      1.0  0.18278  0.91547  0.41156  1.0000
  H   H394      1.0  0.28829  0.93120  0.35627  1.0000
  S   S133      1.0  0.00648  0.92432  0.42202  1.0000
  N   N29       1.0  0.16665  0.94121  0.42663  1.0000
  Fe  Fe67      1.0  0.21354  0.97393  0.48209  1.0000
  C   C394      1.0  0.26336  0.95914  0.39308  1.0000
  N   N30       1.0  0.44948  0.95758  0.34586  1.0000
  S   S134      1.0  0.31835  0.96934  0.39378  1.0000
  H   H395      1.0  0.08811  0.76932  0.43915  1.0000
  H   H396      1.0  0.26536  0.95281  0.35445  1.0000
  H   H397      1.0  0.00828  0.88579  0.39441  1.0000
  H   H398      1.0  0.19547  0.95525  0.41606  1.0000
  H   H399      1.0  0.09142  0.78449  0.45746  1.0000
  H   H400      1.0  0.46834  0.92372  0.31224  1.0000
  C   C395      1.0  0.06810  0.97456  0.46737  1.0000
  H   H401      1.0  0.99644  0.70905  0.35784  1.0000
  C   C396      1.0  0.42212  0.93649  0.34489  1.0000
  H   H402      1.0  0.24947  0.96957  0.42207  1.0000
  C   C397      1.0  0.43623  0.92625  0.33018  1.0000
  N   N31       1.0  0.10390  0.79718  0.42536  1.0000
  C   C398      1.0  0.10929  0.81533  0.42940  1.0000
  C   C399      1.0  0.10339  0.79588  0.40497  1.0000
  C   C400      1.0  0.11409  0.83291  0.41277  1.0000
  C   C401      1.0  0.10766  0.81339  0.38801  1.0000
  C   C402      1.0  0.11302  0.83203  0.39201  1.0000
  C   C403      1.0  0.36668  0.98819  0.45020  1.0000
  H   H403      1.0  0.10951  0.81647  0.44557  1.0000
  H   H404      1.0  0.09894  0.78156  0.40176  1.0000
  H   H405      1.0  0.11846  0.84726  0.41593  1.0000
  C   C404      1.0  0.45712  0.93161  0.32362  1.0000
  H   H406      1.0  0.14875  0.90765  0.40315  1.0000
  C   C405      1.0  0.15939  0.90785  0.48159  1.0000
  C   C406      1.0  0.01764  0.64546  0.38921  1.0000
  H   H407      1.0  0.29249  0.95881  0.35340  1.0000
  N   N32       1.0  0.27819  0.94438  0.38397  1.0000
  C   C407      1.0  0.28169  0.98366  0.47217  1.0000
  C   C408      1.0  0.00297  0.66124  0.39801  1.0000
  C   C409      1.0  0.11418  0.91034  0.48250  1.0000
  H   H408      1.0  0.26986  0.97698  0.46654  1.0000
  H   H409      1.0  0.00241  0.81810  0.44151  1.0000
  C   C410      1.0  0.09947  0.77868  0.44295  1.0000
  S   S135      1.0  0.15962  0.98574  0.36600  1.0000
  H   H410      1.0  0.44632  0.97802  0.36794  1.0000
  H   H411      1.0  0.39179  0.87644  0.25501  1.0000
  H   H412      1.0  0.16263  0.89104  0.45634  1.0000
  H   H413      1.0  0.12282  0.89402  0.45659  1.0000
  C   C411      1.0  0.15138  0.89896  0.46754  1.0000
  C   C412      1.0  0.45603  0.97524  0.35276  1.0000
  C   C413      1.0  0.12004  0.97699  0.48611  1.0000
  H   H414      1.0  0.99799  0.80711  0.41998  1.0000
  S   S136      1.0  0.11216  0.98612  0.33293  1.0000
  N   N33       1.0  0.10088  0.98339  0.47482  1.0000
  S   S137      1.0  0.99715  0.74397  0.44185  1.0000
  C   C414      1.0  0.40109  0.99012  0.30314  1.0000
  C   C415      1.0  0.99613  0.87496  0.39881  1.0000
  C   C416      1.0  0.37375  0.98990  0.48504  1.0000
  H   H415      1.0  0.12959  0.99053  0.48330  1.0000
  C   C417      1.0  0.39273  0.88450  0.23787  1.0000
  H   H416      1.0  0.46218  0.99210  0.24056  1.0000
  H   H417      1.0  0.26313  0.99212  0.32834  1.0000
  H   H418      1.0  0.42461  0.88482  0.70320  1.0000
  Fe  Fe68      1.0  0.22402  0.94409  0.52326  1.0000
  H   H419      1.0  0.47272  0.97033  0.52550  1.0000
  S   S138      1.0  0.25116  0.93140  0.54353  1.0000
  H   H420      1.0  0.23469  0.93346  0.61544  1.0000
  H   H421      1.0  0.04213  0.49982  0.70824  1.0000
  S   S139      1.0  0.46844  0.85990  0.72408  1.0000
  H   H422      1.0  0.43929  0.92195  0.56972  1.0000
  H   H423      1.0  0.15085  0.92426  0.50746  1.0000
  Fe  Fe69      1.0  0.17800  0.96714  0.51959  1.0000
  H   H424      1.0  0.48430  0.93869  0.59312  1.0000
  S   S140      1.0  0.19180  0.93176  0.53062  1.0000
  H   H425      1.0  0.47822  0.97214  0.60990  1.0000
  C   C418      1.0  0.23989  0.93968  0.59833  1.0000
  C   C419      1.0  0.44006  0.93465  0.55527  1.0000
  S   S141      1.0  0.48112  0.89299  0.66588  1.0000
  N   N34       1.0  0.41742  0.93936  0.69958  1.0000
  H   H426      1.0  0.40832  0.96623  0.71445  1.0000
  H   H427      1.0  0.40479  0.89768  0.67149  1.0000
  C   C420      1.0  0.28506  0.97987  0.56161  1.0000
  C   C421      1.0  0.25518  0.97243  0.54699  1.0000
  S   S142      1.0  0.39532  0.93383  0.59467  1.0000
  C   C422      1.0  0.03268  0.51541  0.73474  1.0000
  H   H428      1.0  0.11511  0.97206  0.50350  1.0000
  H   H429      1.0  0.08738  0.95469  0.49098  1.0000
  H   H430      1.0  0.40823  0.93290  0.54877  1.0000
  Fe  Fe70      1.0  0.48573  0.88473  0.70021  1.0000
  S   S143      1.0  0.35504  0.96794  0.55311  1.0000
  C   C423      1.0  0.42263  0.94075  0.54346  1.0000
  Fe  Fe71      1.0  0.47684  0.92771  0.66892  1.0000
  C   C424      1.0  0.42292  0.96620  0.62623  1.0000
  H   H431      1.0  0.36182  0.96530  0.51096  1.0000
  H   H432      1.0  0.47195  0.94046  0.55761  1.0000
  S   S144      1.0  0.39528  0.99042  0.55997  1.0000
  H   H433      1.0  0.40986  0.96220  0.51618  1.0000
  C   C425      1.0  0.41243  0.94035  0.60978  1.0000
  H   H434      1.0  0.39300  0.93745  0.65827  1.0000
  H   H435      1.0  0.43390  0.96585  0.69730  1.0000
  C   C426      1.0  0.43893  0.94999  0.63541  1.0000
  C   C427      1.0  0.44216  0.92920  0.63110  1.0000
  C   C428      1.0  0.42883  0.92431  0.61848  1.0000
  C   C429      1.0  0.41908  0.90213  0.69737  1.0000
  C   C430      1.0  0.36311  0.97188  0.49413  1.0000
  H   H436      1.0  0.45471  0.91675  0.63761  1.0000
  H   H437      1.0  0.43115  0.90805  0.61558  1.0000
  C   C431      1.0  0.26479  0.95056  0.54894  1.0000
  C   C432      1.0  0.28490  0.94352  0.55674  1.0000
  Fe  Fe72      1.0  0.19634  0.93082  0.49618  1.0000
  C   C433      1.0  0.42324  0.95546  0.70922  1.0000
  Fe  Fe73      1.0  0.37576  0.96467  0.57860  1.0000
  C   C434      1.0  0.29513  0.95819  0.56289  1.0000
  H   H438      1.0  0.29244  0.92659  0.55833  1.0000
  H   H439      1.0  0.31044  0.95255  0.56928  1.0000
  H   H440      1.0  0.11115  0.92561  0.50889  1.0000
  H   H441      1.0  0.24540  0.92563  0.59053  1.0000
  H   H442      1.0  0.40224  0.96390  0.67589  1.0000
  S   S145      1.0  0.20979  0.97961  0.51483  1.0000
  C   C435      1.0  0.40634  0.94652  0.68239  1.0000
  C   C436      1.0  0.45906  0.98841  0.58489  1.0000
  C   C437      1.0  0.20713  0.94666  0.58077  1.0000
  S   S146      1.0  0.45370  0.95584  0.65312  1.0000
  H   H443      1.0  0.42047  0.98239  0.62932  1.0000
  C   C438      1.0  0.40974  0.96143  0.61338  1.0000
  C   C439      1.0  0.40124  0.93163  0.67230  1.0000
  S   S147      1.0  0.47848  0.91933  0.70389  1.0000
  C   C440      1.0  0.42346  0.91747  0.70734  1.0000
  C   C441      1.0  0.21944  0.97653  0.58803  1.0000
  C   C442      1.0  0.18705  0.98300  0.57103  1.0000
  H   H444      1.0  0.20919  0.92937  0.58096  1.0000
  N   N35       1.0  0.22190  0.95469  0.58853  1.0000
  C   C443      1.0  0.40795  0.90931  0.67968  1.0000
  C   C444      1.0  0.02870  0.50722  0.71819  1.0000
  C   C445      1.0  0.42362  0.95742  0.52511  1.0000
  C   C446      1.0  0.46875  0.98742  0.60277  1.0000
  C   C447      1.0  0.14478  0.91772  0.49630  1.0000
  H   H445      1.0  0.25433  0.94793  0.59648  1.0000
  N   N36       1.0  0.44148  0.96777  0.51872  1.0000
  C   C448      1.0  0.45825  0.94518  0.54860  1.0000
  C   C449      1.0  0.12227  0.91863  0.49697  1.0000
  C   C450      1.0  0.45862  0.96199  0.53030  1.0000
  S   S148      1.0  0.35171  0.98657  0.59644  1.0000
  H   H446      1.0  0.39718  0.97398  0.60672  1.0000
  C   C451      1.0  0.44160  0.98602  0.50010  1.0000
  C   C452      1.0  0.00730  0.50812  0.71481  1.0000
  H   H447      1.0  0.00405  0.50180  0.70198  1.0000
  S   S149      1.0  0.23004  0.93941  0.48990  1.0000
  H   H448      1.0  0.17763  0.95432  0.56598  1.0000
  C   C453      1.0  0.18942  0.96066  0.57207  1.0000
  C   C454      1.0  0.26514  0.98697  0.55354  1.0000
  H   H449      1.0  0.46124  0.97416  0.57821  1.0000
  H   H450      1.0  0.48681  0.98886  0.63485  1.0000
  H   H451      1.0  0.23962  0.97801  0.54132  1.0000
  S   S150      1.0  0.14653  0.98241  0.53584  1.0000
  H   H452      1.0  0.30255  0.98027  0.51747  1.0000
  H   H453      1.0  0.23123  0.98292  0.59407  1.0000
  C   C455      1.0  0.29988  0.98546  0.50097  1.0000
  H   H454      1.0  0.43207  0.91176  0.72106  1.0000
  H   H455      1.0  0.45846  0.98823  0.49261  1.0000
  C   C456      1.0  0.28463  0.97701  0.49358  1.0000
  H   H456      1.0  0.27531  0.96520  0.50430  1.0000
  H   H457      1.0  0.43203  0.94768  0.72312  1.0000
  S   S151      1.0  0.99783  0.62333  0.72631  1.0000
  H   H458      1.0  0.43295  0.98324  0.48785  1.0000
  H   H459      1.0  0.34578  0.94835  0.48856  1.0000
  C   C457      1.0  0.20215  0.99105  0.57903  1.0000
  Fe  Fe74      1.0  0.23933  0.52729  0.87007  1.0000
  S   S152      1.0  0.21088  0.51303  0.86565  1.0000
  H   H460      1.0  0.46441  0.63392  0.92347  1.0000
  Fe  Fe75      1.0  0.21239  0.57108  0.87362  1.0000
  S   S153      1.0  0.18112  0.56180  0.86947  1.0000
  S   S154      1.0  0.21688  0.60272  0.88009  1.0000
  Fe  Fe76      1.0  0.19234  0.52999  0.89091  1.0000
  H   H461      1.0  0.41961  0.76429  0.98648  1.0000
  Fe  Fe77      1.0  0.20114  0.54564  0.84432  1.0000
  S   S155      1.0  0.18953  0.54919  0.81289  1.0000
  S   S156      1.0  0.22161  0.54071  0.89772  1.0000
  S   S157      1.0  0.23145  0.55842  0.84606  1.0000
  H   H462      1.0  0.09227  0.57800  0.76014  1.0000
  C   C458      1.0  0.43587  0.75744  0.91324  1.0000
  C   C459      1.0  0.44581  0.85656  0.90786  1.0000
  C   C460      1.0  0.10427  0.49602  0.88915  1.0000
  C   C461      1.0  0.01591  0.51362  0.90349  1.0000
  H   H463      1.0  0.14541  0.58695  0.82081  1.0000
  Fe  Fe78      1.0  0.04206  0.54647  0.82108  1.0000
  C   C462      1.0  0.15265  0.52069  0.78692  1.0000
  S   S158      1.0  0.03436  0.58289  0.81342  1.0000
  H   H464      1.0  0.27145  0.53343  0.91461  1.0000
  H   H465      1.0  0.45031  0.90808  0.77427  1.0000
  S   S159      1.0  0.47634  0.58975  0.91726  1.0000
  H   H466      1.0  0.29236  0.62927  0.82287  1.0000
  S   S160      1.0  0.07074  0.53013  0.83816  1.0000
  S   S161      1.0  0.05194  0.52947  0.79425  1.0000
  H   H467      1.0  0.39017  0.71069  0.93066  1.0000
  C   C463      1.0  0.11238  0.58254  0.82050  1.0000
  C   C464      1.0  0.29626  0.74419  0.96623  1.0000
  C   C465      1.0  0.31693  0.58729  0.84629  1.0000
  Fe  Fe79      1.0  0.36425  0.79504  0.93093  1.0000
  S   S162      1.0  0.35613  0.76129  0.94358  1.0000
  S   S163      1.0  0.37260  0.81110  0.89671  1.0000
  N   N37       1.0  0.29675  0.59654  0.84063  1.0000
  H   H468      1.0  0.48316  0.88312  0.86335  1.0000
  C   C466      1.0  0.40919  0.62861  0.97569  1.0000
  H   H469      1.0  0.40869  0.87369  0.86018  1.0000
  S   S164      1.0  0.44339  0.89264  0.83854  1.0000
  C   C467      1.0  0.18996  0.57516  0.93114  1.0000
  S   S165      1.0  0.39067  0.78930  0.95093  1.0000
  S   S166      1.0  0.33907  0.81038  0.95345  1.0000
  Fe  Fe80      1.0  0.32006  0.61949  0.91715  1.0000
  S   S167      1.0  0.34686  0.60350  0.93700  1.0000
  S   S168      1.0  0.31360  0.60052  0.89473  1.0000
  Fe  Fe81      1.0  0.30649  0.65671  0.94042  1.0000
  C   C468      1.0  0.20404  0.54087  0.95319  1.0000
  H   H470      1.0  0.17428  0.54654  0.93941  1.0000
  Fe  Fe82      1.0  0.35377  0.63738  0.93357  1.0000
  S   S169      1.0  0.38531  0.65078  0.92836  1.0000
  Fe  Fe83      1.0  0.32175  0.61052  0.96405  1.0000
  H   H471      1.0  0.44847  0.75664  0.98534  1.0000
  S   S170      1.0  0.32936  0.65296  0.91091  1.0000
  S   S171      1.0  0.29467  0.62476  0.94435  1.0000
  C   C469      1.0  0.48616  0.97366  0.76631  1.0000
  C   C470      1.0  0.18802  0.55355  0.94117  1.0000
  H   H472      1.0  0.04378  0.61912  0.77989  1.0000
  H   H473      1.0  0.30285  0.49839  0.98116  1.0000
  C   C471      1.0  0.41796  0.87404  0.76787  1.0000
  C   C472      1.0  0.27208  0.72654  0.95338  1.0000
  H   H474      1.0  0.09456  0.50011  0.87619  1.0000
  H   H475      1.0  0.32724  0.59705  0.85026  1.0000
  H   H476      1.0  0.42878  0.65776  0.92693  1.0000
  H   H477      1.0  0.27998  0.55179  0.83395  1.0000
  H   H478      1.0  0.01828  0.53002  0.76101  1.0000
  C   C473      1.0  0.39808  0.87437  0.89298  1.0000
  C   C474      1.0  0.40119  0.86530  0.87515  1.0000
  C   C475      1.0  0.39407  0.84547  0.87652  1.0000
  C   C476      1.0  0.38336  0.83481  0.89562  1.0000
  C   C477      1.0  0.38034  0.84379  0.91348  1.0000
  C   C478      1.0  0.38765  0.86351  0.91215  1.0000
  H   H479      1.0  0.42335  0.82159  0.94926  1.0000
  H   H480      1.0  0.39651  0.83858  0.86268  1.0000
  H   H481      1.0  0.37217  0.83573  0.92835  1.0000
  H   H482      1.0  0.38520  0.87030  0.92607  1.0000
  S   S172      1.0  0.11333  0.50692  0.79562  1.0000
  H   H483      1.0  0.15329  0.51680  0.77168  1.0000
  H   H484      1.0  0.40345  0.75149  0.92661  1.0000
  H   H485      1.0  0.39475  0.69469  0.91073  1.0000
  C   C479      1.0  0.29052  0.56176  0.83725  1.0000
  C   C480      1.0  0.41032  0.63361  0.92461  1.0000
  H   H486      1.0  0.32187  0.69499  0.95589  1.0000
  H   H487      1.0  0.09480  0.55074  0.77683  1.0000
  C   C481      1.0  0.20783  0.58387  0.93352  1.0000
  C   C482      1.0  0.02532  0.59252  0.78854  1.0000
  Fe  Fe84      1.0  0.04973  0.50470  0.85433  1.0000
  C   C483      1.0  0.32412  0.56487  0.84814  1.0000
  C   C484      1.0  0.03232  0.61125  0.77515  1.0000
  H   H488      1.0  0.25366  0.56924  0.95708  1.0000
  H   H489      1.0  0.40201  0.72150  0.90392  1.0000
  S   S173      1.0  0.01998  0.52315  0.84001  1.0000
  H   H490      1.0  0.45032  0.87276  0.90368  1.0000
  H   H491      1.0  0.42662  0.85226  0.74639  1.0000
  H   H492      1.0  0.33977  0.55746  0.85342  1.0000
  C   C485      1.0  0.44384  0.67574  0.98417  1.0000
  H   H493      1.0  0.13262  0.57145  0.76478  1.0000
  Fe  Fe85      1.0  0.42435  0.91393  0.85997  1.0000
  H   H494      1.0  0.40213  0.86918  0.77373  1.0000
  C   C486      1.0  0.43444  0.81515  0.91827  1.0000
  H   H495      1.0  0.01397  0.52167  0.88725  1.0000
  C   C487      1.0  0.02441  0.61995  0.75567  1.0000
  S   S174      1.0  0.28294  0.68790  0.94098  1.0000
  H   H496      1.0  0.29729  0.62617  0.84990  1.0000
  C   C488      1.0  0.44376  0.82337  0.89768  1.0000
  H   H497      1.0  0.48070  0.73805  0.93852  1.0000
  C   C489      1.0  0.13397  0.58388  0.81170  1.0000
  C   C490      1.0  0.13464  0.51717  0.80230  1.0000
  C   C491      1.0  0.42462  0.88971  0.77583  1.0000
  C   C492      1.0  0.44977  0.62785  0.92294  1.0000
  C   C493      1.0  0.46390  0.74085  0.93580  1.0000
  C   C494      1.0  0.16929  0.53470  0.81043  1.0000
  C   C495      1.0  0.15161  0.53056  0.82628  1.0000
  C   C496      1.0  0.13410  0.52208  0.82210  1.0000
  S   S175      1.0  0.46232  0.81952  0.97753  1.0000
  H   H498      1.0  0.48402  0.69900  0.98037  1.0000
  H   H499      1.0  0.10673  0.58491  0.83644  1.0000
  H   H500      1.0  0.15107  0.53468  0.84138  1.0000
  H   H501      1.0  0.12031  0.51928  0.83413  1.0000
  C   C497      1.0  0.01059  0.58227  0.78229  1.0000
  H   H502      1.0  0.30826  0.53631  0.96294  1.0000
  Fe  Fe86      1.0  0.42444  0.91567  0.81402  1.0000
  C   C498      1.0  0.27579  0.74394  0.96098  1.0000
  C   C499      1.0  0.30908  0.70870  0.95712  1.0000
  N   N38       1.0  0.28409  0.49507  0.95841  1.0000
  C   C500      1.0  0.12665  0.57517  0.78018  1.0000
  H   H503      1.0  0.23616  0.59510  0.95507  1.0000
  H   H504      1.0  0.48829  0.86930  0.81723  1.0000
  C   C501      1.0  0.01509  0.52406  0.74793  1.0000
  H   H505      1.0  0.44784  0.86233  0.94905  1.0000
  C   C502      1.0  0.00150  0.52073  0.92017  1.0000
  C   C503      1.0  0.24324  0.60145  0.88609  1.0000
  C   C504      1.0  0.25877  0.58277  0.88525  1.0000
  C   C505      1.0  0.28007  0.58224  0.88903  1.0000
  C   C506      1.0  0.28601  0.60036  0.89368  1.0000
  C   C507      1.0  0.27029  0.61873  0.89540  1.0000
  C   C508      1.0  0.24894  0.61931  0.89151  1.0000
  H   H506      1.0  0.25464  0.56895  0.88097  1.0000
  H   H507      1.0  0.29215  0.56797  0.88768  1.0000
  H   H508      1.0  0.27477  0.63283  0.89893  1.0000
  H   H509      1.0  0.23696  0.63379  0.89228  1.0000
  C   C509      1.0  0.31301  0.72654  0.96421  1.0000
  C   C510      1.0  0.00892  0.61041  0.74980  1.0000
  N   N39       1.0  0.35959  0.87669  0.84344  1.0000
  C   C511      1.0  0.36414  0.89628  0.84490  1.0000
  C   C512      1.0  0.34837  0.86417  0.86029  1.0000
  C   C513      1.0  0.35746  0.90379  0.86363  1.0000
  C   C514      1.0  0.34135  0.87125  0.87920  1.0000
  C   C515      1.0  0.34605  0.89113  0.88088  1.0000
  C   C516      1.0  0.36831  0.86849  0.82423  1.0000
  H   H510      1.0  0.37358  0.90586  0.83174  1.0000
  H   H511      1.0  0.34568  0.84813  0.85960  1.0000
  H   H512      1.0  0.36191  0.91887  0.86506  1.0000
  H   H513      1.0  0.33333  0.86081  0.89282  1.0000
  H   H514      1.0  0.34159  0.89633  0.89577  1.0000
  H   H515      1.0  0.36585  0.88171  0.80982  1.0000
  H   H516      1.0  0.38612  0.86269  0.82404  1.0000
  H   H517      1.0  0.36033  0.85483  0.82321  1.0000
  N   N40       1.0  0.36777  0.72065  0.90822  1.0000
  C   C517      1.0  0.35234  0.70730  0.91192  1.0000
  C   C518      1.0  0.36235  0.74272  0.90093  1.0000
  C   C519      1.0  0.33090  0.71595  0.90822  1.0000
  C   C520      1.0  0.34090  0.75198  0.89760  1.0000
  C   C521      1.0  0.32507  0.73846  0.90141  1.0000
  C   C522      1.0  0.38976  0.71146  0.91363  1.0000
  H   H518      1.0  0.35643  0.68988  0.91810  1.0000
  H   H519      1.0  0.37440  0.75345  0.89844  1.0000
  H   H520      1.0  0.31867  0.70532  0.91139  1.0000
  H   H521      1.0  0.33651  0.76957  0.89268  1.0000
  H   H522      1.0  0.30823  0.74538  0.89951  1.0000
  N   N41       1.0  0.43615  0.84856  0.92788  1.0000
  N   N42       1.0  0.10543  0.57419  0.78879  1.0000
  H   H523      1.0  0.39664  0.60625  0.92187  1.0000
  H   H524      1.0  0.18315  0.53293  0.77848  1.0000
  S   S176      1.0  0.40696  0.90154  0.79502  1.0000
  C   C523      1.0  0.29885  0.52756  0.95647  1.0000
  H   H525      1.0  0.15810  0.58063  0.78472  1.0000
  H   H526      1.0  0.26580  0.49608  0.93364  1.0000
  C   C524      1.0  0.28859  0.70883  0.95145  1.0000
  H   H527      1.0  0.27135  0.62292  0.84504  1.0000
  C   C525      1.0  0.49162  0.96691  0.78695  1.0000
  H   H528      1.0  0.29288  0.55387  0.92935  1.0000
  C   C526      1.0  0.31072  0.55204  0.84372  1.0000
  C   C527      1.0  0.45207  0.87101  0.74444  1.0000
  C   C528      1.0  0.29011  0.53747  0.93764  1.0000
  C   C529      1.0  0.27807  0.52609  0.92944  1.0000
  H   H529      1.0  0.43027  0.79886  0.92253  1.0000
  H   H530      1.0  0.17794  0.58503  0.92127  1.0000
  H   H531      1.0  0.20929  0.60067  0.92559  1.0000
  C   C530      1.0  0.45747  0.75459  0.91702  1.0000
  S   S177      1.0  0.47559  0.77039  0.89964  1.0000
  C   C531      1.0  0.09821  0.57770  0.80873  1.0000
  H   H532      1.0  0.02985  0.63450  0.74539  1.0000
  H   H533      1.0  0.26275  0.75738  0.96264  1.0000
  H   H534      1.0  0.44033  0.60761  0.97468  1.0000
  S   S178      1.0  0.38035  0.82953  0.98106  1.0000
  N   N43       1.0  0.22344  0.57136  0.94538  1.0000
  C   C532      1.0  0.00437  0.51074  0.94129  1.0000
  S   S179      1.0  0.16837  0.51544  0.91718  1.0000
  C   C533      1.0  0.22170  0.55012  0.95524  1.0000
  C   C534      1.0  0.14112  0.58038  0.79135  1.0000
  C   C535      1.0  0.41141  0.61235  0.92208  1.0000
  S   S180      1.0  0.40723  0.89904  0.89178  1.0000
  S   S181      1.0  0.33122  0.64293  0.96286  1.0000
  S   S182      1.0  0.29995  0.76663  0.97567  1.0000
  C   C536      1.0  0.24200  0.58106  0.94734  1.0000
  C   C537      1.0  0.43181  0.86445  0.75244  1.0000
  C   C538      1.0  0.42037  0.74808  0.92904  1.0000
  H   H535      1.0  0.08146  0.57660  0.81571  1.0000
  H   H536      1.0  0.23380  0.54028  0.96501  1.0000
  C   C539      1.0  0.44845  0.73130  0.95149  1.0000
  C   C540      1.0  0.00210  0.59144  0.76302  1.0000
  Fe  Fe87      1.0  0.46633  0.91694  0.83007  1.0000
  Fe  Fe88      1.0  0.33343  0.77580  0.96832  1.0000
  N   N44       1.0  0.43174  0.65940  0.98166  1.0000
  H   H537      1.0  0.42459  0.87887  0.93676  1.0000
  C   C541      1.0  0.45097  0.60668  0.92015  1.0000
  H   H538      1.0  0.25621  0.72674  0.94912  1.0000
  H   H539      1.0  0.00520  0.56773  0.79264  1.0000
  H   H540      1.0  0.43727  0.78407  0.97294  1.0000
  C   C542      1.0  0.44956  0.84420  0.89240  1.0000
  H   H541      1.0  0.31574  0.53452  0.84560  1.0000
  C   C543      1.0  0.42955  0.64138  0.92484  1.0000
  H   H542      1.0  0.45704  0.85068  0.87652  1.0000
  H   H543      1.0  0.49271  0.84718  0.77831  1.0000
  S   S183      1.0  0.44941  0.93790  0.80308  1.0000
  C   C544      1.0  0.28373  0.58417  0.83576  1.0000
  C   C545      1.0  0.44511  0.89592  0.76822  1.0000
  C   C546      1.0  0.43176  0.59899  0.91960  1.0000
  H   H544      1.0  0.43260  0.58261  0.91746  1.0000
  Fe  Fe89      1.0  0.03230  0.50439  0.81451  1.0000
  H   H545      1.0  0.45322  0.72196  0.96654  1.0000
  C   C547      1.0  0.43071  0.82803  0.93328  1.0000
  H   H546      1.0  0.26769  0.59145  0.83134  1.0000
  S   S184      1.0  0.40665  0.72796  0.96957  1.0000
  Fe  Fe90      1.0  0.43102  0.95605  0.82746  1.0000
  H   H547      1.0  0.42660  0.98154  0.86196  1.0000
  C   C548      1.0  0.42659  0.73547  0.94837  1.0000
  C   C549      1.0  0.43219  0.86198  0.94366  1.0000
  C   C550      1.0  0.09567  0.49251  0.94769  1.0000
  Fe  Fe91      1.0  0.49023  0.80565  0.95596  1.0000
  S   S185      1.0  0.44944  0.93627  0.85398  1.0000
  H   H548      1.0  0.07341  0.57194  0.78365  1.0000
  H   H549      1.0  0.20278  0.52398  0.96080  1.0000
  H   H550      1.0  0.25093  0.58694  0.93147  1.0000
  S   S186      1.0  0.27519  0.51496  0.87138  1.0000
  H   H551      1.0  0.42099  0.85529  0.95780  1.0000
  C   C551      1.0  0.16966  0.52968  0.79082  1.0000
  C   C552      1.0  0.09073  0.56844  0.77678  1.0000
  C   C553      1.0  0.28911  0.61991  0.83942  1.0000
  H   H552      1.0  0.44678  0.81341  0.88600  1.0000
  Fe  Fe92      1.0  0.36537  0.80303  0.97444  1.0000
  Fe  Fe93      1.0  0.38034  0.75702  0.96585  1.0000
  S   S187      1.0  0.40410  0.93582  0.83583  1.0000
  H   H553      1.0  0.43083  0.76810  0.89874  1.0000
  C   C554      1.0  0.43489  0.77033  0.98682  1.0000
  H   H554      1.0  0.48972  0.96241  0.75578  1.0000
  C   C555      1.0  0.45871  0.88680  0.75231  1.0000
  C   C556      1.0  0.27506  0.50484  0.94019  1.0000
  C   C557      1.0  0.40993  0.66478  0.98011  1.0000
  H   H555      1.0  0.32875  0.72640  0.96865  1.0000
  H   H556      1.0  0.47757  0.97919  0.83323  1.0000
  H   H557      1.0  0.47433  0.89195  0.74624  1.0000
  Fe  Fe94      1.0  0.07929  0.51127  0.81277  1.0000
  H   H558      1.0  0.38109  0.65380  0.97561  1.0000
  C   C558      1.0  0.39830  0.64942  0.97727  1.0000
  C   C559      1.0  0.29572  0.50618  0.96668  1.0000
  H   H559      1.0  0.40143  0.68108  0.98089  1.0000
  H   H560      1.0  0.07680  0.50174  0.91248  1.0000
  S   S188      1.0  0.48941  0.81820  0.92114  1.0000
  N   N45       1.0  0.48691  0.98107  0.80026  1.0000
  C   C560      1.0  0.43155  0.62345  0.97676  1.0000
  H   H561      1.0  0.45222  0.68320  0.96849  1.0000
  C   C561      1.0  0.18390  0.49736  0.93551  1.0000
  S   S189      1.0  0.49086  0.77107  0.95435  1.0000
  C   C562      1.0  0.09428  0.49672  0.90977  1.0000
  H   H562      1.0  0.46012  0.63522  0.98011  1.0000
  C   C563      1.0  0.49183  0.97373  0.82215  1.0000
  H   H563      1.0  0.49222  0.71804  0.90426  1.0000
  C   C564      1.0  0.44266  0.63918  0.97967  1.0000
  H   H564      1.0  0.15827  0.49788  0.96180  1.0000
  H   H565      1.0  0.31445  0.49674  0.89016  1.0000
  H   H566      1.0  0.40047  0.61683  0.97274  1.0000
  C   C565      1.0  0.03283  0.49616  0.90802  1.0000
  N   N46       1.0  0.99415  0.52415  0.74495  1.0000
  H   H567      1.0  0.37158  0.89869  0.98194  1.0000
  H   H568      1.0  0.04925  0.51453  0.73769  1.0000
  C   C566      1.0  0.02134  0.49340  0.94562  1.0000
  H   H569      1.0  0.09578  0.50890  0.95049  1.0000
  Fe  Fe95      1.0  0.49368  0.78323  0.91926  1.0000
  H   H570      1.0  0.21250  0.49383  0.91260  1.0000
  Fe  Fe96      1.0  0.94989  0.43358  0.17303  1.0000
  H   H571      1.0  0.90994  0.47074  0.19357  1.0000
  C   C567      1.0  0.91267  0.42930  0.04109  1.0000
  S   S190      1.0  0.84338  0.47784  0.03378  1.0000
  H   H572      1.0  0.90384  0.39147  0.08693  1.0000
  C   C568      1.0  0.67876  0.45306  0.07534  1.0000
  Fe  Fe97      1.0  0.66653  0.46627  0.00955  1.0000
  S   S191      1.0  0.63937  0.44612  0.02172  1.0000
  H   H573      1.0  0.95519  0.43222  0.13203  1.0000
  S   S192      1.0  0.70262  0.45530  0.00978  1.0000
  C   C569      1.0  0.94433  0.44795  0.02611  1.0000
  N   N47       1.0  0.66301  0.44405  0.07017  1.0000
  H   H574      1.0  0.92158  0.48220  0.08701  1.0000
  S   S193      1.0  0.84722  0.44352  0.09028  1.0000
  C   C570      1.0  0.90264  0.47772  0.20701  1.0000
  C   C571      1.0  0.85138  0.47763  0.12972  1.0000
  H   H575      1.0  0.62956  0.44787  0.06599  1.0000
  S   S194      1.0  0.89416  0.47347  0.99164  1.0000
  C   C572      1.0  0.92676  0.48817  0.09912  1.0000
  S   S195      1.0  0.98704  0.45400  0.05817  1.0000
  Fe  Fe98      1.0  0.94565  0.39429  0.20965  1.0000
  C   C573      1.0  0.98379  0.45422  0.08526  1.0000
  C   C574      1.0  0.65205  0.48369  0.08262  1.0000
  H   H576      1.0  0.58631  0.41053  0.00221  1.0000
  H   H577      1.0  0.96195  0.44171  0.02251  1.0000
  Fe  Fe99      1.0  0.87600  0.48711  0.01945  1.0000
  H   H578      1.0  0.91591  0.48654  0.15198  1.0000
  C   C575      1.0  0.85749  0.45947  0.16552  1.0000
  S   S196      1.0  0.96002  0.39766  0.17542  1.0000
  S   S197      1.0  0.91215  0.39227  0.20395  1.0000
  H   H579      1.0  0.76419  0.47174  0.98720  1.0000
  C   C576      1.0  0.97648  0.45589  0.12827  1.0000
  C   C577      1.0  0.86069  0.47930  0.16893  1.0000
  C   C578      1.0  0.85274  0.45869  0.14579  1.0000
  C   C579      1.0  0.96607  0.44221  0.12109  1.0000
  H   H580      1.0  0.97786  0.41293  0.23014  1.0000
  S   S198      1.0  0.91765  0.38377  0.14560  1.0000
  S   S199      1.0  0.72254  0.47845  0.05030  1.0000
  H   H581      1.0  0.77570  0.47949  0.00684  1.0000
  C   C580      1.0  0.91221  0.40264  0.07430  1.0000
  C   C581      1.0  0.76371  0.48472  0.05297  1.0000
  C   C582      1.0  0.63085  0.43194  0.00553  1.0000
  H   H582      1.0  0.50855  0.13889  0.01629  1.0000
  H   H583      1.0  0.97984  0.45829  0.19476  1.0000
  H   H584      1.0  0.61949  0.48302  0.07714  1.0000
  Fe  Fe100     1.0  0.90638  0.42847  0.20002  1.0000
  C   C583      1.0  0.60971  0.42669  0.01029  1.0000
  C   C584      1.0  0.97722  0.47309  0.20068  1.0000
  H   H585      1.0  0.93710  0.45216  0.01102  1.0000
  H   H586      1.0  0.49784  0.14973  0.06415  1.0000
  H   H587      1.0  0.59887  0.43170  0.02348  1.0000
  S   S200      1.0  0.93898  0.43022  0.20766  1.0000
  C   C585      1.0  0.89833  0.40113  0.13042  1.0000
  C   C586      1.0  0.90150  0.42240  0.11962  1.0000
  C   C587      1.0  0.88613  0.43559  0.10674  1.0000
  C   C588      1.0  0.86745  0.42759  0.10517  1.0000
  C   C589      1.0  0.86427  0.40652  0.11622  1.0000
  C   C590      1.0  0.87981  0.39322  0.12854  1.0000
  H   H588      1.0  0.91607  0.42836  0.12072  1.0000
  H   H589      1.0  0.88862  0.45187  0.09819  1.0000
  H   H590      1.0  0.84980  0.40036  0.11509  1.0000
  H   H591      1.0  0.87737  0.37681  0.13681  1.0000
  C   C591      1.0  0.93336  0.40528  0.07547  1.0000
  Fe  Fe101     1.0  0.85548  0.47246  0.06506  1.0000
  H   H592      1.0  0.49791  0.32376  0.99105  1.0000
  S   S201      1.0  0.87765  0.44546  0.21789  1.0000
  S   S202      1.0  0.97112  0.45789  0.15485  1.0000
  C   C592      1.0  0.90168  0.41484  0.05713  1.0000
  C   C593      1.0  0.91659  0.48301  0.12002  1.0000
  H   H593      1.0  0.65467  0.41608  0.06282  1.0000
  C   C594      1.0  0.77045  0.48534  0.99080  1.0000
  Fe  Fe102     1.0  0.70167  0.48377  0.02430  1.0000
  H   H594      1.0  0.76498  0.46896  0.06395  1.0000
  H   H595      1.0  0.94142  0.39622  0.08909  1.0000
  H   H596      1.0  0.96146  0.43090  0.09423  1.0000
  C   C595      1.0  0.63612  0.47450  0.07712  1.0000
  H   H597      1.0  0.94281  0.46311  0.03196  1.0000
  C   C596      1.0  0.66916  0.42357  0.06286  1.0000
  C   C597      1.0  0.64193  0.45458  0.07083  1.0000
  H   H598      1.0  0.85003  0.44344  0.14295  1.0000
  H   H599      1.0  0.90428  0.43885  0.02787  1.0000
  C   C598      1.0  0.60252  0.41482  0.99818  1.0000
  H   H600      1.0  0.96022  0.42208  0.06026  1.0000
  C   C599      1.0  0.88566  0.46896  0.22112  1.0000
  S   S203      1.0  0.88913  0.47827  0.05063  1.0000
  C   C600      1.0  0.92315  0.49082  0.13560  1.0000
  N   N48       1.0  0.93348  0.43171  0.04228  1.0000
  H   H601      1.0  0.85861  0.44483  0.17817  1.0000
  H   H602      1.0  0.88496  0.41342  0.05646  1.0000
  H   H603      1.0  0.79632  0.48929  0.05468  1.0000
  C   C601      1.0  0.94381  0.42000  0.05922  1.0000
  N   N49       1.0  0.98696  0.49062  0.18958  1.0000
  C   C602      1.0  0.64475  0.42543  0.98842  1.0000
  H   H604      1.0  0.68014  0.41153  0.07320  1.0000
  Fe  Fe103     1.0  0.92568  0.39957  0.16944  1.0000
  S   S204      1.0  0.91640  0.43583  0.16501  1.0000
  C   C603      1.0  0.96968  0.44142  0.09962  1.0000
  H   H605      1.0  0.90403  0.47271  0.12410  1.0000
  H   H606      1.0  0.67756  0.42684  0.04634  1.0000
  H   H607      1.0  0.69564  0.44518  0.07405  1.0000
  H   H608      1.0  0.84754  0.47713  0.11437  1.0000
  H   H609      1.0  0.86409  0.47981  0.18437  1.0000
  H   H610      1.0  0.50395  0.18343  0.03715  1.0000
  C   C604      1.0  0.67351  0.47292  0.08175  1.0000
  C   C605      1.0  0.99074  0.46853  0.11402  1.0000
  H   H611      1.0  0.68623  0.48022  0.08529  1.0000
  C   C606      1.0  0.96361  0.47401  0.21975  1.0000
  H   H612      1.0  0.95549  0.46032  0.22823  1.0000
  C   C607      1.0  0.87621  0.47816  0.23841  1.0000
  S   S205      1.0  0.89459  0.23715  0.44936  1.0000
  C   C608      1.0  0.93819  0.46500  0.44237  1.0000
  Fe  Fe104     1.0  0.90166  0.27154  0.43953  1.0000
  S   S206      1.0  0.92177  0.28422  0.40894  1.0000
  C   C609      1.0  0.96099  0.39145  0.25562  1.0000
  C   C610      1.0  0.49920  0.99466  0.30672  1.0000
  Fe  Fe105     1.0  0.83729  0.12844  0.44706  1.0000
  H   H613      1.0  0.95121  0.47223  0.43059  1.0000
  S   S207      1.0  0.81814  0.16071  0.43317  1.0000
  Fe  Fe106     1.0  0.84163  0.07899  0.45315  1.0000
  S   S208      1.0  0.86891  0.07253  0.47302  1.0000
  S   S209      1.0  0.82702  0.04993  0.45176  1.0000
  H   H614      1.0  0.55224  0.06109  0.28681  1.0000
  H   H615      1.0  0.55665  0.00421  0.46047  1.0000
  Fe  Fe107     1.0  0.88156  0.10060  0.44910  1.0000
  S   S210      1.0  0.91512  0.10723  0.43382  1.0000
  H   H616      1.0  0.95146  0.47957  0.34252  1.0000
  S   S211      1.0  0.85603  0.10492  0.42767  1.0000
  H   H617      1.0  0.93200  0.32948  0.45193  1.0000
  H   H618      1.0  0.77895  0.19718  0.48528  1.0000
  H   H619      1.0  0.79227  0.20248  0.43189  1.0000
  H   H620      1.0  0.56204  0.09738  0.28355  1.0000
  H   H621      1.0  0.85614  0.33729  0.43565  1.0000
  C   C611      1.0  0.89743  0.33615  0.45043  1.0000
  H   H622      1.0  0.94772  0.39833  0.30627  1.0000
  H   H623      1.0  0.93636  0.47216  0.45650  1.0000
  Fe  Fe108     1.0  0.70858  0.02052  0.37315  1.0000
  S   S212      1.0  0.67711  0.03842  0.36099  1.0000
  Fe  Fe109     1.0  0.75169  0.03026  0.38134  1.0000
  C   C612      1.0  0.98919  0.20462  0.46725  1.0000
  S   S213      1.0  0.77224  0.05652  0.37762  1.0000
  H   H624      1.0  0.90005  0.38185  0.27039  1.0000
  C   C613      1.0  0.95205  0.39569  0.45887  1.0000
  S   S214      1.0  0.71883  0.02942  0.40058  1.0000
  H   H625      1.0  0.92282  0.46983  0.43510  1.0000
  C   C614      1.0  0.74427  0.08354  0.41915  1.0000
  C   C615      1.0  0.83276  0.99523  0.39977  1.0000
  H   H626      1.0  0.75672  0.07463  0.48220  1.0000
  C   C616      1.0  0.76685  0.11007  0.41879  1.0000
  H   H627      1.0  0.52703  0.03954  0.28368  1.0000
  Fe  Fe110     1.0  0.53954  0.05408  0.34870  1.0000
  S   S215      1.0  0.50821  0.04119  0.36082  1.0000
  S   S216      1.0  0.54051  0.08990  0.33677  1.0000
  H   H628      1.0  0.78266  0.10452  0.44649  1.0000
  Fe  Fe111     1.0  0.90674  0.23649  0.47966  1.0000
  Fe  Fe112     1.0  0.52164  0.01711  0.34034  1.0000
  H   H629      1.0  0.88082  0.31371  0.40898  1.0000
  S   S217      1.0  0.55668  0.03322  0.37576  1.0000
  S   S218      1.0  0.55221  0.03148  0.32675  1.0000
  Fe  Fe113     1.0  0.94438  0.44365  0.37178  1.0000
  S   S219      1.0  0.92502  0.43832  0.34850  1.0000
  C   C617      1.0  0.50241  0.13829  0.30136  1.0000
  S   S220      1.0  0.95951  0.39230  0.34748  1.0000
  Fe  Fe114     1.0  0.95745  0.42757  0.33093  1.0000
  H   H630      1.0  0.63784  0.01926  0.31283  1.0000
  Fe  Fe115     1.0  0.92853  0.40355  0.36698  1.0000
  S   S221      1.0  0.89925  0.38648  0.37591  1.0000
  C   C618      1.0  0.97108  0.40985  0.24670  1.0000
  S   S222      1.0  0.94508  0.40977  0.39192  1.0000
  C   C619      1.0  0.97810  0.08342  0.44045  1.0000
  C   C620      1.0  0.51420  0.02289  0.47441  1.0000
  C   C621      1.0  0.97286  0.42402  0.25928  1.0000
  C   C622      1.0  0.52035  0.10390  0.32077  1.0000
  C   C623      1.0  0.95447  0.40147  0.28976  1.0000
  C   C624      1.0  0.97380  0.33542  0.42031  1.0000
  C   C625      1.0  0.65534  0.02456  0.36168  1.0000
  H   H631      1.0  0.80405  0.99252  0.34298  1.0000
  C   C626      1.0  0.92146  0.36277  0.43592  1.0000
  C   C627      1.0  0.98828  0.32434  0.43475  1.0000
  C   C628      1.0  0.61844  0.02622  0.35421  1.0000
  C   C629      1.0  0.63559  0.03673  0.35548  1.0000
  H   H632      1.0  0.94529  0.37274  0.28421  1.0000
  S   S223      1.0  0.86342  0.12566  0.46690  1.0000
  H   H633      1.0  0.60342  0.03578  0.34906  1.0000
  H   H634      1.0  0.63365  0.05440  0.35139  1.0000
  H   H635      1.0  0.59745  0.03288  0.46799  1.0000
  H   H636      1.0  0.61044  0.03603  0.42888  1.0000
  H   H637      1.0  0.67089  0.03397  0.31050  1.0000
  C   C630      1.0  0.52020  0.05173  0.27021  1.0000
  C   C631      1.0  0.95576  0.10888  0.48649  1.0000
  C   C632      1.0  0.65772  0.00174  0.36692  1.0000
  C   C633      1.0  0.95301  0.38705  0.27725  1.0000
  S   S224      1.0  0.53738  0.99231  0.36633  1.0000
  H   H638      1.0  0.77396  0.12459  0.41085  1.0000
  C   C634      1.0  0.67933  0.01737  0.31492  1.0000
  C   C635      1.0  0.52226  0.04271  0.46764  1.0000
  C   C636      1.0  0.56940  0.00700  0.44722  1.0000
  H   H639      1.0  0.57294  0.04967  0.45834  1.0000
  Fe  Fe116     1.0  0.56679  0.00926  0.35486  1.0000
  C   C637      1.0  0.74959  0.07249  0.43924  1.0000
  H   H640      1.0  0.97324  0.19907  0.46894  1.0000
  H   H641      1.0  0.92282  0.43882  0.47784  1.0000
  C   C638      1.0  0.70555  0.03144  0.46370  1.0000
  Fe  Fe117     1.0  0.86273  0.25200  0.46483  1.0000
  C   C639      1.0  0.97933  0.35328  0.40436  1.0000
  H   H642      1.0  0.89526  0.31958  0.45833  1.0000
  H   H643      1.0  0.99138  0.28286  0.41518  1.0000
  S   S225      1.0  0.76418  0.99505  0.39379  1.0000
  S   S226      1.0  0.52833  0.05560  0.48614  1.0000
  C   C640      1.0  0.58712  0.00001  0.41343  1.0000
  C   C641      1.0  0.81200  0.05201  0.43096  1.0000
  C   C642      1.0  0.79837  0.03655  0.43281  1.0000
  C   C643      1.0  0.78595  0.03790  0.41661  1.0000
  C   C644      1.0  0.78733  0.05462  0.39834  1.0000
  C   C645      1.0  0.80107  0.07001  0.39642  1.0000
  C   C646      1.0  0.81327  0.06882  0.41277  1.0000
  H   H644      1.0  0.79713  0.02368  0.44694  1.0000
  H   H645      1.0  0.77525  0.02608  0.41835  1.0000
  H   H646      1.0  0.80223  0.08292  0.38227  1.0000
  H   H647      1.0  0.82381  0.08075  0.41119  1.0000
  C   C647      1.0  0.82071  0.00468  0.38287  1.0000
  C   C648      1.0  0.60156  0.01417  0.41291  1.0000
  S   S227      1.0  0.91669  0.26969  0.46833  1.0000
  H   H648      1.0  0.78538  0.06965  0.47201  1.0000
  C   C649      1.0  0.95685  0.05899  0.46639  1.0000
  N   N50       1.0  0.82269  0.99488  0.36621  1.0000
  H   H649      1.0  0.91697  0.46329  0.26818  1.0000
  C   C650      1.0  0.80696  0.20246  0.43830  1.0000
  H   H650      1.0  0.85952  0.20296  0.46121  1.0000
  C   C651      1.0  0.93862  0.09001  0.44257  1.0000
  C   C652      1.0  0.93755  0.07144  0.45909  1.0000
  C   C653      1.0  0.95894  0.09576  0.43312  1.0000
  H   H651      1.0  0.83905  0.00527  0.47615  1.0000
  H   H652      1.0  0.95990  0.10990  0.42012  1.0000
  N   N51       1.0  0.88000  0.35140  0.44429  1.0000
  C   C654      1.0  0.97143  0.26149  0.43737  1.0000
  C   C655      1.0  0.84184  0.18403  0.44891  1.0000
  C   C656      1.0  0.82274  0.18376  0.44083  1.0000
  H   H653      1.0  0.61413  0.01723  0.39951  1.0000
  C   C657      1.0  0.97112  0.24087  0.45097  1.0000
  H   H654      1.0  0.79711  0.23519  0.44312  1.0000
  C   C658      1.0  0.54960  0.09566  0.27481  1.0000
  H   H655      1.0  0.95829  0.33019  0.42142  1.0000
  H   H656      1.0  0.88452  0.40475  0.25399  1.0000
  Fe  Fe118     1.0  0.52646  0.01777  0.38566  1.0000
  C   C659      1.0  0.52322  0.04078  0.43094  1.0000
  C   C660      1.0  0.91538  0.31261  0.39987  1.0000
  C   C661      1.0  0.93204  0.32479  0.39015  1.0000
  C   C662      1.0  0.92719  0.34750  0.38286  1.0000
  C   C663      1.0  0.90560  0.35802  0.38476  1.0000
  C   C664      1.0  0.88889  0.34577  0.39413  1.0000
  C   C665      1.0  0.89379  0.32313  0.40195  1.0000
  H   H657      1.0  0.94875  0.31668  0.38844  1.0000
  H   H658      1.0  0.94012  0.35677  0.37553  1.0000
  H   H659      1.0  0.87214  0.35382  0.39536  1.0000
  C   C666      1.0  0.96183  0.40715  0.43972  1.0000
  S   S228      1.0  0.74070  0.02445  0.35277  1.0000
  C   C667      1.0  0.76870  0.06813  0.46990  1.0000
  H   H660      1.0  0.50451  0.99667  0.46477  1.0000
  C   C668      1.0  0.59943  0.02470  0.42962  1.0000
  H   H661      1.0  0.95601  0.04484  0.47941  1.0000
  C   C669      1.0  0.75311  0.10236  0.40881  1.0000
  C   C670      1.0  0.64746  0.00369  0.30953  1.0000
  H   H662      1.0  0.91370  0.39837  0.24798  1.0000
  C   C671      1.0  0.84489  0.20286  0.45477  1.0000
  C   C672      1.0  0.52200  0.11167  0.25185  1.0000
  S   S229      1.0  0.51229  0.00600  0.41955  1.0000
  C   C673      1.0  0.80975  0.22101  0.44457  1.0000
  H   H663      1.0  0.90596  0.39432  0.42013  1.0000
  S   S230      1.0  0.97663  0.43614  0.35256  1.0000
  N   N52       1.0  0.76344  0.07987  0.44875  1.0000
  H   H664      1.0  0.99366  0.08783  0.43276  1.0000
  N   N53       1.0  0.90261  0.41364  0.27399  1.0000
  C   C674      1.0  0.90928  0.43321  0.26419  1.0000
  C   C675      1.0  0.89768  0.40823  0.29558  1.0000
  C   C676      1.0  0.91151  0.44785  0.27602  1.0000
  C   C677      1.0  0.89980  0.42246  0.30795  1.0000
  C   C678      1.0  0.90677  0.44239  0.29802  1.0000
  C   C679      1.0  0.89998  0.39891  0.26104  1.0000
  N   N54       1.0  0.58362  0.02087  0.44658  1.0000
  H   H665      1.0  0.89225  0.39278  0.30339  1.0000
  Fe  Fe119     1.0  0.97582  0.40180  0.37070  1.0000
  H   H666      1.0  0.89617  0.41798  0.32511  1.0000
  Fe  Fe120     1.0  0.88323  0.28198  0.48257  1.0000
  H   H667      1.0  0.50216  0.05312  0.27387  1.0000
  H   H668      1.0  0.95544  0.37795  0.46314  1.0000
  S   S231      1.0  0.97982  0.30389  0.45614  1.0000
  N   N55       1.0  0.87096  0.19910  0.40382  1.0000
  C   C680      1.0  0.89047  0.18865  0.41044  1.0000
  C   C681      1.0  0.85800  0.18800  0.39710  1.0000
  C   C682      1.0  0.89717  0.16637  0.41092  1.0000
  C   C683      1.0  0.86420  0.16573  0.39742  1.0000
  C   C684      1.0  0.88391  0.15490  0.40436  1.0000
  C   C685      1.0  0.86429  0.22251  0.40315  1.0000
  H   H669      1.0  0.90086  0.19750  0.41554  1.0000
  H   H670      1.0  0.84240  0.19614  0.39211  1.0000
  H   H671      1.0  0.91249  0.15788  0.41642  1.0000
  H   H672      1.0  0.85350  0.15682  0.39281  1.0000
  H   H673      1.0  0.88886  0.13760  0.40476  1.0000
  H   H674      1.0  0.87033  0.22727  0.41601  1.0000
  H   H675      1.0  0.87074  0.23226  0.38762  1.0000
  H   H676      1.0  0.84623  0.22683  0.40562  1.0000
  H   H677      1.0  0.73397  0.07709  0.41136  1.0000
  H   H678      1.0  0.52784  0.13542  0.32040  1.0000
  C   C686      1.0  0.50732  0.09270  0.31342  1.0000
  C   C687      1.0  0.82863  0.22126  0.45287  1.0000
  H   H679      1.0  0.95612  0.23723  0.46097  1.0000
  H   H680      1.0  0.95493  0.09253  0.48523  1.0000
  H   H681      1.0  0.99183  0.20637  0.48302  1.0000
  C   C688      1.0  0.97714  0.06532  0.45741  1.0000
  H   H682      1.0  0.82036  0.01429  0.33520  1.0000
  C   C689      1.0  0.62107  0.00341  0.35880  1.0000
  C   C690      1.0  0.72373  0.99599  0.45775  1.0000
  H   H683      1.0  0.92801  0.12326  0.46976  1.0000
  C   C691      1.0  0.51537  0.02084  0.43774  1.0000
  H   H684      1.0  0.69257  0.04519  0.46104  1.0000
  C   C692      1.0  0.90370  0.37808  0.42920  1.0000
  H   H685      1.0  0.50923  0.07506  0.31798  1.0000
  H   H686      1.0  0.92191  0.06681  0.46637  1.0000
  S   S232      1.0  0.96650  0.43843  0.29578  1.0000
  H   H687      1.0  0.74962  0.11064  0.39294  1.0000
  N   N56       1.0  0.98959  0.22563  0.45198  1.0000
  C   C693      1.0  0.88297  0.37206  0.43343  1.0000
  C   C694      1.0  0.73740  0.01316  0.48054  1.0000
  H   H688      1.0  0.74306  0.05764  0.44689  1.0000
  H   H689      1.0  0.93768  0.36708  0.43243  1.0000
  S   S233      1.0  0.86873  0.28669  0.45253  1.0000
  C   C695      1.0  0.94109  0.14729  0.47985  1.0000
  H   H690      1.0  0.90863  0.45361  0.30731  1.0000
  N   N57       1.0  0.66924  0.99996  0.31597  1.0000
  C   C696      1.0  0.95701  0.43000  0.43445  1.0000
  H   H691      1.0  0.57141  0.02488  0.47811  1.0000
  S   S234      1.0  0.82013  0.10315  0.47024  1.0000
  C   C697      1.0  0.54373  0.07516  0.27688  1.0000
  S   S235      1.0  0.49649  0.01575  0.32020  1.0000
  C   C698      1.0  0.58132  0.03266  0.46353  1.0000
  C   C699      1.0  0.52647  0.05180  0.44590  1.0000
  C   C700      1.0  0.94038  0.12623  0.47786  1.0000
  H   H692      1.0  0.52675  0.04772  0.41419  1.0000
  C   C701      1.0  0.96431  0.42004  0.28073  1.0000
  H   H693      1.0  0.96793  0.36202  0.39349  1.0000
  C   C702      1.0  0.91834  0.34165  0.44666  1.0000
  S   S236      1.0  0.83020  0.24412  0.46240  1.0000
  N   N58       1.0  0.94342  0.44112  0.44821  1.0000
  C   C703      1.0  0.77178  0.09860  0.43894  1.0000
  H   H694      1.0  0.79549  0.01660  0.35331  1.0000
  H   H695      1.0  0.97286  0.39840  0.42887  1.0000
  C   C704      1.0  0.93374  0.43001  0.46699  1.0000
  H   H696      1.0  0.91291  0.43756  0.24711  1.0000
  S   S237      1.0  0.93628  0.47230  0.38726  1.0000
  C   C705      1.0  0.51648  0.09093  0.25441  1.0000
  H   H697      1.0  0.85444  0.16998  0.45025  1.0000
  C   C706      1.0  0.73896  0.99567  0.47094  1.0000
  H   H698      1.0  0.96410  0.43882  0.41922  1.0000
  N   N59       1.0  0.52697  0.07309  0.26717  1.0000
  H   H699      1.0  0.86940  0.38386  0.42749  1.0000
  Fe  Fe121     1.0  0.73030  0.99339  0.41046  1.0000
  H   H700      1.0  0.69527  0.01413  0.44382  1.0000
  H   H701      1.0  0.95689  0.27373  0.43671  1.0000
  C   C707      1.0  0.72066  0.03090  0.47710  1.0000
  H   H702      1.0  0.70797  0.02798  0.32021  1.0000
  C   C708      1.0  0.57080  0.99651  0.43061  1.0000
  C   C709      1.0  0.93783  0.40716  0.47255  1.0000
  H   H703      1.0  0.53259  0.06719  0.44060  1.0000
  H   H704      1.0  0.98109  0.43799  0.25245  1.0000
  C   C710      1.0  0.51062  0.01207  0.45948  1.0000
  C   C711      1.0  0.70704  0.01386  0.45408  1.0000
  H   H705      1.0  0.80970  0.01984  0.38316  1.0000
  C   C712      1.0  0.71116  0.99285  0.32680  1.0000
  C   C713      1.0  0.51784  0.12669  0.31471  1.0000
  S   S238      1.0  0.95804  0.37414  0.23974  1.0000
  C   C714      1.0  0.70037  0.01409  0.32038  1.0000
  H   H706      1.0  0.50052  0.15594  0.29686  1.0000
  C   C715      1.0  0.81007  0.00509  0.34854  1.0000
  H   H707      1.0  0.99033  0.37585  0.48322  1.0000
  H   H708      1.0  0.83089  0.00285  0.41317  1.0000
  H   H709      1.0  0.51295  0.12591  0.24246  1.0000
  H   H710      1.0  0.92918  0.16096  0.47348  1.0000
  H   H711      1.0  0.86545  0.00606  0.48256  1.0000
  H   H712      1.0  0.64876  0.00424  0.29235  1.0000
  C   C716      1.0  0.85824  0.34517  0.44828  1.0000
  C   C717      1.0  0.99088  0.26662  0.42516  1.0000
  H   H713      1.0  0.76825  0.05037  0.47242  1.0000
  H   H714      1.0  0.52536  0.04537  0.25554  1.0000
  C   C718      1.0  0.53851  0.11404  0.26233  1.0000
  H   H715      1.0  0.86312  0.47132  0.24939  1.0000
  H   H716      1.0  0.84527  0.35955  0.44879  1.0000
  H   H717      1.0  0.85592  0.33354  0.46389  1.0000
  H   H718      1.0  0.50339  0.08926  0.24656  1.0000
  H   H719      1.0  0.54230  0.13015  0.26123  1.0000
  H   H720      1.0  0.67288  0.99221  0.37165  1.0000
  C   C719      1.0  0.94482  0.21187  0.51090  1.0000
  Fe  Fe122     1.0  0.98452  0.39753  0.54255  1.0000
  C   C720      1.0  0.97674  0.38805  0.63006  1.0000
  C   C721      1.0  0.84348  0.18878  0.51239  1.0000
  C   C722      1.0  0.65700  0.00236  0.56484  1.0000
  S   S239      1.0  0.97302  0.46993  0.71168  1.0000
  Fe  Fe123     1.0  0.84803  0.09824  0.48856  1.0000
  H   H721      1.0  0.66680  0.05069  0.55510  1.0000
  Fe  Fe124     1.0  0.75073  0.02805  0.55971  1.0000
  N   N60       1.0  0.97380  0.28713  0.56134  1.0000
  S   S240      1.0  0.76996  0.04233  0.57705  1.0000
  H   H722      1.0  0.80730  0.21142  0.49714  1.0000
  Fe  Fe125     1.0  0.70895  0.00967  0.56309  1.0000
  C   C723      1.0  0.79448  0.16363  0.49316  1.0000
  H   H723      1.0  0.91579  0.41209  0.64116  1.0000
  Fe  Fe126     1.0  0.93993  0.39976  0.56787  1.0000
  S   S241      1.0  0.76408  0.02045  0.52799  1.0000
  H   H724      1.0  0.83220  0.03579  0.54105  1.0000
  S   S242      1.0  0.67615  0.00318  0.58104  1.0000
  H   H725      1.0  0.83963  0.18895  0.52949  1.0000
  H   H726      1.0  0.65069  0.05730  0.53392  1.0000
  S   S243      1.0  0.98006  0.41617  0.72050  1.0000
  H   H727      1.0  0.98809  0.45859  0.63668  1.0000
  H   H728      1.0  0.58309  0.03511  0.60490  1.0000
  C   C724      1.0  0.81219  0.14949  0.50149  1.0000
  C   C725      1.0  0.94476  0.48274  0.51480  1.0000
  H   H729      1.0  0.81018  0.00830  0.56359  1.0000
  C   C726      1.0  0.95710  0.15069  0.49034  1.0000
  H   H730      1.0  0.52572  0.00772  0.63979  1.0000
  C   C727      1.0  0.79260  0.18599  0.49183  1.0000
  S   S244      1.0  0.54968  0.99731  0.51528  1.0000
  H   H731      1.0  0.80893  0.07908  0.51053  1.0000
  Fe  Fe127     1.0  0.57471  0.00171  0.53365  1.0000
  C   C728      1.0  0.93201  0.48453  0.62586  1.0000
  H   H732      1.0  0.83011  0.08289  0.56800  1.0000
  H   H733      1.0  0.99361  0.38072  0.62724  1.0000
  S   S245      1.0  0.74122  0.99497  0.57456  1.0000
  H   H734      1.0  0.98443  0.13579  0.50709  1.0000
  S   S246      1.0  0.87565  0.30869  0.50105  1.0000
  S   S247      1.0  0.61048  0.99408  0.52256  1.0000
  H   H735      1.0  0.98255  0.18627  0.54414  1.0000
  C   C729      1.0  0.51123  0.05343  0.62317  1.0000
  C   C730      1.0  0.79080  0.06394  0.53944  1.0000
  H   H736      1.0  0.61859  0.03343  0.61748  1.0000
  N   N61       1.0  0.82655  0.18004  0.50583  1.0000
  C   C731      1.0  0.94062  0.39826  0.61919  1.0000
  S   S248      1.0  0.71877  0.05181  0.49033  1.0000
  C   C732      1.0  0.84135  0.01865  0.51559  1.0000
  H   H737      1.0  0.95586  0.17803  0.52471  1.0000
  H   H738      1.0  0.67552  0.01635  0.53557  1.0000
  Fe  Fe128     1.0  0.72975  0.03297  0.52105  1.0000
  H   H739      1.0  0.80156  0.06175  0.58893  1.0000
  C   C733      1.0  0.96529  0.47814  0.52162  1.0000
  H   H740      1.0  0.61159  0.05881  0.54117  1.0000
  H   H741      1.0  0.92909  0.45038  0.63665  1.0000
  C   C734      1.0  0.90914  0.35087  0.51425  1.0000
  C   C735      1.0  0.93075  0.34306  0.50724  1.0000
  C   C736      1.0  0.93288  0.40566  0.63789  1.0000
  C   C737      1.0  0.78892  0.05864  0.56161  1.0000
  H   H742      1.0  0.57973  0.04801  0.56668  1.0000
  H   H743      1.0  0.90535  0.36529  0.52079  1.0000
  C   C738      1.0  0.80875  0.19394  0.49850  1.0000
  C   C739      1.0  0.96047  0.27281  0.56078  1.0000
  S   S249      1.0  0.92273  0.40645  0.53898  1.0000
  C   C740      1.0  0.81898  0.00581  0.54840  1.0000
  C   C741      1.0  0.82817  0.15799  0.50784  1.0000
  C   C742      1.0  0.65112  0.06000  0.54992  1.0000
  C   C743      1.0  0.93107  0.30266  0.55332  1.0000
  H   H744      1.0  0.99253  0.08235  0.49502  1.0000
  C   C744      1.0  0.96920  0.39616  0.64840  1.0000
  C   C745      1.0  0.97223  0.13298  0.49873  1.0000
  C   C746      1.0  0.80299  0.06574  0.57180  1.0000
  H   H745      1.0  0.64998  0.04484  0.59167  1.0000
  H   H746      1.0  0.93178  0.48669  0.64179  1.0000
  C   C747      1.0  0.51470  0.05057  0.60235  1.0000
  C   C748      1.0  0.95747  0.19480  0.52357  1.0000
  C   C749      1.0  0.94449  0.31704  0.55477  1.0000
  C   C750      1.0  0.96193  0.23810  0.52072  1.0000
  S   S250      1.0  0.53972  0.03619  0.59318  1.0000
  Fe  Fe129     1.0  0.94931  0.38106  0.52821  1.0000
  C   C751      1.0  0.93908  0.28038  0.55632  1.0000
  H   H747      1.0  0.93838  0.33440  0.55252  1.0000
  H   H748      1.0  0.84473  0.20575  0.50314  1.0000
  H   H749      1.0  0.96631  0.25542  0.56370  1.0000
  C   C752      1.0  0.82149  0.08251  0.53781  1.0000
  S   S251      1.0  0.95025  0.44615  0.68390  1.0000
  H   H750      1.0  0.52404  0.04741  0.63315  1.0000
  C   C753      1.0  0.96260  0.38949  0.61528  1.0000
  S   S252      1.0  0.87416  0.24852  0.49614  1.0000
  C   C754      1.0  0.96602  0.30900  0.55857  1.0000
  C   C755      1.0  0.80719  0.07571  0.52755  1.0000
  H   H751      1.0  0.97572  0.46284  0.52045  1.0000
  C   C756      1.0  0.81915  0.07770  0.55995  1.0000
  H   H752      1.0  0.97647  0.32039  0.55920  1.0000
  S   S253      1.0  0.95242  0.35611  0.50852  1.0000
  H   H753      1.0  0.93012  0.39841  0.48748  1.0000
  C   C757      1.0  0.83107  0.02144  0.53560  1.0000
  H   H754      1.0  0.95769  0.16693  0.49211  1.0000
  S   S254      1.0  0.92795  0.20613  0.49498  1.0000
  S   S255      1.0  0.96193  0.42480  0.55443  1.0000
  H   H755      1.0  0.92882  0.26902  0.55520  1.0000
  H   H756      1.0  0.91454  0.30879  0.54974  1.0000
  C   C758      1.0  0.89709  0.32133  0.50402  1.0000
  C   C759      1.0  0.94666  0.23347  0.51009  1.0000
  S   S256      1.0  0.84286  0.09635  0.52351  1.0000
  Fe  Fe130     1.0  0.54120  0.02490  0.56306  1.0000
  S   S257      1.0  0.71728  0.04347  0.55147  1.0000
  H   H757      1.0  0.96860  0.38335  0.60109  1.0000
  Fe  Fe131     1.0  0.94640  0.42988  0.52503  1.0000
  C   C760      1.0  0.62716  0.99898  0.53907  1.0000
  C   C761      1.0  0.94721  0.40496  0.65231  1.0000
  S   S258      1.0  0.56216  0.03697  0.53279  1.0000
  S   S259      1.0  0.96395  0.37186  0.55866  1.0000
  H   H758      1.0  0.98868  0.49014  0.53422  1.0000
  H   H759      1.0  0.87558  0.34626  0.51769  1.0000
  N   N62       1.0  0.84063  0.00015  0.50901  1.0000
  S   S260      1.0  0.92276  0.40068  0.60062  1.0000
  H   H760      1.0  0.93322  0.47646  0.56932  1.0000
  S   S261      1.0  0.93539  0.46316  0.50555  1.0000
  H   H761      1.0  0.84189  0.14677  0.51428  1.0000
  H   H762      1.0  0.65094  0.07764  0.54872  1.0000
  Fe  Fe132     1.0  0.53574  0.03195  0.51652  1.0000
  H   H763      1.0  0.84988  0.03139  0.50536  1.0000
  C   C762      1.0  0.64629  0.00751  0.52997  1.0000
  H   H764      1.0  0.94111  0.41063  0.66672  1.0000
  C   C763      1.0  0.97491  0.22110  0.53293  1.0000
  H   H765      1.0  0.77983  0.05876  0.53147  1.0000
  C   C764      1.0  0.97241  0.19944  0.53475  1.0000
  C   C765      1.0  0.98711  0.09382  0.50581  1.0000
  H   H766      1.0  0.96385  0.25489  0.51920  1.0000
  H   H767      1.0  0.85974  0.17880  0.50956  1.0000
  C   C766      1.0  0.93097  0.46095  0.60262  1.0000
  H   H768      1.0  0.93567  0.49177  0.68971  1.0000
  C   C767      1.0  0.93059  0.46391  0.62304  1.0000
  S   S262      1.0  0.51322  0.02360  0.54679  1.0000
  H   H769      1.0  0.81357  0.13202  0.50302  1.0000
  C   C768      1.0  0.66107  0.00937  0.54282  1.0000
  N   N63       1.0  0.63261  0.05253  0.56495  1.0000
  C   C769      1.0  0.61320  0.05341  0.55791  1.0000
  C   C770      1.0  0.63454  0.04573  0.58610  1.0000
  C   C771      1.0  0.59515  0.04721  0.57221  1.0000
  C   C772      1.0  0.61686  0.03918  0.60079  1.0000
  C   C773      1.0  0.59704  0.04000  0.59374  1.0000
  C   C774      1.0  0.50800  0.00185  0.71215  1.0000
  Fe  Fe133     1.0  0.98039  0.42104  0.68529  1.0000
  C   C775      1.0  0.89233  0.34005  0.51253  1.0000
  Fe  Fe134     1.0  0.95203  0.44402  0.71830  1.0000
  Fe  Fe135     1.0  0.97362  0.46979  0.67756  1.0000
  H   H770      1.0  0.64986  0.01243  0.51290  1.0000
  H   H771      1.0  0.92961  0.44507  0.60024  1.0000
  S   S263      1.0  0.71919  0.00014  0.53203  1.0000
  S   S264      1.0  0.49736  0.02888  0.71328  1.0000
  S   S265      1.0  0.97138  0.40538  0.51171  1.0000
  C   C776      1.0  0.63745  0.99459  0.57401  1.0000
  H   H772      1.0  0.53517  0.00112  0.72825  1.0000
  C   C777      1.0  0.93292  0.47855  0.58530  1.0000
  N   N64       1.0  0.97159  0.11243  0.49648  1.0000
  H   H773      1.0  0.51068  0.01593  0.49117  1.0000
  C   C778      1.0  0.99170  0.47579  0.58320  1.0000
  S   S266      1.0  0.98775  0.39538  0.66586  1.0000
  H   H774      1.0  0.93664  0.24672  0.50105  1.0000
  H   H775      1.0  0.50089  0.05714  0.57319  1.0000
  C   C779      1.0  0.62245  0.99304  0.56115  1.0000
  H   H776      1.0  0.97938  0.08492  0.52116  1.0000
  C   C780      1.0  0.49821  0.05896  0.58940  1.0000
  C   C781      1.0  0.98810  0.47693  0.60448  1.0000
  C   C782      1.0  0.93549  0.32426  0.49900  1.0000
  C   C783      1.0  0.99128  0.45785  0.62011  1.0000
  C   C784      1.0  0.91877  0.31331  0.49760  1.0000
  H   H777      1.0  0.74930  0.01307  0.49050  1.0000
  H   H778      1.0  0.98907  0.49061  0.57096  1.0000
  H   H779      1.0  0.95222  0.31797  0.49383  1.0000
  H   H780      1.0  0.92279  0.29871  0.49147  1.0000
  C   C785      1.0  0.85083  0.99782  0.48770  1.0000
  H   H781      1.0  0.78228  0.15725  0.48772  1.0000
  C   C786      1.0  0.90101  0.46742  0.79595  1.0000
  S   S267      1.0  0.50431  0.26327  0.91607  1.0000
  H   H782      1.0  0.95813  0.41295  0.76760  1.0000
  H   H783      1.0  0.94437  0.44452  0.82645  1.0000
  H   H784      1.0  0.55743  0.48475  0.96020  1.0000
  H   H785      1.0  0.60383  0.36204  0.90024  1.0000
  H   H786      1.0  0.61175  0.37030  0.93279  1.0000
  C   C787      1.0  0.76669  0.47714  0.83147  1.0000
  H   H787      1.0  0.62227  0.47104  0.97722  1.0000
  C   C788      1.0  0.50053  0.35461  0.96900  1.0000
  C   C789      1.0  0.88789  0.48937  0.96673  1.0000
  S   S268      1.0  0.55249  0.43051  0.95980  1.0000
  H   H788      1.0  0.61669  0.32015  0.88405  1.0000
  Fe  Fe136     1.0  0.70589  0.48000  0.97900  1.0000
  C   C790      1.0  0.91925  0.45947  0.76218  1.0000
  C   C791      1.0  0.99403  0.42641  0.80309  1.0000
  H   H789      1.0  0.49847  0.12887  0.79959  1.0000
  C   C792      1.0  0.93303  0.48324  0.77862  1.0000
  H   H790      1.0  0.51357  0.11035  0.83686  1.0000
  C   C793      1.0  0.50672  0.16217  0.82874  1.0000
  N   N65       1.0  0.97189  0.43234  0.80616  1.0000
  S   S269      1.0  0.51047  0.24209  0.96628  1.0000
  C   C794      1.0  0.50785  0.17936  0.89243  1.0000
  H   H791      1.0  0.59002  0.33684  0.88521  1.0000
  Fe  Fe137     1.0  0.53171  0.24774  0.93511  1.0000
  S   S270      1.0  0.53234  0.21384  0.93029  1.0000
  S   S271      1.0  0.55916  0.26554  0.93541  1.0000
  C   C795      1.0  0.88994  0.47956  0.94944  1.0000
  H   H792      1.0  0.53149  0.12600  0.84251  1.0000
  Fe  Fe138     1.0  0.55504  0.43747  0.92436  1.0000
  S   S272      1.0  0.58030  0.40855  0.92031  1.0000
  S   S273      1.0  0.55998  0.47102  0.90543  1.0000
  Fe  Fe139     1.0  0.52690  0.41061  0.95907  1.0000
  S   S274      1.0  0.65175  0.48877  0.91656  1.0000
  Fe  Fe140     1.0  0.55264  0.39004  0.92399  1.0000
  S   S275      1.0  0.54984  0.36772  0.90314  1.0000
  C   C796      1.0  0.60088  0.32308  0.89415  1.0000
  S   S276      1.0  0.52760  0.42009  0.92383  1.0000
  H   H793      1.0  0.50294  0.36283  0.98082  1.0000
  S   S277      1.0  0.87307  0.48440  0.87007  1.0000
  S   S278      1.0  0.60897  0.38984  0.96844  1.0000
  C   C797      1.0  0.61230  0.33725  0.95078  1.0000
  Fe  Fe141     1.0  0.57657  0.40056  0.95586  1.0000
  H   H794      1.0  0.61215  0.30294  0.96441  1.0000
  N   N66       1.0  0.97453  0.48959  0.87438  1.0000
  C   C798      1.0  0.55251  0.29413  0.92818  1.0000
  C   C799      1.0  0.55588  0.30698  0.94142  1.0000
  C   C800      1.0  0.55386  0.32982  0.93441  1.0000
  C   C801      1.0  0.54886  0.33980  0.91396  1.0000
  C   C802      1.0  0.54458  0.32702  0.90109  1.0000
  C   C803      1.0  0.54625  0.30426  0.90823  1.0000
  H   H795      1.0  0.56075  0.29919  0.95688  1.0000
  H   H796      1.0  0.55726  0.33948  0.94442  1.0000
  H   H797      1.0  0.54072  0.33465  0.88524  1.0000
  H   H798      1.0  0.54382  0.29442  0.89785  1.0000
  H   H799      1.0  0.89041  0.44684  0.77941  1.0000
  H   H800      1.0  0.52169  0.14533  0.89528  1.0000
  H   H801      1.0  0.52081  0.18324  0.89900  1.0000
  S   S279      1.0  0.55082  0.37955  0.95926  1.0000
  C   C804      1.0  0.57309  0.48967  0.95952  1.0000
  H   H802      1.0  0.64882  0.40720  0.96402  1.0000
  H   H803      1.0  0.70745  0.44608  0.94588  1.0000
  H   H804      1.0  0.69316  0.47301  0.93577  1.0000
  C   C805      1.0  0.62693  0.48325  0.91241  1.0000
  C   C806      1.0  0.61666  0.40754  0.98162  1.0000
  C   C807      1.0  0.60605  0.34891  0.91416  1.0000
  N   N67       1.0  0.49443  0.33369  0.93861  1.0000
  H   H805      1.0  0.51591  0.16234  0.84119  1.0000
  C   C808      1.0  0.60947  0.48189  0.96904  1.0000
  H   H806      1.0  0.96795  0.49168  0.84300  1.0000
  H   H807      1.0  0.59273  0.30842  0.89746  1.0000
  H   H808      1.0  0.96994  0.43919  0.83662  1.0000
  C   C809      1.0  0.50832  0.15793  0.89031  1.0000
  C   C810      1.0  0.78665  0.47068  0.83962  1.0000
  H   H809      1.0  0.58615  0.45966  0.97980  1.0000
  H   H810      1.0  0.60554  0.29492  0.93127  1.0000
  H   H811      1.0  0.89517  0.46212  0.95153  1.0000
  H   H812      1.0  0.94158  0.43233  0.79596  1.0000
  H   H813      1.0  0.50235  0.38295  0.94333  1.0000
  C   C811      1.0  0.61022  0.35378  0.93256  1.0000
  C   C812      1.0  0.91678  0.48004  0.79595  1.0000
  C   C813      1.0  0.52321  0.12383  0.82972  1.0000
  H   H814      1.0  0.49999  0.14489  0.96183  1.0000
  H   H815      1.0  0.98828  0.46010  0.75054  1.0000
  C   C814      1.0  0.61892  0.46452  0.92468  1.0000
  C   C815      1.0  0.59849  0.46057  0.92235  1.0000
  C   C816      1.0  0.58594  0.47544  0.90786  1.0000
  H   H816      1.0  0.51154  0.14920  0.93440  1.0000
  H   H817      1.0  0.50242  0.11684  0.92798  1.0000
  H   H818      1.0  0.62836  0.45314  0.93619  1.0000
  H   H819      1.0  0.59236  0.44619  0.93208  1.0000
  S   S280      1.0  0.49449  0.40897  0.97993  1.0000
  C   C817      1.0  0.61068  0.31593  0.95029  1.0000
  C   C818      1.0  0.93435  0.47296  0.76183  1.0000
  N   N68       1.0  0.60441  0.32799  0.91383  1.0000
  H   H820      1.0  0.94724  0.47526  0.74884  1.0000
  C   C819      1.0  0.60699  0.31151  0.93148  1.0000
  C   C820      1.0  0.90224  0.45718  0.77905  1.0000
  C   C821      1.0  0.50018  0.36594  0.94796  1.0000
  H   H821      1.0  0.88613  0.48452  0.91638  1.0000
  C   C822      1.0  0.95909  0.42742  0.79375  1.0000
  H   H822      1.0  0.88835  0.46486  0.80930  1.0000
  N   N69       1.0  0.70578  0.45450  0.91265  1.0000
  C   C823      1.0  0.69298  0.45275  0.89852  1.0000
  C   C824      1.0  0.72729  0.45631  0.90632  1.0000
  C   C825      1.0  0.70171  0.45259  0.87749  1.0000
  C   C826      1.0  0.73666  0.45579  0.88551  1.0000
  C   C827      1.0  0.72374  0.45392  0.87104  1.0000
  C   C828      1.0  0.69625  0.45568  0.93439  1.0000
  H   H823      1.0  0.67581  0.45178  0.90337  1.0000
  H   H824      1.0  0.73732  0.45831  0.91732  1.0000
  H   H825      1.0  0.69141  0.45176  0.86619  1.0000
  H   H826      1.0  0.75373  0.45725  0.88056  1.0000
  H   H827      1.0  0.73066  0.45395  0.85473  1.0000
  H   H828      1.0  0.68051  0.44932  0.93891  1.0000
  C   C829      1.0  0.49774  0.33271  0.97473  1.0000
  C   C830      1.0  0.96208  0.44527  0.82195  1.0000
  S   S281      1.0  0.92194  0.44424  0.74264  1.0000
  N   N70       1.0  0.50871  0.14372  0.82112  1.0000
  H   H829      1.0  0.49698  0.36418  0.91653  1.0000
  H   H830      1.0  0.61512  0.34109  0.96521  1.0000
  H   H831      1.0  0.53579  0.11898  0.81697  1.0000
  S   S282      1.0  0.51140  0.17978  0.98689  1.0000
  H   H832      1.0  0.79852  0.45786  0.83430  1.0000
  C   C831      1.0  0.63778  0.41291  0.97674  1.0000
  Fe  Fe142     1.0  0.50835  0.20977  0.96012  1.0000
  H   H833      1.0  0.97977  0.47951  0.77967  1.0000
  Fe  Fe143     1.0  0.50261  0.22905  0.91405  1.0000
  C   C832      1.0  0.49624  0.15158  0.94534  1.0000
  H   H834      1.0  0.96393  0.46269  0.81535  1.0000
  C   C833      1.0  0.79119  0.48049  0.85484  1.0000
  H   H835      1.0  0.76336  0.46940  0.81973  1.0000
  S   S283      1.0  0.73321  0.47752  0.95242  1.0000
  C   C834      1.0  0.58921  0.47558  0.97051  1.0000
  C   C835      1.0  0.49702  0.35522  0.93288  1.0000
  C   C836      1.0  0.96839  0.41632  0.77771  1.0000
  S   S284      1.0  0.81522  0.47033  0.86662  1.0000
  C   C837      1.0  0.99095  0.41014  0.77451  1.0000
  H   H836      1.0  0.97665  0.48950  0.90651  1.0000
  C   C838      1.0  0.49699  0.14354  0.80553  1.0000
  H   H837      1.0  0.66108  0.42941  0.98464  1.0000
  H   H838      1.0  0.49993  0.30594  0.92520  1.0000
  S   S285      1.0  0.91786  0.49042  0.81806  1.0000
  S   S286      1.0  0.66977  0.48822  0.97721  1.0000
  H   H839      1.0  0.49569  0.33141  0.90645  1.0000
  H   H840      1.0  0.77741  0.48266  0.95028  1.0000
  C   C839      1.0  0.49460  0.32246  0.95924  1.0000
  C   C840      1.0  0.78936  0.49040  0.95446  1.0000
  C   C841      1.0  0.96964  0.56302  0.10475  1.0000
  Fe  Fe144     1.0  0.92561  0.59549  0.18026  1.0000
  S   S287      1.0  0.92958  0.59097  0.14673  1.0000
  S   S288      1.0  0.92934  0.62636  0.18896  1.0000
  Fe  Fe145     1.0  0.91800  0.54932  0.19981  1.0000
  S   S289      1.0  0.92125  0.54030  0.16851  1.0000
  Fe  Fe146     1.0  0.83394  0.51254  0.03675  1.0000
  Fe  Fe147     1.0  0.94947  0.55869  0.15942  1.0000
  Fe  Fe148     1.0  0.87638  0.51308  0.05240  1.0000
  Fe  Fe149     1.0  0.90106  0.57285  0.15826  1.0000
  S   S290      1.0  0.87328  0.57337  0.14063  1.0000
  S   S291      1.0  0.94806  0.56480  0.19186  1.0000
  S   S292      1.0  0.89518  0.58043  0.19061  1.0000
  C   C842      1.0  0.90108  0.50465  0.22762  1.0000
  C   C843      1.0  0.98320  0.50945  0.19686  1.0000
  H   H841      1.0  0.87932  0.52226  0.14803  1.0000
  S   S293      1.0  0.86589  0.52254  0.01994  1.0000
  C   C844      1.0  0.92919  0.61841  0.23221  1.0000
  H   H842      1.0  0.94521  0.50959  0.14205  1.0000
  S   S294      1.0  0.70719  0.50765  0.99358  1.0000
  C   C845      1.0  0.91164  0.58244  0.03798  1.0000
  H   H843      1.0  0.85042  0.53206  0.15116  1.0000
  C   C846      1.0  0.95377  0.50583  0.07214  1.0000
  H   H844      1.0  0.64792  0.49939  0.08701  1.0000
  H   H845      1.0  0.92390  0.50174  0.19968  1.0000
  C   C847      1.0  0.94167  0.56290  0.01858  1.0000
  N   N71       1.0  0.92752  0.55737  0.00794  1.0000
  S   S295      1.0  0.84344  0.50658  0.06942  1.0000
  S   S296      1.0  0.98066  0.54184  0.14423  1.0000
  C   C848      1.0  0.91832  0.62939  0.21474  1.0000
  H   H846      1.0  0.87988  0.58148  0.03071  1.0000
  C   C849      1.0  0.93954  0.50379  0.13010  1.0000
  H   H847      1.0  0.97129  0.50657  0.07169  1.0000
  S   S297      1.0  0.91080  0.52697  0.23151  1.0000
  S   S298      1.0  0.80222  0.53113  0.02610  1.0000
  H   H848      1.0  0.75927  0.54132  0.01394  1.0000
  C   C850      1.0  0.89732  0.57679  0.02702  1.0000
  H   H849      1.0  0.85378  0.51183  0.12107  1.0000
  H   H850      1.0  0.96710  0.52561  0.22193  1.0000
  N   N72       1.0  0.85931  0.49782  0.15311  1.0000
  H   H851      1.0  0.62533  0.51621  0.99816  1.0000
  C   C851      1.0  0.88083  0.56252  0.11786  1.0000
  C   C852      1.0  0.90270  0.55842  0.10937  1.0000
  C   C853      1.0  0.90848  0.54896  0.09168  1.0000
  C   C854      1.0  0.89257  0.54265  0.08300  1.0000
  C   C855      1.0  0.87068  0.54696  0.09132  1.0000
  C   C856      1.0  0.86480  0.55714  0.10856  1.0000
  H   H852      1.0  0.91513  0.56279  0.11628  1.0000
  H   H853      1.0  0.92535  0.54648  0.08486  1.0000
  H   H854      1.0  0.85825  0.54270  0.08434  1.0000
  H   H855      1.0  0.84782  0.56064  0.11488  1.0000
  C   C857      1.0  0.90558  0.56400  0.01209  1.0000
  C   C858      1.0  0.93583  0.54316  0.99297  1.0000
  C   C859      1.0  0.77998  0.51663  0.03356  1.0000
  H   H856      1.0  0.86347  0.51763  0.17380  1.0000
  C   C860      1.0  0.96026  0.49286  0.22762  1.0000
  H   H857      1.0  0.96160  0.57958  0.07366  1.0000
  N   N73       1.0  0.94317  0.50049  0.09402  1.0000
  H   H858      1.0  0.95906  0.55747  0.01553  1.0000
  C   C861      1.0  0.61617  0.53167  0.99115  1.0000
  C   C862      1.0  0.76061  0.52546  0.02475  1.0000
  S   S299      1.0  0.90063  0.52932  0.06186  1.0000
  H   H859      1.0  0.72794  0.52105  0.02328  1.0000
  H   H860      1.0  0.96211  0.51846  0.10497  1.0000
  C   C863      1.0  0.94932  0.50856  0.10911  1.0000
  H   H861      1.0  0.50692  0.85076  0.01359  1.0000
  C   C864      1.0  0.89973  0.64484  0.21749  1.0000
  H   H862      1.0  0.89152  0.65366  0.20398  1.0000
  C   C865      1.0  0.91035  0.49551  0.21028  1.0000
  H   H863      1.0  0.89429  0.55907  0.00418  1.0000
  C   C866      1.0  0.74291  0.51389  0.02989  1.0000
  H   H864      1.0  0.75684  0.49918  0.99121  1.0000
  H   H865      1.0  0.95714  0.57342  0.11270  1.0000
  C   C867      1.0  0.93397  0.57552  0.03371  1.0000
  C   C868      1.0  0.86335  0.51834  0.15673  1.0000
  C   C869      1.0  0.98359  0.54652  0.11646  1.0000
  H   H866      1.0  0.94527  0.57961  0.04225  1.0000
  H   H867      1.0  0.58628  0.51869  0.99483  1.0000
  H   H868      1.0  0.90540  0.59169  0.05012  1.0000
  C   C870      1.0  0.78151  0.49619  0.04767  1.0000
  C   C871      1.0  0.97005  0.51073  0.21613  1.0000
  C   C872      1.0  0.97214  0.56642  0.08260  1.0000
  H   H869      1.0  0.95286  0.49324  0.06347  1.0000
  H   H870      1.0  0.94593  0.52194  0.06371  1.0000
  Fe  Fe150     1.0  0.67099  0.51403  0.99445  1.0000
  C   C873      1.0  0.98814  0.55293  0.07208  1.0000
  H   H871      1.0  0.49854  0.93052  0.07014  1.0000
  C   C874      1.0  0.74444  0.49342  0.04392  1.0000
  H   H872      1.0  0.94824  0.65967  0.23227  1.0000
  H   H873      1.0  0.93706  0.52575  0.00155  1.0000
  C   C875      1.0  0.59409  0.53308  0.98926  1.0000
  S   S300      1.0  0.98136  0.51069  0.02343  1.0000
  H   H874      1.0  0.94383  0.60677  0.23007  1.0000
  H   H875      1.0  0.80245  0.50450  0.99612  1.0000
  C   C876      1.0  0.85485  0.49717  0.13364  1.0000
  H   H876      1.0  0.88006  0.59669  0.23332  1.0000
  H   H877      1.0  0.91354  0.56953  0.23662  1.0000
  H   H878      1.0  0.99025  0.52365  0.18768  1.0000
  S   S301      1.0  0.66527  0.49280  0.02688  1.0000
  H   H879      1.0  0.98994  0.49492  0.15631  1.0000
  S   S302      1.0  0.99105  0.55779  0.04426  1.0000
  C   C877      1.0  0.96482  0.84768  0.41203  1.0000
  S   S303      1.0  0.50107  0.93757  0.27589  1.0000
  C   C878      1.0  0.88581  0.59024  0.24864  1.0000
  H   H880      1.0  0.77380  0.69711  0.46246  1.0000
  Fe  Fe151     1.0  0.98984  0.71483  0.43251  1.0000
  S   S304      1.0  0.87265  0.74089  0.44964  1.0000
  H   H881      1.0  0.87174  0.77043  0.48310  1.0000
  Fe  Fe152     1.0  0.87353  0.70935  0.44055  1.0000
  S   S305      1.0  0.90134  0.69826  0.41756  1.0000
  Fe  Fe153     1.0  0.96572  0.76118  0.43000  1.0000
  S   S306      1.0  0.88092  0.92089  0.42271  1.0000
  S   S307      1.0  0.94189  0.78614  0.44419  1.0000
  H   H882      1.0  0.90350  0.83984  0.47660  1.0000
  C   C879      1.0  0.64068  0.99120  0.36531  1.0000
  C   C880      1.0  0.82006  0.95591  0.47899  1.0000
  H   H883      1.0  0.94663  0.56072  0.26979  1.0000
  S   S308      1.0  0.95670  0.73108  0.42445  1.0000
  S   S309      1.0  0.85381  0.90652  0.37943  1.0000
  Fe  Fe154     1.0  0.91015  0.61703  0.35461  1.0000
  S   S310      1.0  0.94573  0.60333  0.35345  1.0000
  S   S311      1.0  0.88919  0.61641  0.38612  1.0000
  Fe  Fe155     1.0  0.91258  0.63074  0.30654  1.0000
  S   S312      1.0  0.94842  0.61925  0.30172  1.0000
  S   S313      1.0  0.89307  0.64577  0.27948  1.0000
  Fe  Fe156     1.0  0.94043  0.58983  0.32660  1.0000
  C   C881      1.0  0.99069  0.81849  0.43054  1.0000
  Fe  Fe157     1.0  0.94990  0.63419  0.32885  1.0000
  H   H884      1.0  0.94355  0.82978  0.47329  1.0000
  S   S314      1.0  0.90436  0.60063  0.33009  1.0000
  S   S315      1.0  0.91452  0.64867  0.33131  1.0000
  Fe  Fe158     1.0  0.85893  0.90226  0.41331  1.0000
  H   H885      1.0  0.96219  0.67397  0.42411  1.0000
  S   S316      1.0  0.97972  0.77261  0.39640  1.0000
  C   C882      1.0  0.94546  0.90936  0.43170  1.0000
  C   C883      1.0  0.77730  0.88880  0.42938  1.0000
  C   C884      1.0  0.92145  0.62298  0.25234  1.0000
  H   H886      1.0  0.75227  0.98227  0.47337  1.0000
  C   C885      1.0  0.87489  0.59792  0.26634  1.0000
  C   C886      1.0  0.82577  0.82081  0.43266  1.0000
  C   C887      1.0  0.96606  0.67990  0.40677  1.0000
  C   C888      1.0  0.82794  0.83669  0.44322  1.0000
  C   C889      1.0  0.94766  0.53437  0.33725  1.0000
  C   C890      1.0  0.95206  0.51404  0.33175  1.0000
  C   C891      1.0  0.84956  0.96624  0.38201  1.0000
  C   C892      1.0  0.95946  0.86873  0.39974  1.0000
  C   C893      1.0  0.93555  0.51668  0.37351  1.0000
  C   C894      1.0  0.93916  0.53575  0.35810  1.0000
  C   C895      1.0  0.97314  0.64882  0.38961  1.0000
  H   H887      1.0  0.95171  0.74644  0.47512  1.0000
  H   H888      1.0  0.92924  0.51770  0.38967  1.0000
  H   H889      1.0  0.93566  0.55144  0.36239  1.0000
  C   C896      1.0  0.98735  0.63285  0.38068  1.0000
  C   C897      1.0  0.93286  0.55164  0.27146  1.0000
  H   H890      1.0  0.97107  0.89912  0.38440  1.0000
  H   H891      1.0  0.78306  0.95375  0.38822  1.0000
  S   S317      1.0  0.83846  0.71607  0.43554  1.0000
  C   C898      1.0  0.78052  0.74967  0.44078  1.0000
  H   H892      1.0  0.93227  0.53999  0.28717  1.0000
  H   H893      1.0  0.96139  0.93718  0.41599  1.0000
  C   C899      1.0  0.78336  0.88192  0.44972  1.0000
  H   H894      1.0  0.64278  0.97354  0.36890  1.0000
  C   C900      1.0  0.50103  0.96034  0.28640  1.0000
  C   C901      1.0  0.96205  0.71401  0.35602  1.0000
  C   C902      1.0  0.94533  0.70613  0.35011  1.0000
  C   C903      1.0  0.94976  0.68700  0.34227  1.0000
  C   C904      1.0  0.98794  0.68417  0.34505  1.0000
  H   H895      1.0  0.93663  0.68095  0.33816  1.0000
  H   H896      1.0  0.92879  0.71468  0.35193  1.0000
  C   C905      1.0  0.98086  0.66927  0.47229  1.0000
  H   H897      1.0  0.78923  0.94499  0.45841  1.0000
  N   N74       1.0  0.98107  0.66305  0.39772  1.0000
  H   H898      1.0  0.91537  0.62652  0.47281  1.0000
  Fe  Fe159     1.0  0.97381  0.74085  0.39152  1.0000
  H   H899      1.0  0.78457  0.76049  0.42556  1.0000
  H   H900      1.0  0.97431  0.70017  0.48148  1.0000
  C   C906      1.0  0.84725  0.97587  0.39930  1.0000
  H   H901      1.0  0.89594  0.79394  0.45777  1.0000
  C   C907      1.0  0.77013  0.91092  0.42144  1.0000
  H   H902      1.0  0.83882  0.96833  0.35220  1.0000
  C   C908      1.0  0.89731  0.67558  0.40919  1.0000
  C   C909      1.0  0.88041  0.66382  0.41920  1.0000
  C   C910      1.0  0.87782  0.64554  0.41217  1.0000
  C   C911      1.0  0.89234  0.63890  0.39541  1.0000
  C   C912      1.0  0.90941  0.65047  0.38582  1.0000
  C   C913      1.0  0.91158  0.66900  0.39241  1.0000
  H   H903      1.0  0.86921  0.66891  0.43215  1.0000
  H   H904      1.0  0.86431  0.63696  0.41935  1.0000
  H   H905      1.0  0.92093  0.64526  0.37320  1.0000
  H   H906      1.0  0.92410  0.67848  0.38419  1.0000
  H   H907      1.0  0.86069  0.95108  0.38152  1.0000
  S   S318      1.0  0.86809  0.89377  0.47186  1.0000
  H   H908      1.0  0.76024  0.94661  0.46611  1.0000
  C   C914      1.0  0.77593  0.93532  0.46587  1.0000
  C   C915      1.0  0.98338  0.70288  0.35363  1.0000
  H   H909      1.0  0.95234  0.83727  0.41746  1.0000
  C   C916      1.0  0.51730  0.96004  0.29863  1.0000
  C   C917      1.0  0.88395  0.56699  0.47272  1.0000
  C   C918      1.0  0.96849  0.87801  0.44996  1.0000
  H   H910      1.0  0.95079  0.68489  0.39944  1.0000
  H   H911      1.0  0.53041  0.94633  0.30055  1.0000
  C   C919      1.0  0.77317  0.74296  0.47892  1.0000
  C   C920      1.0  0.79162  0.94878  0.35647  1.0000
  C   C921      1.0  0.80698  0.93805  0.34290  1.0000
  C   C922      1.0  0.82579  0.92482  0.35025  1.0000
  C   C923      1.0  0.82933  0.92212  0.37125  1.0000
  C   C924      1.0  0.81378  0.93258  0.38495  1.0000
  C   C925      1.0  0.79497  0.94587  0.37756  1.0000
  H   H912      1.0  0.80449  0.94017  0.32657  1.0000
  H   H913      1.0  0.83773  0.91680  0.33955  1.0000
  H   H914      1.0  0.81644  0.93091  0.40105  1.0000
  C   C926      1.0  0.88924  0.76559  0.48193  1.0000
  H   H915      1.0  0.52877  0.97667  0.31852  1.0000
  H   H916      1.0  0.98319  0.64964  0.24767  1.0000
  C   C927      1.0  0.90430  0.57904  0.43929  1.0000
  C   C928      1.0  0.80578  0.97498  0.48158  1.0000
  C   C929      1.0  0.92364  0.56769  0.44700  1.0000
  C   C930      1.0  0.93335  0.81912  0.48447  1.0000
  H   H917      1.0  0.63799  0.99056  0.31860  1.0000
  H   H918      1.0  0.78170  0.72174  0.42759  1.0000
  H   H919      1.0  0.90501  0.58833  0.42301  1.0000
  H   H920      1.0  0.94296  0.87463  0.39604  1.0000
  H   H921      1.0  0.93905  0.56809  0.43673  1.0000
  H   H922      1.0  0.97064  0.86140  0.45921  1.0000
  C   C931      1.0  0.51637  0.97716  0.30883  1.0000
  C   C932      1.0  0.82799  0.83126  0.46521  1.0000
  H   H923      1.0  0.93776  0.54728  0.47439  1.0000
  H   H924      1.0  0.85098  0.58159  0.44991  1.0000
  H   H925      1.0  0.90848  0.56892  0.30219  1.0000
  C   C933      1.0  0.90197  0.57465  0.28717  1.0000
  C   C934      1.0  0.92451  0.65837  0.45924  1.0000
  S   S319      1.0  0.72687  0.97515  0.44417  1.0000
  H   H926      1.0  0.97345  0.69493  0.40368  1.0000
  N   N75       1.0  0.91247  0.56707  0.26977  1.0000
  Fe  Fe160     1.0  0.85423  0.92417  0.44978  1.0000
  S   S320      1.0  0.95583  0.73811  0.36570  1.0000
  H   H927      1.0  0.93594  0.54184  0.25916  1.0000
  N   N76       1.0  0.98526  0.84063  0.41780  1.0000
  C   C935      1.0  0.91429  0.69554  0.28472  1.0000
  H   H928      1.0  0.92992  0.61454  0.26571  1.0000
  S   S321      1.0  0.87341  0.86976  0.43180  1.0000
  C   C936      1.0  0.82650  0.80985  0.47648  1.0000
  H   H929      1.0  0.93158  0.69134  0.45048  1.0000
  H   H930      1.0  0.86045  0.60645  0.45008  1.0000
  C   C937      1.0  0.96335  0.92070  0.42558  1.0000
  H   H931      1.0  0.76396  0.94316  0.42764  1.0000
  S   S322      1.0  0.92693  0.87218  0.44944  1.0000
  H   H932      1.0  0.77835  0.87704  0.41971  1.0000
  C   C938      1.0  0.77442  0.71412  0.46171  1.0000
  C   C939      1.0  0.96932  0.65933  0.25502  1.0000
  Fe  Fe161     1.0  0.83698  0.74619  0.44773  1.0000
  C   C940      1.0  0.90479  0.57485  0.25062  1.0000
  C   C941      1.0  0.82464  0.79929  0.44392  1.0000
  C   C942      1.0  0.76939  0.92592  0.43393  1.0000
  C   C943      1.0  0.90286  0.63859  0.25496  1.0000
  H   H933      1.0  0.98506  0.63640  0.46784  1.0000
  N   N77       1.0  0.93339  0.68313  0.27451  1.0000
  S   S323      1.0  0.76884  0.96631  0.34645  1.0000
  Fe  Fe162     1.0  0.84772  0.87709  0.45814  1.0000
  C   C944      1.0  0.97086  0.66605  0.27329  1.0000
  C   C945      1.0  0.94811  0.88788  0.44367  1.0000
  H   H934      1.0  0.95862  0.51290  0.31566  1.0000
  S   S324      1.0  0.83147  0.90786  0.43875  1.0000
  C   C946      1.0  0.93189  0.67705  0.25634  1.0000
  H   H935      1.0  0.76547  0.91649  0.40559  1.0000
  H   H936      1.0  0.82515  0.82520  0.41575  1.0000
  H   H937      1.0  0.87496  0.59655  0.29939  1.0000
  C   C947      1.0  0.93432  0.75198  0.47727  1.0000
  S   S325      1.0  0.82235  0.77938  0.43062  1.0000
  C   C948      1.0  0.86469  0.59107  0.44428  1.0000
  C   C949      1.0  0.92532  0.77154  0.46459  1.0000
  H   H938      1.0  0.92982  0.91707  0.42675  1.0000
  C   C950      1.0  0.77893  0.72797  0.44190  1.0000
  Fe  Fe163     1.0  0.89292  0.88887  0.44382  1.0000
  H   H939      1.0  0.86644  0.59527  0.42664  1.0000
  C   C951      1.0  0.91649  0.64222  0.47564  1.0000
  H   H940      1.0  0.82904  0.85324  0.43443  1.0000
  H   H941      1.0  0.95584  0.65020  0.38935  1.0000
  N   N78       1.0  0.88978  0.78946  0.40590  1.0000
  C   C952      1.0  0.87078  0.78745  0.39976  1.0000
  C   C953      1.0  0.90747  0.77331  0.40536  1.0000
  C   C954      1.0  0.86903  0.76883  0.39304  1.0000
  C   C955      1.0  0.90629  0.75454  0.39859  1.0000
  C   C956      1.0  0.88697  0.75234  0.39236  1.0000
  C   C957      1.0  0.89097  0.80932  0.41269  1.0000
  H   H942      1.0  0.85673  0.80016  0.40030  1.0000
  H   H943      1.0  0.92258  0.77479  0.41023  1.0000
  H   H944      1.0  0.85374  0.76711  0.38871  1.0000
  H   H945      1.0  0.92015  0.74158  0.39831  1.0000
  H   H946      1.0  0.88593  0.73772  0.38728  1.0000
  H   H947      1.0  0.88963  0.82367  0.39913  1.0000
  H   H948      1.0  0.87747  0.81205  0.42555  1.0000
  H   H949      1.0  0.90657  0.80822  0.41887  1.0000
  H   H950      1.0  0.92944  0.65546  0.44341  1.0000
  H   H951      1.0  0.86061  0.61044  0.26487  1.0000
  N   N79       1.0  0.77566  0.91905  0.45375  1.0000
  Fe  Fe164     1.0  0.83270  0.69971  0.47001  1.0000
  S   S326      1.0  0.97728  0.65220  0.32933  1.0000
  C   C958      1.0  0.97522  0.88246  0.39320  1.0000
  S   S327      1.0  0.82777  0.73047  0.48194  1.0000
  C   C959      1.0  0.97847  0.64716  0.47854  1.0000
  H   H952      1.0  0.97601  0.81250  0.44047  1.0000
  H   H953      1.0  0.87761  0.66138  0.23940  1.0000
  C   C960      1.0  0.77760  0.75727  0.45937  1.0000
  H   H954      1.0  0.72744  0.99007  0.33123  1.0000
  C   C961      1.0  0.95266  0.67812  0.28281  1.0000
  H   H955      1.0  0.80708  0.99003  0.46986  1.0000
  C   C962      1.0  0.78256  0.89736  0.46174  1.0000
  H   H956      1.0  0.82443  0.77726  0.47460  1.0000
  H   H957      1.0  0.77846  0.92770  0.48258  1.0000
  N   N80       1.0  0.88477  0.57844  0.45212  1.0000
  C   C963      1.0  0.90289  0.77874  0.46741  1.0000
  C   C964      1.0  0.83712  0.97607  0.36546  1.0000
  H   H958      1.0  0.85668  0.96839  0.41232  1.0000
  H   H959      1.0  0.55899  0.98610  0.43087  1.0000
  H   H960      1.0  0.78813  0.89188  0.47721  1.0000
  H   H961      1.0  0.95403  0.68318  0.29705  1.0000
  C   C965      1.0  0.82529  0.79379  0.46579  1.0000
  S   S328      1.0  0.84034  0.95698  0.45702  1.0000
  C   C966      1.0  0.97111  0.67604  0.33954  1.0000
  C   C967      1.0  0.88300  0.59013  0.28573  1.0000
  S   S329      1.0  0.95310  0.55763  0.31767  1.0000
  C   C968      1.0  0.94814  0.49511  0.34702  1.0000
  C   C969      1.0  0.92563  0.67854  0.46316  1.0000
  C   C970      1.0  0.97247  0.68310  0.48622  1.0000
  H   H962      1.0  0.78912  0.86480  0.45605  1.0000
  C   C971      1.0  0.98630  0.88938  0.44395  1.0000
  S   S330      1.0  0.82950  0.85113  0.47884  1.0000
  S   S331      1.0  0.86794  0.69051  0.47389  1.0000
  C   C972      1.0  0.98385  0.91065  0.43149  1.0000
  Fe  Fe165     1.0  0.86375  0.72269  0.48285  1.0000
  H   H963      1.0  0.70908  0.95864  0.33284  1.0000
  N   N81       1.0  0.77162  0.72169  0.47990  1.0000
  H   H964      1.0  0.91652  0.69637  0.30090  1.0000
  H   H965      1.0  0.87690  0.50297  0.25523  1.0000
  C   C973      1.0  0.92292  0.55599  0.46804  1.0000
  S   S332      1.0  0.81166  0.67368  0.48166  1.0000
  H   H966      1.0  0.89973  0.68751  0.28643  1.0000
  H   H967      1.0  0.91109  0.71243  0.27503  1.0000
  H   H968      1.0  0.98590  0.66162  0.28036  1.0000
  H   H969      1.0  0.77948  0.77398  0.45861  1.0000
  H   H970      1.0  0.94966  0.49381  0.24236  1.0000
  C   C974      1.0  0.91825  0.68244  0.48339  1.0000
  S   S333      1.0  0.71749  0.98428  0.38471  1.0000
  C   C975      1.0  0.67975  0.97906  0.32212  1.0000
  H   H971      1.0  0.85608  0.98035  0.48702  1.0000
  H   H972      1.0  0.68561  0.96525  0.48218  1.0000
  H   H973      1.0  0.86880  0.81438  0.48683  1.0000
  C   C976      1.0  0.94015  0.49631  0.36799  1.0000
  C   C977      1.0  0.88411  0.49588  0.24181  1.0000
  H   H974      1.0  0.91842  0.69839  0.48608  1.0000
  C   C978      1.0  0.70082  0.97519  0.32772  1.0000
  H   H975      1.0  0.98103  0.62228  0.37337  1.0000
  H   H976      1.0  0.81461  0.62956  0.47790  1.0000
  H   H977      1.0  0.91660  0.68105  0.24974  1.0000
  C   C979      1.0  0.94975  0.66496  0.24638  1.0000
  C   C980      1.0  0.91068  0.82474  0.48642  1.0000
  H   H978      1.0  0.67174  0.96526  0.32296  1.0000
  H   H979      1.0  0.86857  0.56687  0.48307  1.0000
  C   C981      1.0  0.90296  0.55570  0.48101  1.0000
  Fe  Fe166     1.0  0.75054  0.98892  0.36697  1.0000
  S   S334      1.0  0.60080  0.98987  0.35499  1.0000
  H   H980      1.0  0.58829  0.99208  0.40036  1.0000
  C   C982      1.0  0.89194  0.64929  0.23753  1.0000
  C   C983      1.0  0.94920  0.54905  0.68637  1.0000
  C   C984      1.0  0.97334  0.61969  0.63460  1.0000
  C   C985      1.0  0.95920  0.51342  0.53103  1.0000
  H   H981      1.0  0.95827  0.67259  0.58951  1.0000
  C   C986      1.0  0.80244  0.93622  0.51207  1.0000
  S   S335      1.0  0.50685  0.96430  0.55664  1.0000
  C   C987      1.0  0.90947  0.64663  0.49575  1.0000
  H   H982      1.0  0.90995  0.68306  0.52394  1.0000
  H   H983      1.0  0.91564  0.50634  0.51063  1.0000
  H   H984      1.0  0.65571  0.96762  0.51220  1.0000
  H   H985      1.0  0.90313  0.63409  0.50834  1.0000
  C   C988      1.0  0.96249  0.61791  0.59604  1.0000
  H   H986      1.0  0.55031  0.94223  0.56387  1.0000
  C   C989      1.0  0.93283  0.51758  0.70594  1.0000
  H   H987      1.0  0.96893  0.65739  0.56920  1.0000
  H   H988      1.0  0.97672  0.62074  0.64993  1.0000
  H   H989      1.0  0.86526  0.80730  0.51537  1.0000
  S   S336      1.0  0.87436  0.58719  0.51595  1.0000
  S   S337      1.0  0.93904  0.64430  0.71458  1.0000
  S   S338      1.0  0.96140  0.59963  0.69792  1.0000
  Fe  Fe167     1.0  0.93291  0.62615  0.69160  1.0000
  S   S339      1.0  0.92628  0.64156  0.65824  1.0000
  Fe  Fe168     1.0  0.89982  0.58786  0.53566  1.0000
  S   S340      1.0  0.89947  0.61039  0.55702  1.0000
  C   C990      1.0  0.93429  0.49896  0.58871  1.0000
  Fe  Fe169     1.0  0.94318  0.56132  0.54585  1.0000
  S   S341      1.0  0.94716  0.58153  0.56784  1.0000
  Fe  Fe170     1.0  0.91205  0.58014  0.57991  1.0000
  S   S342      1.0  0.90321  0.57220  0.61521  1.0000
  Fe  Fe171     1.0  0.93467  0.61033  0.54333  1.0000
  S   S343      1.0  0.94710  0.64221  0.53835  1.0000
  S   S344      1.0  0.90898  0.55738  0.55999  1.0000
  S   S345      1.0  0.93406  0.59027  0.51982  1.0000
  H   H990      1.0  0.82651  0.80560  0.49349  1.0000
  C   C991      1.0  0.84038  0.61075  0.49558  1.0000
  C   C992      1.0  0.67776  0.95834  0.53586  1.0000
  H   H991      1.0  0.56348  0.91189  0.59293  1.0000
  C   C993      1.0  0.52464  0.95803  0.71214  1.0000
  C   C994      1.0  0.76814  0.70681  0.50068  1.0000
  C   C995      1.0  0.93871  0.51813  0.52407  1.0000
  H   H992      1.0  0.96629  0.62170  0.50344  1.0000
  C   C996      1.0  0.56961  0.92718  0.64306  1.0000
  H   H993      1.0  0.88360  0.67937  0.51947  1.0000
  C   C997      1.0  0.94271  0.79950  0.49668  1.0000
  C   C998      1.0  0.54623  0.91786  0.59302  1.0000
  H   H994      1.0  0.95317  0.56486  0.68542  1.0000
  C   C999      1.0  0.96230  0.67461  0.50660  1.0000
  C   C1000     1.0  0.93569  0.52308  0.61208  1.0000
  C   C1001     1.0  0.53136  0.90882  0.60974  1.0000
  C   C1002     1.0  0.91881  0.62254  0.64664  1.0000
  C   C1003     1.0  0.91831  0.60095  0.65790  1.0000
  C   C1004     1.0  0.91315  0.58565  0.64827  1.0000
  C   C1005     1.0  0.90895  0.59176  0.62719  1.0000
  C   C1006     1.0  0.90961  0.61330  0.61584  1.0000
  C   C1007     1.0  0.91426  0.62874  0.62566  1.0000
  H   H995      1.0  0.92202  0.59595  0.67399  1.0000
  H   H996      1.0  0.91280  0.56897  0.65705  1.0000
  H   H997      1.0  0.90620  0.61815  0.59961  1.0000
  H   H998      1.0  0.91446  0.64545  0.61697  1.0000
  H   H999      1.0  0.58654  0.92628  0.64615  1.0000
  C   C1008     1.0  0.51645  0.94263  0.57667  1.0000
  C   C1009     1.0  0.54843  0.96065  0.62413  1.0000
  S   S346      1.0  0.88104  0.72709  0.50811  1.0000
  Fe  Fe172     1.0  0.51675  0.89535  0.65966  1.0000
  C   C1010     1.0  0.50907  0.91650  0.60971  1.0000
  H   H1000     1.0  0.96026  0.79475  0.49493  1.0000
  C   C1011     1.0  0.95666  0.53882  0.66928  1.0000
  H   H1001     1.0  0.89641  0.78083  0.52270  1.0000
  H   H1002     1.0  0.80137  0.92124  0.52401  1.0000
  H   H1003     1.0  0.92469  0.50866  0.72041  1.0000
  H   H1004     1.0  0.95618  0.68524  0.51751  1.0000
  C   C1012     1.0  0.96864  0.63874  0.61911  1.0000
  H   H1005     1.0  0.93581  0.51256  0.57518  1.0000
  H   H1006     1.0  0.70191  0.93190  0.56991  1.0000
  C   C1013     1.0  0.93159  0.50287  0.51576  1.0000
  C   C1014     1.0  0.96783  0.63882  0.49867  1.0000
  C   C1015     1.0  0.87398  0.81711  0.50115  1.0000
  C   C1016     1.0  0.53880  0.93507  0.57667  1.0000
  S   S347      1.0  0.76984  0.95530  0.53805  1.0000
  C   C1017     1.0  0.79002  0.97475  0.49946  1.0000
  C   C1018     1.0  0.55558  0.95871  0.65894  1.0000
  C   C1019     1.0  0.84282  0.64971  0.50636  1.0000
  C   C1020     1.0  0.85672  0.63047  0.51419  1.0000
  H   H1007     1.0  0.86860  0.58879  0.71523  1.0000
  H   H1008     1.0  0.69336  0.96056  0.57009  1.0000
  C   C1021     1.0  0.71540  0.95069  0.52335  1.0000
  H   H1009     1.0  0.84351  0.66468  0.51086  1.0000
  H   H1010     1.0  0.86790  0.63063  0.52482  1.0000
  H   H1011     1.0  0.88379  0.52387  0.70398  1.0000
  C   C1022     1.0  0.97259  0.49356  0.52948  1.0000
  N   N82       1.0  0.89768  0.81127  0.50028  1.0000
  H   H1012     1.0  0.92770  0.72399  0.50204  1.0000
  C   C1023     1.0  0.49731  0.98991  0.70313  1.0000
  C   C1024     1.0  0.81820  0.93642  0.49410  1.0000
  N   N83       1.0  0.55770  0.94944  0.64188  1.0000
  Fe  Fe173     1.0  0.93733  0.58289  0.72278  1.0000
  S   S348      1.0  0.51201  0.93058  0.66066  1.0000
  C   C1025     1.0  0.71079  0.95497  0.50252  1.0000
  C   C1026     1.0  0.95996  0.65246  0.51283  1.0000
  Fe  Fe174     1.0  0.75217  0.98845  0.54208  1.0000
  H   H1013     1.0  0.83922  0.59571  0.49149  1.0000
  H   H1014     1.0  0.49750  0.90948  0.62244  1.0000
  H   H1015     1.0  0.75446  0.71419  0.51106  1.0000
  H   H1016     1.0  0.78327  0.70303  0.50832  1.0000
  C   C1027     1.0  0.88067  0.53482  0.71476  1.0000
  C   C1028     1.0  0.99011  0.51666  0.72844  1.0000
  C   C1029     1.0  0.90090  0.67167  0.51992  1.0000
  C   C1030     1.0  0.82632  0.62986  0.48802  1.0000
  S   S349      1.0  0.53531  0.93082  0.71188  1.0000
  H   H1017     1.0  0.95797  0.61723  0.58108  1.0000
  C   C1031     1.0  0.89816  0.74568  0.49415  1.0000
  H   H1018     1.0  0.56129  0.91550  0.65598  1.0000
  H   H1019     1.0  0.95298  0.52394  0.61250  1.0000
  C   C1032     1.0  0.67257  0.96274  0.51518  1.0000
  C   C1033     1.0  0.97208  0.59952  0.63076  1.0000
  S   S350      1.0  0.96807  0.53166  0.54250  1.0000
  H   H1020     1.0  0.97469  0.58478  0.64303  1.0000
  C   C1034     1.0  0.93803  0.53803  0.70505  1.0000
  C   C1035     1.0  0.95244  0.51781  0.67083  1.0000
  C   C1036     1.0  0.78848  0.95547  0.51487  1.0000
  H   H1021     1.0  0.72115  0.95096  0.56158  1.0000
  H   H1022     1.0  0.54979  0.95326  0.61069  1.0000
  S   S351      1.0  0.52204  0.88295  0.69370  1.0000
  C   C1037     1.0  0.82784  0.64946  0.49300  1.0000
  H   H1023     1.0  0.90175  0.65678  0.53290  1.0000
  N   N84       1.0  0.69900  0.95291  0.53964  1.0000
  H   H1024     1.0  0.87501  0.56402  0.69028  1.0000
  H   H1025     1.0  0.76433  0.69099  0.49932  1.0000
  Fe  Fe175     1.0  0.96541  0.61591  0.72317  1.0000
  H   H1026     1.0  0.66470  0.95982  0.54879  1.0000
  C   C1038     1.0  0.87580  0.55734  0.70708  1.0000
  C   C1039     1.0  0.87232  0.57125  0.72105  1.0000
  H   H1027     1.0  0.56252  0.94966  0.67319  1.0000
  H   H1028     1.0  0.92833  0.53346  0.52521  1.0000
  H   H1029     1.0  0.80861  0.97487  0.55117  1.0000
  H   H1030     1.0  0.92944  0.53658  0.59930  1.0000
  C   C1040     1.0  0.96670  0.59856  0.61133  1.0000
  H   H1031     1.0  0.94076  0.65857  0.58063  1.0000
  Fe  Fe176     1.0  0.51443  0.91815  0.69509  1.0000
  C   C1041     1.0  0.90669  0.79194  0.51230  1.0000
  H   H1032     1.0  0.96514  0.58302  0.60839  1.0000
  S   S352      1.0  0.93251  0.54814  0.72822  1.0000
  H   H1033     1.0  0.73222  0.94608  0.52633  1.0000
  H   H1034     1.0  0.54995  0.96227  0.72823  1.0000
  C   C1042     1.0  0.54407  0.97981  0.65844  1.0000
  H   H1035     1.0  0.90212  0.54718  0.49755  1.0000
  S   S353      1.0  0.90854  0.60818  0.71466  1.0000
  S   S354      1.0  0.54055  0.88923  0.63155  1.0000
  H   H1036     1.0  0.72384  0.95373  0.48959  1.0000
  H   H1037     1.0  0.57037  0.92163  0.62816  1.0000
  C   C1043     1.0  0.85587  0.61109  0.50835  1.0000
  C   C1044     1.0  0.68927  0.96133  0.49839  1.0000
  C   C1045     1.0  0.50159  0.93307  0.59303  1.0000
  H   H1038     1.0  0.92610  0.52610  0.62726  1.0000
  C   C1046     1.0  0.70410  0.94878  0.56137  1.0000
  S   S355      1.0  0.96769  0.50153  0.65396  1.0000
  H   H1039     1.0  0.93641  0.77025  0.51989  1.0000
  H   H1040     1.0  0.49757  0.95898  0.69572  1.0000
  H   H1041     1.0  0.82900  0.96963  0.51668  1.0000
  C   C1047     1.0  0.95759  0.65761  0.58415  1.0000
  N   N85       1.0  0.96323  0.63766  0.60015  1.0000
  H   H1042     1.0  0.53647  0.88484  0.73325  1.0000
  C   C1048     1.0  0.53528  0.96995  0.72120  1.0000
  N   N86       1.0  0.93359  0.50178  0.60882  1.0000
  H   H1043     1.0  0.77940  0.98961  0.50150  1.0000
  C   C1049     1.0  0.93934  0.50787  0.68857  1.0000
  H   H1044     1.0  0.77156  0.74881  0.49334  1.0000
  C   C1050     1.0  0.82942  0.98438  0.52177  1.0000
  H   H1045     1.0  0.96683  0.54652  0.65558  1.0000
  H   H1046     1.0  0.96848  0.65438  0.62279  1.0000
  C   C1051     1.0  0.92933  0.78582  0.51074  1.0000
  C   C1052     1.0  0.50572  0.96802  0.70299  1.0000
  N   N87       1.0  0.91029  0.66658  0.49938  1.0000
  H   H1047     1.0  0.63406  0.98941  0.59106  1.0000
  C   C1053     1.0  0.53678  0.98175  0.62313  1.0000
  H   H1048     1.0  0.97353  0.51681  0.72600  1.0000
  H   H1049     1.0  0.86874  0.83463  0.50166  1.0000
  H   H1050     1.0  0.60765  0.98647  0.56826  1.0000
  C   C1054     1.0  0.92075  0.73931  0.49250  1.0000
  H   H1051     1.0  0.54228  0.98707  0.67205  1.0000
  H   H1052     1.0  0.82918  0.92161  0.49221  1.0000
  Fe  Fe177     1.0  0.52942  0.98917  0.54689  1.0000
  S   S356      1.0  0.55600  0.98974  0.56533  1.0000
  C   C1055     1.0  0.52699  0.99189  0.72115  1.0000
  C   C1056     1.0  0.53466  0.99136  0.64040  1.0000
  H   H1053     1.0  0.52951  0.99067  0.60903  1.0000
  C   C1057     1.0  0.81811  0.98711  0.54146  1.0000
  H   H1054     1.0  0.98288  0.49256  0.60892  1.0000
  C   C1058     1.0  0.88242  0.52655  0.73634  1.0000
  S   S357      1.0  0.94409  0.59654  0.74891  1.0000
  H   H1055     1.0  0.50336  0.72968  0.97829  1.0000
  H   H1056     1.0  0.87986  0.51969  0.97695  1.0000
  H   H1057     1.0  0.57403  0.67318  0.90083  1.0000
  N   N88       1.0  0.67325  0.59132  0.92257  1.0000
  C   C1059     1.0  0.57744  0.51002  0.94734  1.0000
  H   H1058     1.0  0.62251  0.58525  0.91730  1.0000
  Fe  Fe178     1.0  0.65562  0.54898  0.85197  1.0000
  N   N89       1.0  0.59733  0.51610  0.94610  1.0000
  S   S358      1.0  0.62818  0.57022  0.83554  1.0000
  Fe  Fe179     1.0  0.53997  0.58522  0.95550  1.0000
  S   S359      1.0  0.55034  0.61832  0.94834  1.0000
  S   S360      1.0  0.50439  0.59776  0.96296  1.0000
  H   H1059     1.0  0.49552  0.84096  0.81546  1.0000
  H   H1060     1.0  0.53448  0.61639  0.87243  1.0000
  S   S361      1.0  0.66276  0.51261  0.85532  1.0000
  Fe  Fe180     1.0  0.54533  0.61954  0.91515  1.0000
  S   S362      1.0  0.56672  0.63501  0.88681  1.0000
  Fe  Fe181     1.0  0.51456  0.63096  0.95266  1.0000
  C   C1060     1.0  0.61464  0.49792  0.89762  1.0000
  S   S363      1.0  0.53787  0.58555  0.92171  1.0000
  H   H1061     1.0  0.58344  0.58680  0.96532  1.0000
  C   C1061     1.0  0.70650  0.53723  0.92314  1.0000
  H   H1062     1.0  0.98015  0.52970  0.77549  1.0000
  Fe  Fe182     1.0  0.52710  0.76855  0.94955  1.0000
  S   S364      1.0  0.52988  0.77907  0.91414  1.0000
  S   S365      1.0  0.54776  0.73647  0.96218  1.0000
  Fe  Fe183     1.0  0.52563  0.81311  0.91905  1.0000
  S   S366      1.0  0.54559  0.83701  0.89679  1.0000
  H   H1063     1.0  0.60886  0.53525  0.91658  1.0000
  C   C1062     1.0  0.87821  0.51477  0.92684  1.0000
  S   S367      1.0  0.52656  0.80239  0.95434  1.0000
  H   H1064     1.0  0.87202  0.57344  0.75317  1.0000
  S   S368      1.0  0.83219  0.52562  0.86599  1.0000
  C   C1063     1.0  0.59242  0.57145  0.97254  1.0000
  C   C1064     1.0  0.75536  0.50297  0.85408  1.0000
  H   H1065     1.0  0.69040  0.54676  0.92400  1.0000
  C   C1065     1.0  0.71031  0.51725  0.93740  1.0000
  C   C1066     1.0  0.56855  0.70532  0.90748  1.0000
  S   S369      1.0  0.69049  0.55361  0.84105  1.0000
  C   C1067     1.0  0.53288  0.85711  0.87710  1.0000
  C   C1068     1.0  0.54600  0.86801  0.85989  1.0000
  C   C1069     1.0  0.53657  0.88405  0.84384  1.0000
  H   H1066     1.0  0.49458  0.69836  0.92917  1.0000
  C   C1070     1.0  0.96898  0.61518  0.80679  1.0000
  N   N90       1.0  0.52452  0.70339  0.90993  1.0000
  H   H1067     1.0  0.56355  0.86399  0.85898  1.0000
  H   H1068     1.0  0.54691  0.89235  0.83064  1.0000
  H   H1069     1.0  0.83177  0.51841  0.96899  1.0000
  H   H1070     1.0  0.92506  0.54604  0.98052  1.0000
  C   C1071     1.0  0.84920  0.58637  0.79834  1.0000
  C   C1072     1.0  0.53078  0.72142  0.91331  1.0000
  Fe  Fe184     1.0  0.50308  0.60086  0.92853  1.0000
  C   C1073     1.0  0.74508  0.56451  0.83592  1.0000
  H   H1071     1.0  0.50982  0.56789  0.88850  1.0000
  H   H1072     1.0  0.62079  0.51240  0.88805  1.0000
  C   C1074     1.0  0.87654  0.52456  0.94401  1.0000
  H   H1073     1.0  0.92995  0.51001  0.84924  1.0000
  C   C1075     1.0  0.78700  0.54332  0.82693  1.0000
  H   H1074     1.0  0.64932  0.57389  0.94291  1.0000
  C   C1076     1.0  0.97601  0.63164  0.79000  1.0000
  C   C1077     1.0  0.50125  0.70219  0.91210  1.0000
  H   H1075     1.0  0.52844  0.53122  0.88382  1.0000
  H   H1076     1.0  0.49827  0.68936  0.90473  1.0000
  H   H1077     1.0  0.98001  0.60582  0.81799  1.0000
  H   H1078     1.0  0.90229  0.59120  0.77980  1.0000
  C   C1078     1.0  0.61337  0.50219  0.95645  1.0000
  C   C1079     1.0  0.54584  0.69430  0.96081  1.0000
  C   C1080     1.0  0.53478  0.67695  0.96162  1.0000
  H   H1079     1.0  0.53177  0.88286  0.79946  1.0000
  H   H1080     1.0  0.86850  0.53945  0.78256  1.0000
  H   H1081     1.0  0.56318  0.69286  0.95565  1.0000
  H   H1082     1.0  0.54363  0.66222  0.95714  1.0000
  H   H1083     1.0  0.98820  0.65770  0.75437  1.0000
  C   C1081     1.0  0.97013  0.66009  0.75773  1.0000
  C   C1082     1.0  0.93179  0.51020  0.88165  1.0000
  C   C1083     1.0  0.61191  0.58790  0.85059  1.0000
  C   C1084     1.0  0.60577  0.60973  0.84068  1.0000
  C   C1085     1.0  0.59230  0.62412  0.85213  1.0000
  C   C1086     1.0  0.58427  0.61659  0.87338  1.0000
  C   C1087     1.0  0.59014  0.59465  0.88336  1.0000
  C   C1088     1.0  0.60421  0.58034  0.87201  1.0000
  H   H1084     1.0  0.61160  0.61558  0.82412  1.0000
  H   H1085     1.0  0.58778  0.64105  0.84436  1.0000
  H   H1086     1.0  0.58401  0.58879  0.89981  1.0000
  H   H1087     1.0  0.60862  0.56335  0.87958  1.0000
  C   C1089     1.0  0.87530  0.61757  0.77548  1.0000
  C   C1090     1.0  0.85276  0.62357  0.77958  1.0000
  H   H1088     1.0  0.84534  0.64028  0.77388  1.0000
  H   H1089     1.0  0.63229  0.60845  0.88165  1.0000
  C   C1091     1.0  0.77604  0.52845  0.80015  1.0000
  N   N91       1.0  0.77080  0.54123  0.81654  1.0000
  S   S370      1.0  0.65670  0.54866  0.88597  1.0000
  H   H1090     1.0  0.87930  0.56385  0.80071  1.0000
  C   C1092     1.0  0.66406  0.61054  0.88808  1.0000
  H   H1091     1.0  0.82222  0.61259  0.79339  1.0000
  S   S371      1.0  0.83224  0.56714  0.81166  1.0000
  S   S372      1.0  0.89126  0.63734  0.76119  1.0000
  C   C1093     1.0  0.64371  0.60376  0.89321  1.0000
  Fe  Fe185     1.0  0.84822  0.53748  0.83301  1.0000
  C   C1094     1.0  0.67862  0.60435  0.90314  1.0000
  C   C1095     1.0  0.87184  0.58041  0.79471  1.0000
  S   S373      1.0  0.51035  0.63503  0.91870  1.0000
  C   C1096     1.0  0.55530  0.54366  0.86223  1.0000
  C   C1097     1.0  0.75004  0.55175  0.82074  1.0000
  C   C1098     1.0  0.72280  0.54405  0.90699  1.0000
  C   C1099     1.0  0.83971  0.60791  0.79062  1.0000
  H   H1092     1.0  0.66863  0.62036  0.87248  1.0000
  Fe  Fe186     1.0  0.66564  0.51260  0.88882  1.0000
  S   S374      1.0  0.88111  0.53356  0.84282  1.0000
  C   C1100     1.0  0.51392  0.88947  0.84499  1.0000
  H   H1093     1.0  0.51402  0.85373  0.82428  1.0000
  C   C1101     1.0  0.94781  0.61078  0.80886  1.0000
  C   C1102     1.0  0.94500  0.50440  0.89778  1.0000
  C   C1103     1.0  0.51209  0.71527  0.97318  1.0000
  H   H1094     1.0  0.53497  0.67176  0.90313  1.0000
  C   C1104     1.0  0.51016  0.86262  0.87829  1.0000
  H   H1095     1.0  0.62934  0.50674  0.95495  1.0000
  H   H1096     1.0  0.50984  0.60561  0.88363  1.0000
  H   H1097     1.0  0.88188  0.51375  0.77706  1.0000
  C   C1105     1.0  0.53981  0.68622  0.90553  1.0000
  H   H1098     1.0  0.50166  0.83202  0.98624  1.0000
  C   C1106     1.0  0.52952  0.87885  0.74947  1.0000
  H   H1099     1.0  0.55781  0.73669  0.91540  1.0000
  C   C1107     1.0  0.78258  0.55602  0.84213  1.0000
  H   H1100     1.0  0.75769  0.57617  0.85874  1.0000
  C   C1108     1.0  0.76144  0.56652  0.84675  1.0000
  C   C1109     1.0  0.96647  0.49403  0.89385  1.0000
  C   C1110     1.0  0.88486  0.59592  0.78287  1.0000
  H   H1101     1.0  0.79555  0.55792  0.85008  1.0000
  H   H1102     1.0  0.80349  0.53512  0.82351  1.0000
  H   H1103     1.0  0.78267  0.53861  0.78497  1.0000
  H   H1104     1.0  0.72864  0.57270  0.83950  1.0000
  C   C1111     1.0  0.52297  0.60641  0.86992  1.0000
  C   C1112     1.0  0.50514  0.85760  0.77504  1.0000
  C   C1113     1.0  0.63826  0.59070  0.91316  1.0000
  H   H1105     1.0  0.58569  0.70597  0.90693  1.0000
  H   H1106     1.0  0.91734  0.61987  0.79582  1.0000
  S   S375      1.0  0.71508  0.56586  0.88643  1.0000
  N   N92       1.0  0.51175  0.86379  0.79114  1.0000
  S   S376      1.0  0.72560  0.49995  0.82880  1.0000
  S   S377      1.0  0.87168  0.53155  0.90243  1.0000
  S   S378      1.0  0.55567  0.55354  0.97469  1.0000
  H   H1107     1.0  0.73711  0.54993  0.81266  1.0000
  C   C1114     1.0  0.56202  0.68694  0.90418  1.0000
  C   C1115     1.0  0.88115  0.51190  0.96391  1.0000
  H   H1108     1.0  0.56479  0.52093  0.93896  1.0000
  Fe  Fe187     1.0  0.69803  0.51710  0.84836  1.0000
  N   N93       1.0  0.87918  0.54036  0.74989  1.0000
  C   C1116     1.0  0.65340  0.58445  0.92765  1.0000
  H   H1109     1.0  0.93079  0.64846  0.76620  1.0000
  H   H1110     1.0  0.94209  0.59807  0.82179  1.0000
  S   S379      1.0  0.85357  0.50514  0.82416  1.0000
  N   N94       1.0  0.96255  0.64297  0.77535  1.0000
  C   C1117     1.0  0.73005  0.50330  0.93510  1.0000
  C   C1118     1.0  0.93395  0.62294  0.79427  1.0000
  C   C1119     1.0  0.94164  0.63909  0.77752  1.0000
  S   S380      1.0  0.70134  0.51332  0.88229  1.0000
  H   H1111     1.0  0.68532  0.57056  0.95050  1.0000
  H   H1112     1.0  0.74346  0.51552  0.85970  1.0000
  H   H1113     1.0  0.51865  0.73474  0.91746  1.0000
  H   H1114     1.0  0.58681  0.54953  0.93219  1.0000
  C   C1120     1.0  0.62631  0.55022  0.98381  1.0000
  C   C1121     1.0  0.51236  0.67876  0.96835  1.0000
  C   C1122     1.0  0.68850  0.58558  0.93833  1.0000
  H   H1115     1.0  0.58452  0.50552  0.88428  1.0000
  N   N95       1.0  0.53436  0.58462  0.86792  1.0000
  H   H1116     1.0  0.87147  0.54203  0.94196  1.0000
  H   H1117     1.0  0.68692  0.59912  0.94653  1.0000
  N   N96       1.0  0.78840  0.49253  0.97482  1.0000
  S   S381      1.0  0.49755  0.65804  0.96859  1.0000
  Fe  Fe188     1.0  0.69226  0.54973  0.87539  1.0000
  H   H1118     1.0  0.96411  0.67639  0.76141  1.0000
  H   H1119     1.0  0.54739  0.89681  0.76241  1.0000
  H   H1120     1.0  0.78825  0.51371  0.80489  1.0000
  H   H1121     1.0  0.99242  0.63505  0.78861  1.0000
  C   C1123     1.0  0.61425  0.57023  0.97503  1.0000
  S   S382      1.0  0.50261  0.90898  0.82417  1.0000
  C   C1124     1.0  0.55288  0.72269  0.91203  1.0000
  C   C1125     1.0  0.52676  0.87767  0.78678  1.0000
  Fe  Fe189     1.0  0.86585  0.51857  0.87529  1.0000
  C   C1126     1.0  0.51417  0.86475  0.75402  1.0000
  H   H1122     1.0  0.56100  0.59713  0.84680  1.0000
  C   C1127     1.0  0.97598  0.53305  0.75910  1.0000
  C   C1128     1.0  0.53436  0.71379  0.96592  1.0000
  H   H1123     1.0  0.62180  0.58479  0.96996  1.0000
  H   H1124     1.0  0.70556  0.58213  0.93066  1.0000
  C   C1129     1.0  0.52523  0.56643  0.87820  1.0000
  H   H1125     1.0  0.58010  0.56084  0.84181  1.0000
  C   C1130     1.0  0.60189  0.53722  0.93281  1.0000
  H   H1126     1.0  0.61366  0.54365  0.93948  1.0000
  H   H1127     1.0  0.69451  0.60948  0.89898  1.0000
  C   C1131     1.0  0.88198  0.53165  0.77226  1.0000
  H   H1128     1.0  0.93855  0.50783  0.91326  1.0000
  H   H1129     1.0  0.75518  0.53514  0.89158  1.0000
  C   C1132     1.0  0.56458  0.56225  0.85198  1.0000
  H   H1130     1.0  0.56329  0.52772  0.85974  1.0000
  H   H1131     1.0  0.97172  0.55091  0.75301  1.0000
  C   C1133     1.0  0.74293  0.53045  0.90480  1.0000
  C   C1134     1.0  0.55375  0.58274  0.85494  1.0000
  H   H1132     1.0  0.76140  0.52251  0.79775  1.0000
  H   H1133     1.0  0.96132  0.52544  0.76010  1.0000
  H   H1134     1.0  0.50614  0.98055  0.82388  1.0000
  C   C1135     1.0  0.50118  0.69776  0.97455  1.0000
  H   H1135     1.0  0.49994  0.85483  0.89176  1.0000
  H   H1136     1.0  0.96423  0.65957  0.74289  1.0000
  H   H1137     1.0  0.49928  0.95018  0.79236  1.0000
  C   C1136     1.0  0.53562  0.54568  0.87559  1.0000
  H   H1138     1.0  0.89782  0.53479  0.77513  1.0000
  C   C1137     1.0  0.53577  0.88550  0.76589  1.0000
  C   C1138     1.0  0.74649  0.50988  0.91876  1.0000
  H   H1139     1.0  0.69742  0.51233  0.94955  1.0000
  C   C1139     1.0  0.80334  0.50255  0.98005  1.0000
  H   H1140     1.0  0.91508  0.51819  0.88450  1.0000
  H   H1141     1.0  0.88693  0.50906  0.74206  1.0000
  Fe  Fe190     1.0  0.91734  0.62354  0.73836  1.0000
  C   C1140     1.0  0.94014  0.50563  0.86185  1.0000
  C   C1141     1.0  0.87423  0.56245  0.74251  1.0000
  C   C1142     1.0  0.58234  0.55285  0.97946  1.0000
  H   H1142     1.0  0.51549  0.61481  0.85534  1.0000
  C   C1143     1.0  0.50067  0.87881  0.86225  1.0000
  Fe  Fe191     1.0  0.88550  0.50001  0.83659  1.0000
  C   C1144     1.0  0.77558  0.49680  0.86194  1.0000
  H   H1143     1.0  0.77887  0.50424  0.87392  1.0000
  C   C1145     1.0  0.50187  0.85655  0.81308  1.0000
  H   H1144     1.0  0.76162  0.49895  0.91649  1.0000
  C   C1146     1.0  0.96166  0.49521  0.85847  1.0000
  H   H1145     1.0  0.50894  0.85971  0.74131  1.0000
  H   H1146     1.0  0.95225  0.54622  0.98468  1.0000
  H   H1147     1.0  0.99032  0.58390  0.75842  1.0000
  S   S383      1.0  0.65429  0.54852  0.98428  1.0000
  H   H1148     1.0  0.98843  0.53424  0.91675  1.0000
  S   S384      1.0  0.98679  0.51991  0.96221  1.0000
  C   C1147     1.0  0.59407  0.49410  0.89552  1.0000
  C   C1148     1.0  0.81995  0.51051  0.96474  1.0000
  H   H1149     1.0  0.80644  0.49650  0.92257  1.0000
  C   C1149     1.0  0.75082  0.49304  0.83888  1.0000
  C   C1150     1.0  0.80572  0.49822  0.93872  1.0000
  H   H1150     1.0  0.83366  0.51473  0.93182  1.0000
  C   C1151     1.0  0.82105  0.50839  0.94393  1.0000
  Fe  Fe192     1.0  0.84032  0.49275  0.85810  1.0000
  H   H1151     1.0  0.94466  0.49368  0.77827  1.0000
  H   H1152     1.0  0.49540  0.95561  0.82703  1.0000
  C   C1152     1.0  0.88484  0.49220  0.92955  1.0000
