data_image0
_chemical_formula_structural       FeS2FeS2FeSFeS3FeS2FeS2FeSFeS3FeS2FeS2FeSFeHS2FeS2C3S2HFeSNFeS2HCFeSHFeS2FeS2FeSFeS3FeS2FeSHFeSFeS3FeSHFeS2FeS3HSFeS2FeS2FeSFeS3C6H4C6H4C7H4C6H5CNCHCHC3H5C6SH3C6H5CH2CHCHC6H5C6SH3C6H4C6H4C2HCH3C7H4C6H4C5H3C2NCHCHCH2CH2NFeNC6H9CH3CHNH2CH2C2HNC2HC2HCHC4HCHSH3NS2CHSCH4C2HCHCHCH2NC2H4NC6H8C2H2SC2NH4NCHNC6H9CNC6H5CH2NHCHC3HCH2C3HFeC2HSC2HC2HC3HNHCHCH3NC3HC2H2FeCHC3H3CH2CH2CHC2HCSH2SHFeCH2CH4CHSHC2SH2CFeCH3CHCHC2HC2SC3H2CHCH2C3FeCH2CHC2H4SHCHFeHCH2CHCHCH2C2HCHC3H3FeS2FeS2FeSFeCS2HCHFeS2FeSFeCS3CFeS2FeS2FeSFeS3FeS2FeSCFeSFeS3H4CHCHFeS2FeS2FeSFeS3H2SCNHFeSHCFeSHCSFeSFeSCHSFeSHFeSFeSCH3FeSC6H3C7H2FeHCHSH4C2SC6H2CHSHCH2C6H4CFeC4HCH3C4HSHSC2H2C2HC3H2CHC6H4C6H4C6H2CH2C6H5SCFeSH2C7H5C6H4C6H4C4HCH2CHCHNC6H8SH3C2SH2C2H5SHCH3SC3HC2H3CHCH3SH2SCFeC4SC2NCNSCHC3HCH2CH2SH3FeHNH2CH3CH2N2H2CHNH2CHNCHSHFeH3CNC6NC6H8CH3SCHC2HCH2CH2NC6H5NHC3FeCSHCHCHCH2NHNC6H8NC6HCSCFeH4CHC2HC2HNHC4H3CH5C2H4CH3CSHFeS2FeS2FeSFeS3FeS2H2FeSCFeS2FeSFeS3FeS2C2HC3FeS2FeS2FeSFeS4FeSHCS2HCHC6NCH2C6H8C4H3C7H2C6H4C6H5C6H4C6H2FeCH2C5HC6H4NC2H3C2NHNC6H16C2HCHC2SC2HNC6H2CH2SCHC2H2SC3H3CHCHNC5H4FeH3C2SH2CH2C2H3C3H2CHCNC2SNHCSHCH5NC6H4SH3CHCHNC2H2CHSHSC3HFeH4CSHC4H2CSCHCSH3CNHSH3SH6Fe2S2C2SHCHCSHCSH3C3HSCH2FeHCFeCH2CH4CHCHCNCHCSH2CS4C4FeH2C4H2CHNCH3C2HC2H2CHCFeHCN2HC2H4CHC2HCH6CHC2FeC2SH3FeS2FeS2FeSFeS3FeS2FeS2FeSFeS3FeS2FeSFeSFeS3C2HC3HSCH2C2SHSHCSFeHCH5FeSFeS2FeSFeHSHCNCNSHSCHC2H5CSH3SFeS2FeS2FeSFeS3FeS2FeCH2CFeSHSFeSCFeS2Fe2S3FeS2FeS2Fe2S3H2SFeC2NHSCH6C2HC4NSC6SC2FeCNH2C2FeH5C2NH5CH4C2HCH2CHC4H2C6H4CH2C2HC2FeC3H3C6H4C4HSH2NC6H5CHCNCS2NHC6H4C2HCH5CHCHSC2HCNC2H2CH2SCH4SHCH2FeCH2CHCHC2HC2SHC2H2SCSHCHNH2CH2CHC2HC4H2C4HCH2CSC4H3CH3C7H4C6H4C6H4C6H4C6H4C6H4C3HC3HC3HSCFeH2CHNCH2C2HCHCHC2HNHCFeNC3H4CNS2H2C4H2CN2C6H9NC6H2CH5C2HCHC2SNHCH2CHCH6NHCHCHCHC2NC6H9CHC5H2CHS2CHC2H7CHSHSCH3FeNCH3SHCNHCHSCSC2H3CSH3C5HSHCHFeHSFeC2HSCHCFeS2FeS2FeSFeS3FeCHC2H2CHCH2CFeS2FeS2FeSCHSCS2FeSFeS2FeS2FeSFeCS4HCFeSFeS2FeS2FeSFeS3HCHC6H4C6H4SH5SCH3C6H4C6H6CH3CNCHC2HFeHC6H2SC3SCH2CHNSC7H4C6H4CHC3HCH2FeCHC3H6CH2C2HCNC2SHC7H3CH4CH4CHFeHSHC5H3NC6H8CH2FeHCHC2HCHC2HSCHC2H3C3HCH2CFeHN2FeCHC4HCSH2SC2H2CH3C2HCHC2S2HCHCH2C3H2CHN2C6H13CH2SHC2HCH2SC2H2C2N2C6H8NC6H5C2NCH2CHSCH5CSH2C2H3SHNHFeSHCNSCFeHS2HC3HSC2S2HC2HSH5SC2H2CFeHCHSHCH2CH2FeC2HCHCNH2CSHFe2C2NCHFe3CFeC2HCH2CHFeC4H2CHFe2S2C3HC2H2SHS2FeC3HSCS2CFeCH2NSHCSFeHS2CHC3HCH2SHFeSC4H4C2HCH2SHCHCH4CHCNH2CNC4H3SH3CHCHC3HCNCHC3H3CFeC2Fe2S2FeS2FeSFeS3FeS2FeS2Fe2S3H4C3SHCHSH2FeS2FeS2FeHFeS4FeS2FeS2FeSFeS3H2C3FeCSFeCFeS3H2SHFeS2FeS2FeSFeS2CFeS2FeS2FeSFeS3C5H3SNC6H5C7H5C6H4CH3C2HSH2C5H3C4H3C6H4C6H5FeC3HC7H4SCH2C2H2CSNC2HFeC2HSC7H4C4H6SC2NHC2NC4H2C6H4C6H4C5H2SCSC2HCH2S2H3CHC3H2NCNHCHCSCHFeH5C2H2NC6H8NC6H9CH2CSC3NS2H2C3H5FeH4CFeH5NHCN2HC2HCNC6H2CFeCH3FeCH2C2H2CH2S2HC2HCFeC3NC6H9NHCH2CHCS2CHCHC4HCHC2HCNC2HCH6CH2C2SCHC3HSNH2NC3H2CH5CNC3HCH4CH2CH7CH2FeH2FeHS2HC3HCSCSHC4HCHCNCH6CHCHSH4C3SFeSH3CHCH3C2FeHNHCH4CH2C3FeC2SC2H3CHCH2CH3C3NH3SHCHCSCFeS2FeS2FeSFeS3FeS2FeSFeCSCHC3HN2H2C2HSCH2SHSC2HCH3CSH2CH2CH3CHFe2S2FeS2FeSFeCS3FeH3Fe2C2S3HSH2SHFeSFeSHC2FeS2FeS2FeS2HS2C2NFeS2FeS2FeSFeS3HFeSCFeSHSCSC3FeSFeH2CHNC4H2C6H5C3H2FeH3CHC2H3C6H3FeNHS2FeH4C4HC2HC6HCHFeCHC5H3C7H2CHC6FeH3C6H2SFeCH2SCSH5NHC3HSC4FeCHCHCHCHFeH3SHC3HCH2NCSHCNSCNCH2C6H4C6H4CHC2SC8H4C6H4C2HC2HFeC2HSHC2H3CHCH3NCHC4H9CH2CH2NC7HCH2CHNSHNFeC2H2CHSC3H2C2SCH2CNC4HCH6NH3SCHC2H4C2H4CSCHCHC3HFeS2HCHCH2C2HNC6H2SH5SH3C2SHC2SH2CHSNC6H8C2H4CH3C2HCH2CHCHCH4NCHCHCHCSC2FeCH2NC3H2CH3CNCHCFeSFeSCHC2SHCFeS2FeS2FeSFeS3FeHCS2H2CHFeH3C4HC2S4FeHFeS2H5SFeS2FeS2FeS2FeS2FeSHFeSFeS3HCFeHCH3CHC8H3CHCHCH3C7H4CH2SH3CNCHC6H4CSH2FeC6HSHCHCH2C4H3NHSHSH2C6HCH2C2HCHCHCHC4HC2H2FeC7H3C2HCNCFeCHC4FeHFeCS2HSH4CH2CH2CH2CHCH3C3H2CSHFeNC6H8NC6H9C3SC2HSHNH2FeS2NC3HC5HC6H2SH3FeCSCHSHSHCS2FeC2NC6HCHC2H3Fe2NS2CH2SH2S2CHCH5CH2NH3C2H6CH5CFeS2FeSFe2H3C2FeS2CSCFeCFeSCSFeS2FeS2FeSFeS2FeS2FeS2FeSFeS3CFeS2FeS2FeCFeS3HCHC2HCHCSHC2HC2HC2HCHCH2C3H2CFeHSH2NS2FeS2CSFeSFeS3CH3FeCS3CFeS2FeS2FeSFeS3FeS2FeSHFeSFeS3FeS3FeS2HCH2C2H2CHSCH4CHCHC2SCSHC6H4C6H5CH2C7H4C6H6C5H3CH2CHFeHSC9HC2SHSH2C2FeH2C2HNH4CSHNH4CFeH3CHC6H4C6H3FeC6H4C6H4C7H4C6H8CSCH3C2HCHC2HC6H4C6H4SHCH4FeNC5H7C2NC2H3C2H2S2CHC3NH2CHC2H2CHNC5H3NH3CH5CH2NHNCH2SHNCHC2H2CHCH2CHCHC2H3SHNS2H2NC4H4SCNCHC2HC2HCH3NH5CHNC2SH2SCNCH4SNC3H2FeHCHC2NCHCHCH2CH2CFeCHC3H4C3HSNC6H5C2H2C2HCHCFeH3CHC2HFeCNC6H2SCSH2CHCHCHC2H2CH5C5H2CSCH4C7H2FeHCH3FeS2CHFeSHCFeS2FeS2FeSHCS2HFeS2FeSFeS3H2SHFeSCSHFeHSFeS2FeS3FeS3FeHSHSFeS2FeS2FeSFeS3C2FeHFeSFeHSHFeHNHFeS2FeS2FeSFeS3FeSFeSFeS2HFeS2FeHSCHFeS3HC2HC2SH3C3H2SH3CH3C3HCHCS2HSHC6HCH4C2HSCHCHC6H4C3H2C2NH4C5HC6H4C6H2FeHC6H4C6H5FeHNHC2HCHC6HCS2CHSHC8H4C6H4C6H4NC7H4C6H4C2HNCH3SCNCH2C7H4C3SC2NCSHFeHSHSHCHC3H2FeSHCSH3CHCH2CH3CHCSH3C2H2C4HCHCH3FeHCSC3H4CHCHCHFeNC6H2C2H2CHCH3NC4SCNH2C2H3NCH4C2HCSCH2FeNC6H4SHCSHCNCHCH3C4SCNC6H2CH4NC6H9C2H4CFeSCNC6H6C3SFeHSHCH4CHC2NC6H8NC5H2SH3NC6H3SC2NH8C2HCHCHSHSC3HCH3FeCFeH3S2FeC3HCHNH2FeHCNCHCH4SFeH2C2H5NHCH2CHC2NHCHC2H2C3FeNC2FeS2FeSCFeSFeS3CHSFeHSCHS3HFeS2FeS2Fe2S3C4HFeHSH2FeCHS2HCHC2FeS2FeS2FeSFeS3FeS2HSCFe2S3HCHCHCFeHSH3SFeHSFeS2FeSCS2HCHC9H5FeC6H6C3SH3SC6H3C4H3C6H4C3H2CH3CHCSCS3Fe2HCHCFeHCH4C6H4C6H4C2HC4HC6H4C6H4FeSC2FeHCHCHSH2C2NC6H8CSCHFeHSHCHCHFeC2HCHCFeHNC6H8NC6H8NC4H4C2H3SHN3CSC3H3CSHC2HSHC2HSC2FeHSHC2NHSFeC2HSC2H2FeC2FeCHC2HC4SHNC6H8NSHCH2SH5S2HNC6H10C2HCNC6H2CH2SCH4FeHCFe2HNHCHC3H2SC2HCNCH2CHSNC3H2SH2C2HNFeC3SCH2CSH2C2SHSCHCHC2H3CNCNHCH3CNH2C4FeH6S2C3HC2HCH2CHSH5C4HFeNFeS2FeS2FeSFeS5FeSCHCSHCHCH2FeC2HCHCHFeH3C2SC2FeS2FeS2FeSFeS3HCHFeS4FeSFeCSC3HCHCHS2C4HC2H2CSHFe2SC2H2SFeCSHFeHS3HFeS2FeS2FeSFeS3CFeCFeC2FeHSHCS2HNC3HCSH4FeSC7H3C4H2SH3C6H4C3HSCHCH3C3NH3CH3NHC2HSC4H4C5H3C2HC3HSH2CHC4FeH3C4HCH2NHC6HCH2C6H5FeC2HSNHFeCFeCH4SC2HNCFeCH2CNCNHCNC3H4C3HCH2CHSC3SC6H5CH3C2FeNCHCH2CHFeC2HSC6H4C6H4C4H4C2NH2C7H3C2H4SNHNHCHCHNH2C3H4NC6H8CH2C2H3C2HCSFeHNCHSHC3H5CHCHSH2CHSCSH5CH6S2CSHCHSHSHCHC3HC3HCNCH2C2H2C3H3CFeCH3SHSCHFeCN2HCH2C2FeCHNCSHCHCSHSHCHSC2HCHCHC3HC2HSCH3CFeS2FeS2FeSFeS4C2FeS2FeSFeHS2CSHFeS2CH3S2CS3NFeS2FeS2FeS2FeS2FeCSHCSHS2H2CFeS2CHCHS2NFeS2FeS2FeSFeS3CFeCHS2CSH5FeC2SC4H3C6H3C3H2CH2C7H7CH2C2H2NHCH2C7H8CFeCNSCSCSCNC5H4C7H4C3HC2H2C6H4C6H2FeC7H4C3H7C6H3Fe2CH3SH2C2H2SCH2C2HC3H2CH2SHCHNCH3C2HS2C2H3NC6H8NHC3H2SHSCFeC2HNC3H3C2H2SCFeCSCH2NCHCH2NC5HCH6CNC2H3CHCHCH4C3HSH3SHCH2FeCH3FeHCH4C4H3Fe2CH2C5H3C2HCNHNCH5SH2CHSCHC2NC6H7CS2CS2H2CH2C2FeC2FeHC2HCFeH2SHNC6HCHCH3C5H3C2H2FeHNC6H9CNSFeC2SCH2CSFeNC4HCH2C5FeH2CFeH4CH2SCH2CSFeH2CH3CFeHCHC2HFe2H3SCH4SH3C2HSH5SH3SH3FeS2FeS2FeHFeS3H2SFeS2FeCHFeS5FeS2FeS2Fe2S3FeS2FeS2FeSFeS3NCHCHC2H5FeS2FeSCFeSFeS3CHN2H2NC4HC2H2FeCH2C2H4FeSFeSH3FeS2FeS2FeSFeS2H2FeS2FeS2C2HSHCHCHC2HCFeNHC3HCHC4H2SHSHCH2C3SH3FeC6H4C6H5C3SH4CH4C2HC2HCSHC2SCFeHSNH2C4HSHC2H4NCNH4CH5CHC2HCHC7H3C6H4C6H4C6H4C6H5C6H4C3H7CHCSC2H7SC6H4C6H5CHSC7H6CHNC2NHCFeC2SH2FeS2H2C2H3FeHC2H2NH2CNC3HCHCHCNC2FeCH3FeSC2H3C2H2C8H2SNHCH2C2H2CH2SC2H3CH3C3SCHCHSCNCNC6H4C3H2CH4CHCHC4H4C2HC3H6CHC2H3FeHSCSHS2C4HCH3NC3H2CHC2H2CHFeNC7HCHCSHCSFeNCHCH2CSCH5CHSCH3FeH2SFeC2SCHCH2CHCHSHC3H6FeS2FeS2FeHFeS3FeS2FeS2FeCFeS3HFeSFeS2FeS3HCFeS2FeS2Fe2S3FeCSFeSHFeSHSHFeS2FeHFeSFeS2FeS2FeSFeS4H2C2HFeS2FeS2FeSFeHS2H2SH7S2HCH2CSC2HCHCHFeHC7H6C2SCH3C3H5SC7H4C6H4C6H5C7H6SC2HC6H4C6H4CH9C7HC6H4C5HCH2CHC6H4FeSCFeH2CHCS2HC2HC6H4CFeSNC3HC6H3C4H3CSCH5C2HCHNCHC3H2CNC6H8NC6H8SC9SCHSNHCSH3SH2CHC2HNC6H9C2SC2H2CNCH2NHNC6H9CH3CNHC4HC2HNHC3NH5C3HNFeCHCH2NHCHC4HSNHCHC2SH2SCHC2FeNC6H6C2SHC2HCHSC2HCHSHCFeC2HCH4C2HCSFeSCHSHCH3FeC2H4NCHCSH2CH2NHCNHNCHCFeS2FeS2FeSFeS4FeS2FeS2FeSFeS3FeS2FeHNHCFeNFeSHCH3CH4SHFeSCFeS2FeSFeS4FeS2FeS2FeSFeS3C4H4C6H4CHCHCHCHC5H4SHCSFeNHC2FeS2C2SHSCS2H3C7H4C6H4C4HCH2CFeHNC5H2C6H4C6H4C6H4C6H3NHC4H4C2SHC2FeSC5NH3CH2CH2CSCSH2C2NC6H8C6SH4NCFeH3CH2FeH4CHCH3CH2SNC6H2CHCH3SC2H2C3HSH4C3HCS2CSHSHC2SCHNC6H3SH4NC6H9S2CFeSHN2C6H7CSH2C5NC6H9CHSCHCHNHFeHC2HC3HSHFeH2CHC3FeSHCHFeC2FeC2HFeSCHCH4SH2SC2SFeH2FeHCHSC2H2CHC2H2C2HCHC3H2C2FeS2CHSCNC2SCNCHCH3C3HCH2C2H2C2H3C2H3CH2CFeCFeS2FeS2FeSFeS3HSH3NCHCS2H3FeCH2CHCHC2FeS2FeS2FeSFeS3HCFeCHSH2C3H3FeS2FeS2CSCHCH2C3HCNHCH5FeS2FeSFeS3FeS2FeS2FeSFeS3FeS2FeS2FeSFeS3FeS3HSHC2HCNCFeSC2H2C3HFeSCFeS2FeSFeS3H3CHCHSCFeSHCHSHCH3CH2CHC6H4NC3HC3H4C2HSCH2SH3C4H2C6H4C6H4C6H4C6H4C5H4SHSHSCHCH2CH3NHCHC2HCHCFeCHC2HCHCHCH2CHC2SCH2CH2C6H4C2FeCFeCHCH3NCHFeCHC2SFeCSNH3CH4CH2NC6H4C6H4CSC2HSHC4H4C2SHC2HCHCHCHC3HSCHC2FeH2C6H4C6H4C6H4CHC2H2SN2CH3NC4H5FeH2C3HCH4CHNC6H8CHNCH2FeCHC3NH2CSNHCSCH5SNHCHC4H6SH2C2H2C2H2CNSCH2C2NC6H2CH5C2H3CFeC2H3CHCHNCN2C3H2CH2CH2NC6H3CHCH3CSHC2H2CH5CH3CHC5SHCHC2HFeSCFeS2FeSFeS2CFeS2FeS3FeS2NHSFeS2FeH2FeS2H2FeS3FeCFeS2FeS3FeS2FeS2FeHFeS3FeHCH3FeSCSFeS3FeS2CHC4HSH4C6H4C6H4C6H4C2SC2NHCFeHSC3H2C6H4C4SH3CH2C7H4C6H4C3SFeHCSH2FeH3C8HCH3SC2FeCSCNH3CH2C3SCHS2H3FeH2C2FeH3C3HC2H2NC6H2CHCHC2NC6H2CHCH3CNCHNCH7CFeCSCHSH2FeS2HNCH3CSCNC6H8NC6H11SCHCH3CSCNHNSC2HCHSH4FeSCFeHCHFeCSHCFeCHC2NC6H8NC6H9CHCH2SCNHCH2CSNC6H6FeCHC5HSHSFeSFeC2HCHCH3C3H2C2SC2H2SC2HCHCHC2H3C2H2CH3CHCSCHC2HC3H2NSH2NCHC4H2SH2CSH4CHCH2CS2NCSCHSHFeSFeSHFeS2FeSCFeSFeS3FeS2FeS2HFeSHSHCFeS2FeSHCSHFeS2FeS2FeSFeS4FeSHNSHFeSFeSHSFeS2FeSFeSFeS2C2FeS2FeS2FeSFeS4C4HC3FeS2CSCFeHCNCHC4H3CH2CH4CFeH2C2HCH2C3HC2H4C6H5CHSHCH2C4H3CHC2H3C7H4C2HC2HNH2C6H4C6H4C6H4C9H4C6H4C6H5CH2C2HC2HCSFeHCHSHCFeC2H2CH3C6H4CH2C2HCHNHNC5H8CNC3HCH2C2HFeC2NC5SHCHCHSHC2H5NCHSCSHC2Fe2CHNC2HC2HSH2CH3CHCHNC4HFeN2H2C2H2CHSH2C2H3CSCH3NH3CH2C2H2C3HC3H2CHC2SH2SCH2CHNC2HC3SH7NC6H8NCHC2H2CSH3CHCHFeHNCH2CH4CHCHC2HNC6HC2HCHCH2CH4C2SNC2H2CHC2NH4C2S2HSH2C2H2Fe2CSCHCH5S2HCH2FeC2SC4HCH4C2FeS2FeHFeS3HFeSFeS2FeHFeSCSFeSFeS2FeSFeHS2FeS2FeS2FeSFeS3FeS2FeS2FeSFeS3FeS2FeS2FeSFeS3NSHCH2C5H2CFeS2FeS2FeSFeS3FeCSFeHSFeSHSCHCH3C6H4C6H4C6H3CHC3H2C2HCHC5H3C6H4C6H4C6H4C6H4C6HNH3NC3H5C6H4C6H4C7H3C6H4C5H3C8H4CHCH2C2SH2CH2NC2HSHNH3FeH3C2HCH3CSH4CHSNC2HCH3C2NC6H9C3H7CNC3H3NH3SH2NSC3HCH2SCH4CHCH3FeNH3CHC5H3C2H2C2H2SNC6H8C2H2C3HCH3C3NC6H10SCHSHCHSC2SH2NC6H8C2HCHN2H2C2H2CH2C2HC2HC2HCS2HC2HSCHC3HNC6H6CH4CH4FeH2SC2H2SCHCNC2SCHFeHC2S
_chemical_formula_sum              "Fe768 S1536 H4608 C4608 N384"
_cell_length_a       91.1308
_cell_length_b       91.631
_cell_length_c       91.9917
_cell_angle_alpha    73.7713
_cell_angle_beta     73.7758
_cell_angle_gamma    73.7838

_space_group_name_H-M_alt    "P 1"
_space_group_IT_number       1

loop_
  _space_group_symop_operation_xyz
  'x, y, z'

loop_
  _atom_site_type_symbol
  _atom_site_label
  _atom_site_symmetry_multiplicity
  _atom_site_fract_x
  _atom_site_fract_y
  _atom_site_fract_z
  _atom_site_occupancy
  Fe  Fe1       1.0  0.38354  0.28460  0.07247  1.0000
  S   S1        1.0  0.38993  0.26582  0.09262  1.0000
  S   S2        1.0  0.36318  0.30460  0.07518  1.0000
  Fe  Fe2       1.0  0.40798  0.26859  0.04886  1.0000
  S   S3        1.0  0.41669  0.24816  0.06681  1.0000
  S   S4        1.0  0.41849  0.27159  0.02329  1.0000
  Fe  Fe3       1.0  0.39124  0.24946  0.07803  1.0000
  S   S5        1.0  0.37960  0.22918  0.08849  1.0000
  Fe  Fe4       1.0  0.41469  0.26630  0.07981  1.0000
  S   S6        1.0  0.43223  0.26355  0.09389  1.0000
  S   S7        1.0  0.38260  0.26835  0.05899  1.0000
  S   S8        1.0  0.40814  0.28673  0.06085  1.0000
  Fe  Fe5       1.0  0.34195  0.15936  0.05409  1.0000
  S   S9        1.0  0.31760  0.16806  0.04965  1.0000
  S   S10       1.0  0.35214  0.13570  0.06724  1.0000
  Fe  Fe6       1.0  0.35006  0.19127  0.04161  1.0000
  S   S11       1.0  0.32646  0.20246  0.03634  1.0000
  S   S12       1.0  0.36757  0.20647  0.03479  1.0000
  Fe  Fe7       1.0  0.31709  0.18821  0.05934  1.0000
  S   S13       1.0  0.29703  0.19841  0.07689  1.0000
  Fe  Fe8       1.0  0.32942  0.18145  0.02690  1.0000
  S   S14       1.0  0.32388  0.18801  0.00315  1.0000
  S   S15       1.0  0.34051  0.17852  0.06540  1.0000
  S   S16       1.0  0.35386  0.17121  0.03053  1.0000
  Fe  Fe9       1.0  0.29986  0.28642  0.13127  1.0000
  S   S17       1.0  0.27995  0.28322  0.15183  1.0000
  S   S18       1.0  0.31085  0.30728  0.12102  1.0000
  Fe  Fe10      1.0  0.30085  0.25642  0.12258  1.0000
  S   S19       1.0  0.28081  0.25050  0.14223  1.0000
  S   S20       1.0  0.31761  0.24328  0.10496  1.0000
  Fe  Fe11      1.0  0.26969  0.27610  0.13605  1.0000
  S   S21       1.0  0.24382  0.28487  0.13651  1.0000
  Fe  Fe12      1.0  0.29250  0.25799  0.15657  1.0000
  H   H1        1.0  0.22093  0.47379  0.09135  1.0000
  S   S22       1.0  0.28865  0.28121  0.11504  1.0000
  S   S23       1.0  0.31339  0.26203  0.13740  1.0000
  Fe  Fe13      1.0  0.30770  0.08412  0.13499  1.0000
  S   S24       1.0  0.28521  0.08310  0.15276  1.0000
  S   S25       1.0  0.30434  0.09475  0.11063  1.0000
  C   C1        1.0  0.33814  0.22428  0.99445  1.0000
  C   C2        1.0  0.38141  0.41125  0.09651  1.0000
  C   C3        1.0  0.16225  0.43338  0.09095  1.0000
  S   S26       1.0  0.31908  0.05906  0.14302  1.0000
  S   S27       1.0  0.31832  0.09311  0.14903  1.0000
  H   H2        1.0  0.32905  0.11397  0.16724  1.0000
  Fe  Fe14      1.0  0.00545  0.40363  0.13156  1.0000
  S   S28       1.0  0.01515  0.41924  0.10955  1.0000
  N   N1        1.0  0.13383  0.41067  0.98151  1.0000
  Fe  Fe15      1.0  0.14555  0.46602  0.05849  1.0000
  S   S29       1.0  0.16528  0.45040  0.04560  1.0000
  S   S30       1.0  0.12420  0.45643  0.07109  1.0000
  H   H3        1.0  0.46839  0.23082  0.06645  1.0000
  C   C4        1.0  0.48603  0.23666  0.09172  1.0000
  Fe  Fe16      1.0  0.18061  0.45834  0.05573  1.0000
  S   S31       1.0  0.19880  0.44155  0.06806  1.0000
  H   H4        1.0  0.24419  0.41708  0.06799  1.0000
  Fe  Fe17      1.0  0.09798  0.38875  0.01275  1.0000
  S   S32       1.0  0.07728  0.40705  0.02036  1.0000
  S   S33       1.0  0.10630  0.38589  0.98796  1.0000
  Fe  Fe18      1.0  0.10838  0.38034  0.04370  1.0000
  S   S34       1.0  0.08846  0.39793  0.05385  1.0000
  S   S35       1.0  0.12721  0.36507  0.05627  1.0000
  Fe  Fe19      1.0  0.07400  0.38953  0.04303  1.0000
  S   S36       1.0  0.05100  0.38315  0.05614  1.0000
  Fe  Fe20      1.0  0.09368  0.41369  0.03036  1.0000
  S   S37       1.0  0.09735  0.43809  0.02401  1.0000
  S   S38       1.0  0.09359  0.37052  0.03463  1.0000
  S   S39       1.0  0.11468  0.39671  0.02108  1.0000
  Fe  Fe21      1.0  0.19624  0.36794  0.12026  1.0000
  S   S40       1.0  0.18670  0.39204  0.10777  1.0000
  S   S41       1.0  0.22104  0.35704  0.10994  1.0000
  Fe  Fe22      1.0  0.16832  0.36896  0.14733  1.0000
  S   S42       1.0  0.15683  0.39334  0.13723  1.0000
  H   H5        1.0  0.47592  0.35106  0.13510  1.0000
  Fe  Fe23      1.0  0.16357  0.38517  0.11496  1.0000
  S   S43       1.0  0.14620  0.39614  0.09955  1.0000
  Fe  Fe24      1.0  0.18093  0.39811  0.13088  1.0000
  S   S44       1.0  0.18560  0.42105  0.13057  1.0000
  S   S45       1.0  0.17356  0.36029  0.12536  1.0000
  S   S46       1.0  0.19194  0.37449  0.14305  1.0000
  Fe  Fe25      1.0  0.26749  0.46086  0.08164  1.0000
  S   S47       1.0  0.25108  0.46567  0.10366  1.0000
  H   H6        1.0  0.24707  0.30261  0.15731  1.0000
  Fe  Fe26      1.0  0.29568  0.44910  0.09641  1.0000
  S   S48       1.0  0.28163  0.45335  0.11973  1.0000
  S   S49       1.0  0.32127  0.43803  0.09024  1.0000
  Fe  Fe27      1.0  0.26431  0.44278  0.11501  1.0000
  S   S50       1.0  0.25412  0.42306  0.13177  1.0000
  S   S51       1.0  0.36949  0.26426  0.99063  1.0000
  S   S52       1.0  0.27924  0.43708  0.09260  1.0000
  H   H7        1.0  0.40329  0.21618  0.01318  1.0000
  S   S53       1.0  0.03489  0.36390  0.16979  1.0000
  Fe  Fe28      1.0  0.40234  0.34773  0.13313  1.0000
  S   S54       1.0  0.39452  0.37033  0.11712  1.0000
  S   S55       1.0  0.42736  0.33782  0.13563  1.0000
  Fe  Fe29      1.0  0.37100  0.33823  0.14003  1.0000
  S   S56       1.0  0.36067  0.35981  0.12439  1.0000
  S   S57       1.0  0.35759  0.31958  0.15357  1.0000
  Fe  Fe30      1.0  0.38411  0.35630  0.10805  1.0000
  S   S58       1.0  0.38754  0.35945  0.08239  1.0000
  Fe  Fe31      1.0  0.37180  0.37213  0.13480  1.0000
  S   S59       1.0  0.35779  0.39479  0.14110  1.0000
  S   S60       1.0  0.39346  0.33345  0.12269  1.0000
  S   S61       1.0  0.38051  0.35074  0.15196  1.0000
  C   C5        1.0  0.45765  0.37164  0.13160  1.0000
  C   C6        1.0  0.44194  0.37735  0.13052  1.0000
  C   C7        1.0  0.43250  0.36706  0.13182  1.0000
  C   C8        1.0  0.43875  0.35102  0.13421  1.0000
  C   C9        1.0  0.45446  0.34532  0.13532  1.0000
  C   C10       1.0  0.46389  0.35560  0.13403  1.0000
  H   H8        1.0  0.43703  0.38974  0.12870  1.0000
  H   H9        1.0  0.42036  0.37154  0.13111  1.0000
  H   H10       1.0  0.45931  0.33290  0.13731  1.0000
  H   H11       1.0  0.34287  0.13643  0.98978  1.0000
  C   C11       1.0  0.32883  0.42507  0.10579  1.0000
  C   C12       1.0  0.33825  0.41061  0.10358  1.0000
  C   C13       1.0  0.34707  0.40131  0.11441  1.0000
  C   C14       1.0  0.34621  0.40618  0.12778  1.0000
  C   C15       1.0  0.33612  0.42030  0.13044  1.0000
  C   C16       1.0  0.32744  0.42978  0.11943  1.0000
  H   H12       1.0  0.33924  0.40689  0.09311  1.0000
  H   H13       1.0  0.35504  0.39073  0.11200  1.0000
  H   H14       1.0  0.33535  0.42412  0.14080  1.0000
  H   H15       1.0  0.32024  0.44101  0.12116  1.0000
  C   C17       1.0  0.46414  0.29796  0.07848  1.0000
  C   C18       1.0  0.20487  0.42113  0.13051  1.0000
  C   C19       1.0  0.21387  0.40873  0.13930  1.0000
  C   C20       1.0  0.22884  0.40959  0.13990  1.0000
  C   C21       1.0  0.23510  0.42255  0.13124  1.0000
  C   C22       1.0  0.22621  0.43476  0.12215  1.0000
  C   C23       1.0  0.21103  0.43418  0.12202  1.0000
  H   H16       1.0  0.20906  0.39875  0.14610  1.0000
  H   H17       1.0  0.23560  0.40017  0.14707  1.0000
  H   H18       1.0  0.13116  0.44128  0.12770  1.0000
  H   H19       1.0  0.20406  0.44384  0.11530  1.0000
  C   C24       1.0  0.13174  0.37324  0.06920  1.0000
  C   C25       1.0  0.14268  0.36438  0.07820  1.0000
  C   C26       1.0  0.14693  0.37104  0.08805  1.0000
  C   C27       1.0  0.14028  0.38660  0.08880  1.0000
  C   C28       1.0  0.12916  0.39532  0.08002  1.0000
  C   C29       1.0  0.12487  0.38867  0.07028  1.0000
  H   H20       1.0  0.14797  0.35239  0.07745  1.0000
  H   H21       1.0  0.15549  0.36424  0.09484  1.0000
  H   H22       1.0  0.12407  0.40740  0.08046  1.0000
  H   H23       1.0  0.11662  0.39567  0.06326  1.0000
  H   H24       1.0  0.34799  0.22740  0.11450  1.0000
  C   C30       1.0  0.36324  0.43281  0.08463  1.0000
  N   N2        1.0  0.34120  0.23745  0.99611  1.0000
  C   C31       1.0  0.07725  0.38437  0.98547  1.0000
  H   H25       1.0  0.35516  0.42867  0.06670  1.0000
  C   C32       1.0  0.09277  0.38500  0.97798  1.0000
  H   H26       1.0  0.07344  0.38393  0.99780  1.0000
  C   C33       1.0  0.21502  0.44925  0.06595  1.0000
  C   C34       1.0  0.22321  0.44453  0.07787  1.0000
  C   C35       1.0  0.23660  0.45010  0.07610  1.0000
  H   H27       1.0  0.15541  0.39451  0.97649  1.0000
  H   H28       1.0  0.34196  0.22903  0.02010  1.0000
  H   H29       1.0  0.47690  0.39700  0.15160  1.0000
  H   H30       1.0  0.21924  0.43651  0.08845  1.0000
  H   H31       1.0  0.24298  0.44631  0.08528  1.0000
  C   C36       1.0  0.11650  0.45145  0.05813  1.0000
  C   C37       1.0  0.11951  0.45861  0.04236  1.0000
  C   C38       1.0  0.11349  0.45447  0.03200  1.0000
  C   C39       1.0  0.10479  0.44289  0.03728  1.0000
  C   C40       1.0  0.10213  0.43540  0.05298  1.0000
  C   C41       1.0  0.10780  0.43984  0.06344  1.0000
  S   S62       1.0  0.18433  0.47859  0.03578  1.0000
  H   H32       1.0  0.11558  0.46029  0.01987  1.0000
  H   H33       1.0  0.09531  0.42654  0.05714  1.0000
  H   H34       1.0  0.10547  0.43426  0.07562  1.0000
  C   C42       1.0  0.02437  0.40977  0.09417  1.0000
  C   C43       1.0  0.01990  0.39661  0.09347  1.0000
  C   C44       1.0  0.02774  0.38887  0.08136  1.0000
  C   C45       1.0  0.04034  0.39400  0.07019  1.0000
  C   C46       1.0  0.04472  0.40721  0.07085  1.0000
  C   C47       1.0  0.03661  0.41519  0.08273  1.0000
  H   H35       1.0  0.01032  0.39250  0.10217  1.0000
  H   H36       1.0  0.02425  0.37872  0.08079  1.0000
  H   H37       1.0  0.05426  0.41137  0.06215  1.0000
  H   H38       1.0  0.04003  0.42543  0.08320  1.0000
  H   H39       1.0  0.45053  0.27914  0.01481  1.0000
  C   C48       1.0  0.14276  0.41113  0.03637  1.0000
  H   H40       1.0  0.19657  0.46770  0.09005  1.0000
  H   H41       1.0  0.12624  0.46753  0.03817  1.0000
  C   C49       1.0  0.31072  0.37445  0.13369  1.0000
  H   H42       1.0  0.06829  0.43520  0.98261  1.0000
  C   C50       1.0  0.15882  0.41024  0.05362  1.0000
  H   H43       1.0  0.11239  0.44421  0.10477  1.0000
  C   C51       1.0  0.23772  0.30473  0.12815  1.0000
  C   C52       1.0  0.22167  0.31134  0.12942  1.0000
  C   C53       1.0  0.21642  0.32743  0.12408  1.0000
  C   C54       1.0  0.22725  0.33690  0.11696  1.0000
  C   C55       1.0  0.24331  0.33024  0.11535  1.0000
  C   C56       1.0  0.24854  0.31422  0.12109  1.0000
  H   H44       1.0  0.21326  0.30403  0.13474  1.0000
  H   H45       1.0  0.20402  0.33244  0.12525  1.0000
  H   H46       1.0  0.25174  0.33751  0.10981  1.0000
  H   H47       1.0  0.26093  0.30925  0.12010  1.0000
  H   H48       1.0  0.28944  0.22379  0.16691  1.0000
  C   C57       1.0  0.34489  0.31582  0.14439  1.0000
  C   C58       1.0  0.33689  0.30374  0.15171  1.0000
  C   C59       1.0  0.32633  0.30097  0.14469  1.0000
  C   C60       1.0  0.32373  0.31035  0.13038  1.0000
  C   C61       1.0  0.33167  0.32243  0.12315  1.0000
  C   C62       1.0  0.34223  0.32513  0.13011  1.0000
  S   S63       1.0  0.29387  0.99805  0.12078  1.0000
  H   H49       1.0  0.32017  0.29165  0.15038  1.0000
  H   H50       1.0  0.32974  0.32968  0.11204  1.0000
  H   H51       1.0  0.34820  0.33450  0.12444  1.0000
  C   C63       1.0  0.33878  0.12435  0.07914  1.0000
  C   C64       1.0  0.34267  0.11349  0.09239  1.0000
  C   C65       1.0  0.33202  0.10459  0.10232  1.0000
  C   C66       1.0  0.31761  0.10622  0.09878  1.0000
  C   C67       1.0  0.31378  0.11696  0.08546  1.0000
  C   C68       1.0  0.32427  0.12615  0.07575  1.0000
  H   H52       1.0  0.35393  0.11199  0.09500  1.0000
  H   H53       1.0  0.33511  0.09621  0.11250  1.0000
  H   H54       1.0  0.30266  0.11822  0.08266  1.0000
  H   H55       1.0  0.32126  0.13435  0.06546  1.0000
  C   C69       1.0  0.31122  0.23128  0.09719  1.0000
  C   C70       1.0  0.29614  0.22837  0.10253  1.0000
  C   C71       1.0  0.29167  0.21847  0.09609  1.0000
  C   C72       1.0  0.30220  0.21165  0.08419  1.0000
  C   C73       1.0  0.31717  0.21480  0.07875  1.0000
  C   C74       1.0  0.32172  0.22441  0.08536  1.0000
  H   H56       1.0  0.28796  0.23365  0.11167  1.0000
  H   H57       1.0  0.28005  0.21608  0.10034  1.0000
  H   H58       1.0  0.32532  0.20977  0.06948  1.0000
  H   H59       1.0  0.33342  0.22654  0.08124  1.0000
  C   C75       1.0  0.32863  0.17474  0.99106  1.0000
  C   C76       1.0  0.33442  0.15879  0.99614  1.0000
  H   H60       1.0  0.21398  0.46323  0.04302  1.0000
  C   C77       1.0  0.16626  0.43808  0.10220  1.0000
  H   H61       1.0  0.34416  0.22709  0.13473  1.0000
  H   H62       1.0  0.33581  0.15419  0.00799  1.0000
  H   H63       1.0  0.31624  0.01454  0.17479  1.0000
  C   C78       1.0  0.22006  0.45976  0.05237  1.0000
  C   C79       1.0  0.36976  0.32010  0.07679  1.0000
  C   C80       1.0  0.37802  0.32898  0.06374  1.0000
  C   C81       1.0  0.38319  0.34143  0.06529  1.0000
  C   C82       1.0  0.38032  0.34472  0.07993  1.0000
  C   C83       1.0  0.37235  0.33560  0.09293  1.0000
  C   C84       1.0  0.36699  0.32338  0.09135  1.0000
  H   H64       1.0  0.38027  0.32634  0.05246  1.0000
  H   H65       1.0  0.38954  0.34834  0.05523  1.0000
  H   H66       1.0  0.37030  0.33794  0.10424  1.0000
  H   H67       1.0  0.36083  0.31636  0.10145  1.0000
  C   C85       1.0  0.37626  0.22260  0.07379  1.0000
  C   C86       1.0  0.38343  0.22780  0.05836  1.0000
  C   C87       1.0  0.38047  0.22294  0.04650  1.0000
  C   C88       1.0  0.37056  0.21263  0.05002  1.0000
  C   C89       1.0  0.36340  0.20738  0.06551  1.0000
  C   C90       1.0  0.36627  0.21234  0.07740  1.0000
  H   H68       1.0  0.39144  0.23539  0.05563  1.0000
  H   H69       1.0  0.38586  0.22717  0.03459  1.0000
  H   H70       1.0  0.35567  0.19952  0.06838  1.0000
  H   H71       1.0  0.36064  0.20834  0.08934  1.0000
  C   C91       1.0  0.44410  0.27716  0.08797  1.0000
  C   C92       1.0  0.44195  0.29007  0.07571  1.0000
  C   C93       1.0  0.45185  0.30060  0.07110  1.0000
  C   C94       1.0  0.46606  0.28527  0.09094  1.0000
  C   C95       1.0  0.45598  0.27495  0.09575  1.0000
  H   H72       1.0  0.43270  0.29197  0.06980  1.0000
  H   H73       1.0  0.21039  0.40995  0.08681  1.0000
  H   H74       1.0  0.45749  0.26516  0.10544  1.0000
  C   C96       1.0  0.33841  0.14876  0.98581  1.0000
  C   C97       1.0  0.29254  0.00838  0.13471  1.0000
  N   N3        1.0  0.37186  0.40897  0.07555  1.0000
  C   C98       1.0  0.13981  0.43915  0.11729  1.0000
  H   H75       1.0  0.35660  0.28499  0.03957  1.0000
  C   C99       1.0  0.24079  0.31405  0.16025  1.0000
  H   H76       1.0  0.36454  0.00256  0.15316  1.0000
  C   C100      1.0  0.19143  0.32001  0.16884  1.0000
  H   H77       1.0  0.33962  0.21358  0.00324  1.0000
  H   H78       1.0  0.41648  0.21981  0.03186  1.0000
  C   C101      1.0  0.49138  0.24991  0.02401  1.0000
  H   H79       1.0  0.99797  0.46240  0.16376  1.0000
  H   H80       1.0  0.37364  0.25332  0.02165  1.0000
  N   N4        1.0  0.46262  0.29487  0.01688  1.0000
  Fe  Fe32      1.0  0.16692  0.47213  0.02706  1.0000
  N   N5        1.0  0.32029  0.16127  0.10283  1.0000
  C   C102      1.0  0.33599  0.15487  0.10111  1.0000
  C   C103      1.0  0.31429  0.17555  0.10654  1.0000
  C   C104      1.0  0.34614  0.16283  0.10302  1.0000
  C   C105      1.0  0.32408  0.18380  0.10863  1.0000
  C   C106      1.0  0.34012  0.17744  0.10672  1.0000
  C   C107      1.0  0.31012  0.15328  0.09954  1.0000
  H   H81       1.0  0.34083  0.14375  0.09775  1.0000
  H   H82       1.0  0.30191  0.18086  0.10747  1.0000
  H   H83       1.0  0.35863  0.15789  0.10115  1.0000
  H   H84       1.0  0.31927  0.19528  0.11122  1.0000
  H   H85       1.0  0.34789  0.18396  0.10781  1.0000
  H   H86       1.0  0.29762  0.15728  0.10504  1.0000
  H   H87       1.0  0.31119  0.15568  0.08680  1.0000
  H   H88       1.0  0.31341  0.14047  0.10398  1.0000
  H   H89       1.0  0.30763  0.02319  0.11921  1.0000
  C   C108      1.0  0.40594  0.27610  0.99810  1.0000
  H   H90       1.0  0.40978  0.22941  0.98540  1.0000
  H   H91       1.0  0.24498  0.32310  0.15023  1.0000
  H   H92       1.0  0.33436  0.03016  0.17380  1.0000
  C   C109      1.0  0.14752  0.41860  0.04498  1.0000
  H   H93       1.0  0.17878  0.32169  0.17100  1.0000
  N   N6        1.0  0.22378  0.31605  0.16295  1.0000
  H   H94       1.0  0.27695  0.99570  0.15268  1.0000
  H   H95       1.0  0.45028  0.31049  0.06152  1.0000
  C   C110      1.0  0.32214  0.99799  0.16042  1.0000
  H   H96       1.0  0.22344  0.40583  0.06908  1.0000
  H   H97       1.0  0.42922  0.24590  0.97656  1.0000
  C   C111      1.0  0.41548  0.23086  0.99364  1.0000
  C   C112      1.0  0.37238  0.42639  0.09572  1.0000
  H   H98       1.0  0.35239  0.27532  0.13682  1.0000
  N   N7        1.0  0.16521  0.39483  0.05370  1.0000
  C   C113      1.0  0.32674  0.18055  0.97576  1.0000
  C   C114      1.0  0.21035  0.48286  0.09134  1.0000
  H   H99       1.0  0.13360  0.41738  0.03008  1.0000
  C   C115      1.0  0.38255  0.25979  0.01509  1.0000
  C   C116      1.0  0.44574  0.25142  0.99346  1.0000
  H   H100      1.0  0.17446  0.39029  0.07381  1.0000
  C   C117      1.0  0.17712  0.38633  0.06277  1.0000
  H   H101      1.0  0.11037  0.45086  0.98959  1.0000
  C   C118      1.0  0.33402  0.98990  0.15046  1.0000
  C   C119      1.0  0.24498  0.41047  0.07965  1.0000
  C   C120      1.0  0.24177  0.46044  0.06241  1.0000
  C   C121      1.0  0.28302  0.00512  0.14953  1.0000
  H   H102      1.0  0.16223  0.41606  0.06051  1.0000
  C   C122      1.0  0.32709  0.12309  0.17343  1.0000
  H   H103      1.0  0.17738  0.37364  0.06612  1.0000
  S   S64       1.0  0.25866  0.46722  0.05984  1.0000
  H   H104      1.0  0.18884  0.38820  0.05595  1.0000
  H   H105      1.0  0.47373  0.41611  0.12719  1.0000
  H   H106      1.0  0.48340  0.24161  0.10183  1.0000
  N   N8        1.0  0.32780  0.29059  0.07132  1.0000
  S   S65       1.0  0.46935  0.38481  0.12947  1.0000
  S   S66       1.0  0.15750  0.35416  0.16970  1.0000
  C   C123      1.0  0.35199  0.23063  0.12333  1.0000
  H   H107      1.0  0.38819  0.40602  0.10540  1.0000
  S   S67       1.0  0.16067  0.47211  0.07040  1.0000
  C   C124      1.0  0.19659  0.47934  0.09068  1.0000
  H   H108      1.0  0.26651  0.40445  0.10643  1.0000
  H   H109      1.0  0.47808  0.29240  0.04719  1.0000
  H   H110      1.0  0.34211  0.26127  0.98602  1.0000
  H   H111      1.0  0.34928  0.29164  0.11078  1.0000
  C   C125      1.0  0.31491  0.38542  0.13874  1.0000
  C   C126      1.0  0.43039  0.23476  0.01431  1.0000
  H   H112      1.0  0.17818  0.43915  0.10077  1.0000
  C   C127      1.0  0.31341  0.13471  0.17369  1.0000
  H   H113      1.0  0.08213  0.41796  0.97744  1.0000
  C   C128      1.0  0.21444  0.33068  0.16223  1.0000
  H   H114      1.0  0.00946  0.42307  0.17138  1.0000
  C   C129      1.0  0.35255  0.25400  0.13093  1.0000
  H   H115      1.0  0.47679  0.37451  0.10029  1.0000
  H   H116      1.0  0.35560  0.44431  0.08436  1.0000
  N   N9        1.0  0.13603  0.43442  0.10622  1.0000
  C   C130      1.0  0.14694  0.43190  0.09302  1.0000
  C   C131      1.0  0.12004  0.43264  0.10828  1.0000
  H   H117      1.0  0.14386  0.42841  0.08414  1.0000
  H   H118      1.0  0.11970  0.42493  0.10099  1.0000
  H   H119      1.0  0.44728  0.29795  0.00182  1.0000
  H   H120      1.0  0.41480  0.28264  0.99159  1.0000
  N   N10       1.0  0.28231  0.05992  0.11170  1.0000
  C   C132      1.0  0.27667  0.06659  0.12430  1.0000
  C   C133      1.0  0.27722  0.04734  0.11130  1.0000
  C   C134      1.0  0.26575  0.06060  0.13704  1.0000
  C   C135      1.0  0.26619  0.04114  0.12377  1.0000
  C   C136      1.0  0.26052  0.04778  0.13675  1.0000
  C   C137      1.0  0.29440  0.06596  0.09897  1.0000
  H   H121      1.0  0.28085  0.07645  0.12464  1.0000
  H   H122      1.0  0.28206  0.04164  0.10159  1.0000
  H   H123      1.0  0.26178  0.06554  0.14727  1.0000
  H   H124      1.0  0.26269  0.03077  0.12367  1.0000
  H   H125      1.0  0.25250  0.04267  0.14678  1.0000
  H   H126      1.0  0.29066  0.07881  0.09507  1.0000
  H   H127      1.0  0.30544  0.06352  0.10303  1.0000
  H   H128      1.0  0.29690  0.06071  0.08879  1.0000
  C   C138      1.0  0.23345  0.46531  0.05059  1.0000
  C   C139      1.0  0.14260  0.39525  0.97885  1.0000
  H   H129      1.0  0.36296  0.39102  0.07302  1.0000
  H   H130      1.0  0.16919  0.42083  0.00572  1.0000
  S   S68       1.0  0.47792  0.30968  0.07131  1.0000
  C   C140      1.0  0.07003  0.42505  0.97748  1.0000
  C   C141      1.0  0.34924  0.27223  0.10195  1.0000
  N   N11       1.0  0.43375  0.24209  0.99901  1.0000
  H   H131      1.0  0.43599  0.23643  0.02252  1.0000
  H   H132      1.0  0.34935  0.25092  0.09645  1.0000
  H   H133      1.0  0.08715  0.37205  0.17320  1.0000
  H   H134      1.0  0.36572  0.40624  0.05574  1.0000
  N   N12       1.0  0.35135  0.24738  0.11980  1.0000
  C   C142      1.0  0.41190  0.22340  0.00922  1.0000
  H   H135      1.0  0.38233  0.39213  0.06159  1.0000
  N   N13       1.0  0.06593  0.37080  0.10056  1.0000
  C   C143      1.0  0.06313  0.36411  0.09032  1.0000
  C   C144      1.0  0.08093  0.37098  0.10043  1.0000
  C   C145      1.0  0.07550  0.35737  0.07960  1.0000
  C   C146      1.0  0.09360  0.36407  0.09005  1.0000
  C   C147      1.0  0.09082  0.35727  0.07956  1.0000
  C   C148      1.0  0.05286  0.37837  0.11138  1.0000
  H   H136      1.0  0.05128  0.36417  0.09015  1.0000
  H   H137      1.0  0.08317  0.37650  0.10836  1.0000
  H   H138      1.0  0.07313  0.35256  0.07117  1.0000
  H   H139      1.0  0.10550  0.36414  0.09000  1.0000
  H   H140      1.0  0.10052  0.35207  0.07129  1.0000
  H   H141      1.0  0.04166  0.37536  0.11201  1.0000
  H   H142      1.0  0.05505  0.37465  0.12331  1.0000
  H   H143      1.0  0.05126  0.39124  0.10752  1.0000
  H   H144      1.0  0.36010  0.23271  0.00713  1.0000
  C   C149      1.0  0.33943  0.29372  0.05852  1.0000
  N   N14       1.0  0.41257  0.30497  0.10258  1.0000
  C   C150      1.0  0.42109  0.30022  0.11383  1.0000
  C   C151      1.0  0.41437  0.31804  0.09117  1.0000
  C   C152      1.0  0.43171  0.30866  0.11388  1.0000
  C   C153      1.0  0.42486  0.32678  0.09088  1.0000
  C   C154      1.0  0.43355  0.32204  0.10235  1.0000
  C   C155      1.0  0.40053  0.29677  0.10351  1.0000
  H   H145      1.0  0.41952  0.28998  0.12299  1.0000
  H   H146      1.0  0.40750  0.32191  0.08236  1.0000
  H   H147      1.0  0.43816  0.30514  0.12303  1.0000
  H   H148      1.0  0.42595  0.33732  0.08202  1.0000
  H   H149      1.0  0.44145  0.32887  0.10255  1.0000
  C   C156      1.0  0.36811  0.16977  0.98163  1.0000
  H   H150      1.0  0.39819  0.29827  0.09190  1.0000
  H   H151      1.0  0.40432  0.28406  0.10810  1.0000
  N   N15       1.0  0.34070  0.00986  0.16440  1.0000
  H   H152      1.0  0.36423  0.22404  0.12335  1.0000
  C   C157      1.0  0.14962  0.39550  0.03622  1.0000
  H   H153      1.0  0.30399  0.37821  0.12475  1.0000
  C   C158      1.0  0.48296  0.36692  0.09229  1.0000
  C   C159      1.0  0.17036  0.43202  0.99814  1.0000
  C   C160      1.0  0.36529  0.18595  0.97919  1.0000
  H   H154      1.0  0.14231  0.43073  0.04515  1.0000
  C   C161      1.0  0.32392  0.35402  0.15173  1.0000
  H   H155      1.0  0.37205  0.43293  0.10403  1.0000
  H   H156      1.0  0.38766  0.39071  0.08722  1.0000
  C   C162      1.0  0.48120  0.41726  0.13398  1.0000
  C   C163      1.0  0.41936  0.22537  0.01967  1.0000
  C   C164      1.0  0.48811  0.25613  0.03712  1.0000
  H   H157      1.0  0.06110  0.38587  0.16717  1.0000
  Fe  Fe33      1.0  0.29670  0.09012  0.16757  1.0000
  C   C165      1.0  0.28095  0.01435  0.16014  1.0000
  C   C166      1.0  0.47450  0.29923  0.00491  1.0000
  H   H158      1.0  0.34577  0.36767  0.16607  1.0000
  S   S69       1.0  0.16933  0.47562  0.00152  1.0000
  C   C167      1.0  0.48794  0.30132  0.00785  1.0000
  C   C168      1.0  0.31515  0.35863  0.14029  1.0000
  H   H159      1.0  0.11538  0.42721  0.12051  1.0000
  C   C169      1.0  0.17270  0.43393  0.98206  1.0000
  C   C170      1.0  0.28853  0.02676  0.15603  1.0000
  H   H160      1.0  0.14708  0.41045  0.99735  1.0000
  C   C171      1.0  0.24675  0.39442  0.10970  1.0000
  C   C172      1.0  0.12943  0.43150  0.99438  1.0000
  C   C173      1.0  0.42652  0.24017  0.98870  1.0000
  H   H161      1.0  0.43805  0.29581  0.02200  1.0000
  N   N16       1.0  0.32839  0.36483  0.15626  1.0000
  H   H162      1.0  0.36756  0.16264  0.99331  1.0000
  C   C174      1.0  0.15495  0.44112  0.11542  1.0000
  H   H163      1.0  0.34511  0.34787  0.16803  1.0000
  C   C175      1.0  0.48922  0.29891  0.02314  1.0000
  H   H164      1.0  0.34830  0.27916  0.09050  1.0000
  H   H165      1.0  0.31150  0.39777  0.13374  1.0000
  H   H166      1.0  0.39366  0.25512  0.03406  1.0000
  N   N17       1.0  0.23413  0.40186  0.08824  1.0000
  C   C176      1.0  0.29825  0.02982  0.14129  1.0000
  C   C177      1.0  0.25685  0.41145  0.08600  1.0000
  C   C178      1.0  0.25766  0.40343  0.10116  1.0000
  H   H167      1.0  0.30400  0.03941  0.13791  1.0000
  C   C179      1.0  0.34996  0.25623  0.10537  1.0000
  C   C180      1.0  0.47764  0.23056  0.07189  1.0000
  H   H168      1.0  0.16730  0.44334  0.01677  1.0000
  H   H169      1.0  0.15806  0.44454  0.12436  1.0000
  Fe  Fe34      1.0  0.01477  0.37853  0.15892  1.0000
  C   C181      1.0  0.34716  0.28260  0.04953  1.0000
  H   H170      1.0  0.36267  0.19138  0.98897  1.0000
  C   C182      1.0  0.32319  0.27676  0.07516  1.0000
  C   C183      1.0  0.33073  0.26536  0.06649  1.0000
  C   C184      1.0  0.34290  0.26825  0.05370  1.0000
  H   H171      1.0  0.31376  0.27435  0.08512  1.0000
  H   H172      1.0  0.32717  0.25434  0.06977  1.0000
  H   H173      1.0  0.34903  0.25937  0.04705  1.0000
  C   C185      1.0  0.48595  0.34394  0.08288  1.0000
  H   H174      1.0  0.47614  0.26091  0.04226  1.0000
  H   H175      1.0  0.23088  0.44478  0.11547  1.0000
  C   C186      1.0  0.47705  0.29453  0.03527  1.0000
  H   H176      1.0  0.47368  0.30111  0.99296  1.0000
  H   H177      1.0  0.34301  0.30474  0.05539  1.0000
  C   C187      1.0  0.34716  0.23693  0.00953  1.0000
  H   H178      1.0  0.34437  0.24862  0.01222  1.0000
  C   C188      1.0  0.44898  0.29184  0.01369  1.0000
  C   C189      1.0  0.35002  0.27918  0.11331  1.0000
  H   H179      1.0  0.33878  0.29657  0.16285  1.0000
  C   C190      1.0  0.47405  0.23691  0.08491  1.0000
  S   S70       1.0  0.35036  0.05792  0.16568  1.0000
  H   H180      1.0  0.32683  0.38897  0.15414  1.0000
  H   H181      1.0  0.44297  0.26123  0.98363  1.0000
  S   S71       1.0  0.47668  0.25236  0.01418  1.0000
  H   H182      1.0  0.32726  0.34172  0.15687  1.0000
  Fe  Fe35      1.0  0.26974  0.47593  0.10600  1.0000
  C   C191      1.0  0.37063  0.39919  0.06595  1.0000
  H   H183      1.0  0.16589  0.37524  0.04507  1.0000
  H   H184      1.0  0.30467  0.13464  0.16775  1.0000
  C   C192      1.0  0.16096  0.38750  0.04493  1.0000
  H   H185      1.0  0.31015  0.31057  0.07573  1.0000
  H   H186      1.0  0.23745  0.47331  0.03999  1.0000
  H   H187      1.0  0.13918  0.38615  0.98920  1.0000
  H   H188      1.0  0.35371  0.24696  0.14234  1.0000
  C   C193      1.0  0.32367  0.38038  0.15022  1.0000
  H   H189      1.0  0.21880  0.38994  0.08491  1.0000
  S   S72       1.0  0.00867  0.37758  0.13712  1.0000
  H   H190      1.0  0.38947  0.30141  0.11128  1.0000
  C   C194      1.0  0.31994  0.30232  0.08067  1.0000
  C   C195      1.0  0.33769  0.35979  0.16817  1.0000
  S   S73       1.0  0.01382  0.40406  0.15199  1.0000
  H   H191      1.0  0.31189  0.34996  0.13655  1.0000
  H   H192      1.0  0.31516  0.29682  0.09287  1.0000
  C   C196      1.0  0.35180  0.27002  0.12789  1.0000
  Fe  Fe36      1.0  0.29728  0.05860  0.16173  1.0000
  C   C197      1.0  0.39499  0.27454  0.99081  1.0000
  H   H193      1.0  0.17094  0.43087  0.08071  1.0000
  H   H194      1.0  0.32825  0.30894  0.08123  1.0000
  H   H195      1.0  0.44640  0.25664  0.00276  1.0000
  C   C198      1.0  0.38100  0.40265  0.08627  1.0000
  H   H196      1.0  0.24721  0.38824  0.12153  1.0000
  C   C199      1.0  0.30026  0.02065  0.13066  1.0000
  H   H197      1.0  0.45455  0.28863  0.04142  1.0000
  C   C200      1.0  0.34936  0.99151  0.14786  1.0000
  C   C201      1.0  0.13759  0.41684  0.99156  1.0000
  H   H198      1.0  0.06180  0.41770  0.98521  1.0000
  C   C202      1.0  0.16932  0.44473  0.00440  1.0000
  C   C203      1.0  0.11707  0.43967  0.98714  1.0000
  S   S74       1.0  0.28537  0.47250  0.08309  1.0000
  C   C204      1.0  0.35254  0.00151  0.15508  1.0000
  C   C205      1.0  0.22106  0.40187  0.08191  1.0000
  C   C206      1.0  0.40515  0.26948  0.01390  1.0000
  H   H199      1.0  0.05461  0.38386  0.98278  1.0000
  H   H200      1.0  0.47530  0.28341  0.09694  1.0000
  C   C207      1.0  0.39368  0.26105  0.02222  1.0000
  H   H201      1.0  0.46199  0.24200  0.08973  1.0000
  C   C208      1.0  0.99756  0.45221  0.14541  1.0000
  H   H202      1.0  0.26511  0.41869  0.07930  1.0000
  H   H203      1.0  0.13247  0.43641  0.00230  1.0000
  C   C209      1.0  0.17089  0.45920  0.99451  1.0000
  C   C210      1.0  0.36305  0.42387  0.07462  1.0000
  C   C211      1.0  0.38324  0.26646  0.99937  1.0000
  Fe  Fe37      1.0  0.32721  0.06790  0.15909  1.0000
  C   C212      1.0  0.23485  0.39395  0.10311  1.0000
  H   H204      1.0  0.22608  0.38736  0.11003  1.0000
  H   H205      1.0  0.14582  0.38939  0.02989  1.0000
  C   C213      1.0  0.46378  0.29247  0.03192  1.0000
  H   H206      1.0  0.19597  0.29503  0.17222  1.0000
  C   C214      1.0  0.48307  0.40643  0.14784  1.0000
  C   C215      1.0  0.11312  0.43318  0.97712  1.0000
  H   H207      1.0  0.21955  0.34079  0.15918  1.0000
  H   H208      1.0  0.27341  0.01191  0.17152  1.0000
  H   H209      1.0  0.39534  0.28002  0.97872  1.0000
  H   H210      1.0  0.46740  0.35102  0.10181  1.0000
  S   S75       1.0  0.28558  0.03821  0.16951  1.0000
  H   H211      1.0  0.24401  0.31476  0.17076  1.0000
  C   C216      1.0  0.20104  0.30511  0.16960  1.0000
  H   H212      1.0  0.01000  0.45106  0.14035  1.0000
  Fe  Fe38      1.0  0.48799  0.26030  0.98928  1.0000
  H   H213      1.0  0.48192  0.33359  0.08372  1.0000
  C   C217      1.0  0.47771  0.35372  0.09314  1.0000
  H   H214      1.0  0.45736  0.24399  0.98965  1.0000
  H   H215      1.0  0.33042  0.21402  0.98019  1.0000
  C   C218      1.0  0.33300  0.22441  0.98143  1.0000
  H   H216      1.0  0.19073  0.34443  0.16477  1.0000
  C   C219      1.0  0.21729  0.30331  0.16675  1.0000
  H   H217      1.0  0.22472  0.29171  0.16712  1.0000
  C   C220      1.0  0.19815  0.33285  0.16524  1.0000
  H   H218      1.0  0.48812  0.43762  0.11798  1.0000
  H   H219      1.0  0.35455  0.02498  0.16495  1.0000
  C   C221      1.0  0.33957  0.25084  0.98485  1.0000
  C   C222      1.0  0.48925  0.42930  0.12884  1.0000
  H   H220      1.0  0.14936  0.38660  0.17175  1.0000
  C   C223      1.0  0.32565  0.00809  0.16726  1.0000
  H   H221      1.0  0.31028  0.99645  0.16277  1.0000
  C   C224      1.0  0.34429  0.02004  0.17210  1.0000
  C   C225      1.0  0.06662  0.38429  0.97695  1.0000
  C   C226      1.0  0.17347  0.46092  0.97851  1.0000
  H   H222      1.0  0.48699  0.38779  0.17402  1.0000
  H   H223      1.0  0.35870  0.98481  0.14049  1.0000
  H   H224      1.0  0.99358  0.44154  0.12914  1.0000
  Fe  Fe39      1.0  0.36491  0.13218  0.33154  1.0000
  S   S76       1.0  0.36562  0.10843  0.34705  1.0000
  S   S77       1.0  0.34229  0.14269  0.32357  1.0000
  Fe  Fe40      1.0  0.39635  0.13367  0.33626  1.0000
  S   S78       1.0  0.39913  0.11019  0.35228  1.0000
  S   S79       1.0  0.41535  0.14717  0.32913  1.0000
  Fe  Fe41      1.0  0.39083  0.10328  0.33495  1.0000
  S   S80       1.0  0.40404  0.08262  0.32464  1.0000
  Fe  Fe42      1.0  0.37355  0.11808  0.36264  1.0000
  C   C227      1.0  0.02201  0.47571  0.30170  1.0000
  S   S81       1.0  0.38962  0.12631  0.31812  1.0000
  S   S82       1.0  0.37144  0.14225  0.34788  1.0000
  H   H225      1.0  0.33222  0.12399  0.35427  1.0000
  C   C228      1.0  0.38234  0.02733  0.22013  1.0000
  H   H226      1.0  0.47601  0.05500  0.24232  1.0000
  Fe  Fe43      1.0  0.07109  0.44252  0.32913  1.0000
  S   S83       1.0  0.04662  0.44413  0.32799  1.0000
  S   S84       1.0  0.08916  0.42647  0.31488  1.0000
  Fe  Fe44      1.0  0.06032  0.46523  0.35085  1.0000
  S   S85       1.0  0.03488  0.46814  0.35137  1.0000
  Fe  Fe45      1.0  0.04088  0.44229  0.35358  1.0000
  C   C229      1.0  0.29139  0.21786  0.17835  1.0000
  S   S86       1.0  0.29607  0.24555  0.18071  1.0000
  S   S87       1.0  0.06840  0.46852  0.32495  1.0000
  S   S88       1.0  0.06573  0.43899  0.35510  1.0000
  C   C230      1.0  0.04878  0.14475  0.34436  1.0000
  Fe  Fe46      1.0  0.29393  0.12874  0.24880  1.0000
  S   S89       1.0  0.27459  0.14994  0.24558  1.0000
  S   S90       1.0  0.29377  0.10490  0.24669  1.0000
  Fe  Fe47      1.0  0.31561  0.14669  0.25236  1.0000
  S   S91       1.0  0.29840  0.16966  0.24896  1.0000
  S   S92       1.0  0.34021  0.14254  0.25541  1.0000
  Fe  Fe48      1.0  0.28080  0.15595  0.26482  1.0000
  S   S93       1.0  0.26336  0.16653  0.28389  1.0000
  Fe  Fe49      1.0  0.29365  0.16182  0.23001  1.0000
  S   S94       1.0  0.29038  0.17500  0.20599  1.0000
  S   S95       1.0  0.29841  0.13356  0.26960  1.0000
  S   S96       1.0  0.31254  0.14009  0.23192  1.0000
  Fe  Fe50      1.0  0.37802  0.06731  0.26119  1.0000
  S   S97       1.0  0.37797  0.08996  0.24393  1.0000
  S   S98       1.0  0.36510  0.06758  0.28573  1.0000
  Fe  Fe51      1.0  0.39540  0.04831  0.23702  1.0000
  S   S99       1.0  0.39710  0.06925  0.21749  1.0000
  C   C231      1.0  0.37219  0.00597  0.21888  1.0000
  Fe  Fe52      1.0  0.40277  0.07909  0.23448  1.0000
  S   S100      1.0  0.42081  0.09352  0.22664  1.0000
  Fe  Fe53      1.0  0.37211  0.07818  0.22868  1.0000
  S   S101      1.0  0.35233  0.09066  0.21675  1.0000
  S   S102      1.0  0.40346  0.05717  0.25307  1.0000
  S   S103      1.0  0.36988  0.05635  0.24686  1.0000
  H   H227      1.0  0.07914  0.39973  0.20644  1.0000
  H   H228      1.0  0.07510  0.99994  0.34077  1.0000
  H   H229      1.0  0.01111  0.07393  0.37203  1.0000
  H   H230      1.0  0.42269  0.10298  0.29710  1.0000
  C   C232      1.0  0.02110  0.47893  0.28616  1.0000
  H   H231      1.0  0.46348  0.10052  0.24434  1.0000
  C   C233      1.0  0.16324  0.04034  0.35898  1.0000
  H   H232      1.0  0.40692  0.03577  0.30709  1.0000
  Fe  Fe54      1.0  0.06735  0.37916  0.26734  1.0000
  S   S104      1.0  0.09125  0.36499  0.25949  1.0000
  S   S105      1.0  0.05859  0.38611  0.29053  1.0000
  Fe  Fe55      1.0  0.05547  0.37659  0.24018  1.0000
  S   S106      1.0  0.07833  0.36182  0.23044  1.0000
  S   S107      1.0  0.03418  0.38575  0.22964  1.0000
  Fe  Fe56      1.0  0.07829  0.34952  0.25538  1.0000
  S   S108      1.0  0.08502  0.32350  0.26404  1.0000
  Fe  Fe57      1.0  0.08904  0.37862  0.23548  1.0000
  S   S109      1.0  0.10697  0.39071  0.21775  1.0000
  S   S110      1.0  0.05442  0.36287  0.26459  1.0000
  S   S111      1.0  0.06610  0.39431  0.24373  1.0000
  H   H233      1.0  0.43034  0.04122  0.21746  1.0000
  H   H234      1.0  0.28264  0.13317  0.19598  1.0000
  S   S112      1.0  0.10243  0.04983  0.35152  1.0000
  C   C234      1.0  0.03663  0.25469  0.31557  1.0000
  N   N18       1.0  0.45819  0.04524  0.24036  1.0000
  H   H235      1.0  0.03821  0.41476  0.20610  1.0000
  Fe  Fe58      1.0  0.11608  0.06160  0.35984  1.0000
  S   S113      1.0  0.13460  0.07470  0.34510  1.0000
  H   H236      1.0  0.43295  0.02132  0.29506  1.0000
  C   C235      1.0  0.39345  0.00087  0.23193  1.0000
  Fe  Fe59      1.0  0.16031  0.13768  0.36506  1.0000
  S   S114      1.0  0.16589  0.15684  0.34454  1.0000
  H   H237      1.0  0.05274  0.45887  0.25337  1.0000
  C   C236      1.0  0.40794  0.02978  0.29808  1.0000
  S   S115      1.0  0.19811  0.15333  0.35630  1.0000
  Fe  Fe60      1.0  0.17286  0.16606  0.36124  1.0000
  S   S116      1.0  0.35814  0.99934  0.21418  1.0000
  Fe  Fe61      1.0  0.19051  0.14240  0.34144  1.0000
  S   S117      1.0  0.20546  0.13548  0.31935  1.0000
  C   C237      1.0  0.15934  0.01445  0.36625  1.0000
  H   H238      1.0  0.47446  0.08752  0.29807  1.0000
  S   S118      1.0  0.08550  0.26247  0.36021  1.0000
  Fe  Fe62      1.0  0.04814  0.25084  0.35815  1.0000
  S   S119      1.0  0.06633  0.25728  0.33692  1.0000
  H   H239      1.0  0.04449  0.40646  0.18090  1.0000
  Fe  Fe63      1.0  0.08346  0.24252  0.35168  1.0000
  S   S120      1.0  0.10255  0.22468  0.34065  1.0000
  Fe  Fe64      1.0  0.06666  0.27651  0.34738  1.0000
  S   S121      1.0  0.06390  0.30215  0.33676  1.0000
  C   C238      1.0  0.07982  0.38123  0.17902  1.0000
  H   H240      1.0  0.13522  0.34393  0.19720  1.0000
  H   H241      1.0  0.40714  0.17995  0.34505  1.0000
  H   H242      1.0  0.30029  0.22397  0.20935  1.0000
  Fe  Fe65      1.0  0.04333  0.46962  0.32585  1.0000
  S   S122      1.0  0.04685  0.27141  0.36735  1.0000
  C   C239      1.0  0.02513  0.22881  0.35372  1.0000
  C   C240      1.0  0.03883  0.21984  0.34637  1.0000
  C   C241      1.0  0.03824  0.20630  0.34237  1.0000
  C   C242      1.0  0.02410  0.20137  0.34626  1.0000
  C   C243      1.0  0.01055  0.21005  0.35413  1.0000
  C   C244      1.0  0.07557  0.10526  0.34674  1.0000
  H   H243      1.0  0.04980  0.22349  0.34346  1.0000
  H   H244      1.0  0.04876  0.19959  0.33633  1.0000
  H   H245      1.0  0.41100  0.00819  0.26647  1.0000
  C   C245      1.0  0.29024  0.20222  0.18411  1.0000
  C   C246      1.0  0.14806  0.20132  0.35739  1.0000
  C   C247      1.0  0.14516  0.19774  0.34481  1.0000
  C   C248      1.0  0.13143  0.20548  0.33945  1.0000
  C   C249      1.0  0.12042  0.21684  0.34666  1.0000
  C   C250      1.0  0.12348  0.22085  0.35897  1.0000
  C   C251      1.0  0.13735  0.21315  0.36427  1.0000
  H   H246      1.0  0.15359  0.18914  0.33902  1.0000
  H   H247      1.0  0.12924  0.20250  0.32978  1.0000
  Fe  Fe66      1.0  0.48220  0.99087  0.23592  1.0000
  H   H248      1.0  0.42098  0.12387  0.29156  1.0000
  C   C252      1.0  0.31077  0.14609  0.18208  1.0000
  H   H249      1.0  0.04961  0.26975  0.28758  1.0000
  S   S123      1.0  0.06435  0.47790  0.36670  1.0000
  H   H250      1.0  0.38209  0.03964  0.21737  1.0000
  H   H251      1.0  0.45776  0.02171  0.25213  1.0000
  H   H252      1.0  0.04040  0.44113  0.24715  1.0000
  H   H253      1.0  0.12962  0.40061  0.19074  1.0000
  C   C253      1.0  0.14189  0.38034  0.18132  1.0000
  C   C254      1.0  0.13525  0.09056  0.35204  1.0000
  S   S124      1.0  0.00704  0.14720  0.35846  1.0000
  C   C255      1.0  0.00883  0.45450  0.30746  1.0000
  C   C256      1.0  0.13661  0.11554  0.36345  1.0000
  C   C257      1.0  0.15000  0.10799  0.35428  1.0000
  C   C258      1.0  0.14929  0.09555  0.34853  1.0000
  C   C259      1.0  0.45294  0.05759  0.22930  1.0000
  C   C260      1.0  0.04679  0.14711  0.35919  1.0000
  H   H254      1.0  0.16088  0.11173  0.35154  1.0000
  H   H255      1.0  0.15966  0.08975  0.34144  1.0000
  C   C261      1.0  0.39300  0.01682  0.22857  1.0000
  H   H256      1.0  0.99502  0.10936  0.35428  1.0000
  S   S125      1.0  0.02580  0.42541  0.36773  1.0000
  H   H257      1.0  0.34560  0.14454  0.20151  1.0000
  C   C262      1.0  0.45167  0.08933  0.31355  1.0000
  H   H258      1.0  0.07753  0.09584  0.35709  1.0000
  H   H259      1.0  0.37695  0.01206  0.28471  1.0000
  C   C263      1.0  0.07877  0.31742  0.28419  1.0000
  C   C264      1.0  0.08232  0.30157  0.29132  1.0000
  C   C265      1.0  0.07770  0.29666  0.30751  1.0000
  C   C266      1.0  0.06940  0.30761  0.31651  1.0000
  C   C267      1.0  0.06565  0.32339  0.30934  1.0000
  C   C268      1.0  0.07050  0.32829  0.29325  1.0000
  H   H260      1.0  0.08881  0.29312  0.28434  1.0000
  H   H261      1.0  0.08068  0.28446  0.31299  1.0000
  H   H262      1.0  0.05920  0.33190  0.31625  1.0000
  H   H263      1.0  0.06798  0.34055  0.28794  1.0000
  C   C269      1.0  0.36386  0.06216  0.18683  1.0000
  Fe  Fe67      1.0  0.48524  0.08485  0.26120  1.0000
  C   C270      1.0  0.13076  0.38825  0.19214  1.0000
  C   C271      1.0  0.12115  0.38025  0.20475  1.0000
  C   C272      1.0  0.12274  0.36425  0.20653  1.0000
  C   C273      1.0  0.13396  0.35631  0.19575  1.0000
  H   H264      1.0  0.00417  0.44500  0.31574  1.0000
  C   C274      1.0  0.11797  0.16982  0.35040  1.0000
  H   H265      1.0  0.11541  0.35797  0.21625  1.0000
  H   H266      1.0  0.09617  0.37927  0.19283  1.0000
  H   H267      1.0  0.20261  0.08672  0.34965  1.0000
  C   C275      1.0  0.02402  0.38784  0.20376  1.0000
  C   C276      1.0  0.03482  0.37947  0.21301  1.0000
  C   C277      1.0  0.04565  0.36626  0.20895  1.0000
  C   C278      1.0  0.04558  0.36142  0.19574  1.0000
  H   H268      1.0  0.38330  0.03625  0.29860  1.0000
  S   S126      1.0  0.00477  0.47127  0.24247  1.0000
  H   H269      1.0  0.05395  0.35964  0.21607  1.0000
  S   S127      1.0  0.47403  0.98788  0.26167  1.0000
  C   C279      1.0  0.05826  0.13085  0.34050  1.0000
  C   C280      1.0  0.16898  0.03792  0.37227  1.0000
  H   H270      1.0  0.38337  0.98314  0.22987  1.0000
  H   H271      1.0  0.43864  0.06625  0.21223  1.0000
  C   C281      1.0  0.35185  0.08132  0.20274  1.0000
  C   C282      1.0  0.36428  0.06935  0.19828  1.0000
  H   H272      1.0  0.16182  0.02721  0.33288  1.0000
  C   C283      1.0  0.03464  0.36972  0.18660  1.0000
  C   C284      1.0  0.01567  0.46364  0.31238  1.0000
  C   C285      1.0  0.33888  0.08594  0.19594  1.0000
  H   H273      1.0  0.37431  0.06573  0.20347  1.0000
  H   H274      1.0  0.32925  0.02329  0.21250  1.0000
  C   C286      1.0  0.35102  0.06701  0.17981  1.0000
  H   H275      1.0  0.32900  0.09487  0.19972  1.0000
  C   C287      1.0  0.43142  0.09102  0.24064  1.0000
  C   C288      1.0  0.42706  0.08245  0.25571  1.0000
  C   C289      1.0  0.43620  0.07988  0.26653  1.0000
  C   C290      1.0  0.44953  0.08606  0.26234  1.0000
  C   C291      1.0  0.45349  0.09523  0.24749  1.0000
  C   C292      1.0  0.44449  0.09763  0.23661  1.0000
  H   H276      1.0  0.41663  0.07791  0.25910  1.0000
  H   H277      1.0  0.43317  0.07285  0.27801  1.0000
  H   H278      1.0  0.01528  0.38939  0.18385  1.0000
  H   H279      1.0  0.44777  0.10450  0.22502  1.0000
  C   C293      1.0  0.24747  0.15764  0.29377  1.0000
  C   C294      1.0  0.24519  0.14528  0.28917  1.0000
  C   C295      1.0  0.23221  0.13861  0.29706  1.0000
  C   C296      1.0  0.22153  0.14420  0.30963  1.0000
  C   C297      1.0  0.22380  0.15660  0.31418  1.0000
  C   C298      1.0  0.23672  0.16333  0.30624  1.0000
  H   H280      1.0  0.25340  0.14086  0.27954  1.0000
  H   H281      1.0  0.23047  0.12905  0.29346  1.0000
  H   H282      1.0  0.21551  0.16113  0.32368  1.0000
  H   H283      1.0  0.23840  0.17297  0.30974  1.0000
  C   C299      1.0  0.29117  0.10618  0.22808  1.0000
  C   C300      1.0  0.29247  0.09268  0.22304  1.0000
  C   C301      1.0  0.29109  0.09375  0.20790  1.0000
  C   C302      1.0  0.28770  0.10837  0.19804  1.0000
  C   C303      1.0  0.28574  0.12183  0.20336  1.0000
  C   C304      1.0  0.28784  0.12075  0.21816  1.0000
  H   H284      1.0  0.29438  0.08145  0.23088  1.0000
  H   H285      1.0  0.29212  0.08334  0.20403  1.0000
  C   C305      1.0  0.10247  0.18870  0.36642  1.0000
  H   H286      1.0  0.28663  0.13124  0.22194  1.0000
  H   H287      1.0  0.00052  0.38945  0.25118  1.0000
  C   C306      1.0  0.44180  0.09554  0.32600  1.0000
  C   C307      1.0  0.39462  0.03001  0.29322  1.0000
  C   C308      1.0  0.29272  0.19437  0.19896  1.0000
  C   C309      1.0  0.29641  0.20221  0.20803  1.0000
  C   C310      1.0  0.29746  0.21791  0.20230  1.0000
  C   C311      1.0  0.03772  0.09609  0.36704  1.0000
  H   H288      1.0  0.11085  0.09503  0.36322  1.0000
  H   H289      1.0  0.29845  0.19624  0.21945  1.0000
  H   H290      1.0  0.32983  0.35976  0.17982  1.0000
  H   H291      1.0  0.38845  0.11775  0.24824  1.0000
  H   H292      1.0  0.05578  0.45494  0.28038  1.0000
  S   S128      1.0  0.11986  0.00438  0.36674  1.0000
  C   C312      1.0  0.45346  0.03155  0.24351  1.0000
  Fe  Fe68      1.0  0.00478  0.17248  0.35730  1.0000
  S   S129      1.0  0.28553  0.11038  0.17914  1.0000
  H   H293      1.0  0.05380  0.41505  0.21397  1.0000
  H   H294      1.0  0.10213  0.99026  0.33663  1.0000
  C   C313      1.0  0.33853  0.07891  0.18439  1.0000
  C   C314      1.0  0.08111  0.41483  0.30812  1.0000
  C   C315      1.0  0.08809  0.41080  0.29369  1.0000
  C   C316      1.0  0.08140  0.40193  0.28806  1.0000
  C   C317      1.0  0.06786  0.39683  0.29702  1.0000
  C   C318      1.0  0.06119  0.40047  0.31162  1.0000
  C   C319      1.0  0.06773  0.40948  0.31710  1.0000
  H   H295      1.0  0.09850  0.41483  0.28671  1.0000
  H   H296      1.0  0.08663  0.39919  0.27677  1.0000
  H   H297      1.0  0.05073  0.39656  0.31861  1.0000
  H   H298      1.0  0.06237  0.41230  0.32830  1.0000
  H   H299      1.0  0.40173  0.99272  0.23841  1.0000
  C   C320      1.0  0.39304  0.07789  0.31441  1.0000
  C   C321      1.0  0.40080  0.07114  0.30167  1.0000
  C   C322      1.0  0.39227  0.06850  0.29249  1.0000
  C   C323      1.0  0.37591  0.07178  0.29654  1.0000
  C   C324      1.0  0.36811  0.07815  0.30954  1.0000
  C   C325      1.0  0.37666  0.08152  0.31826  1.0000
  H   H300      1.0  0.41344  0.06823  0.29879  1.0000
  H   H301      1.0  0.39840  0.06359  0.28253  1.0000
  H   H302      1.0  0.35546  0.08056  0.31283  1.0000
  H   H303      1.0  0.37058  0.08660  0.32816  1.0000
  C   C326      1.0  0.34204  0.14263  0.30453  1.0000
  C   C327      1.0  0.32760  0.14641  0.30025  1.0000
  C   C328      1.0  0.32697  0.14655  0.28515  1.0000
  C   C329      1.0  0.34080  0.14307  0.27419  1.0000
  C   C330      1.0  0.35526  0.13938  0.27840  1.0000
  C   C331      1.0  0.35590  0.13900  0.29361  1.0000
  H   H304      1.0  0.31686  0.14934  0.30862  1.0000
  H   H305      1.0  0.31577  0.14956  0.28196  1.0000
  H   H306      1.0  0.36595  0.13704  0.26983  1.0000
  H   H307      1.0  0.36708  0.13627  0.29676  1.0000
  C   C332      1.0  0.42753  0.14403  0.34204  1.0000
  C   C333      1.0  0.44016  0.15141  0.33738  1.0000
  C   C334      1.0  0.44952  0.14990  0.34776  1.0000
  C   C335      1.0  0.44616  0.14114  0.36291  1.0000
  H   H308      1.0  0.99381  0.08957  0.35601  1.0000
  C   C336      1.0  0.42442  0.13492  0.35708  1.0000
  H   H309      1.0  0.44257  0.15854  0.32579  1.0000
  H   H310      1.0  0.45901  0.15596  0.34419  1.0000
  C   C337      1.0  0.46798  0.11569  0.33460  1.0000
  H   H311      1.0  0.41459  0.12935  0.36086  1.0000
  C   C338      1.0  0.05055  0.41607  0.20291  1.0000
  H   H312      1.0  0.30939  0.14519  0.36034  1.0000
  N   N19       1.0  0.25327  0.19202  0.24496  1.0000
  C   C339      1.0  0.25643  0.19115  0.22975  1.0000
  C   C340      1.0  0.24278  0.18424  0.25585  1.0000
  C   C341      1.0  0.24970  0.18161  0.22524  1.0000
  C   C342      1.0  0.23583  0.17457  0.25178  1.0000
  C   C343      1.0  0.23941  0.17320  0.23637  1.0000
  C   C344      1.0  0.26069  0.20182  0.24954  1.0000
  H   H313      1.0  0.26443  0.19762  0.22104  1.0000
  H   H314      1.0  0.23997  0.18522  0.26785  1.0000
  H   H315      1.0  0.25281  0.18051  0.21325  1.0000
  H   H316      1.0  0.22797  0.16797  0.26060  1.0000
  H   H317      1.0  0.23438  0.16549  0.23308  1.0000
  H   H318      1.0  0.27207  0.20322  0.24140  1.0000
  H   H319      1.0  0.25285  0.21349  0.24974  1.0000
  H   H320      1.0  0.26332  0.19639  0.26123  1.0000
  S   S130      1.0  0.02512  0.24642  0.35790  1.0000
  H   H321      1.0  0.43678  0.11094  0.28125  1.0000
  H   H322      1.0  0.08605  0.00949  0.37098  1.0000
  H   H323      1.0  0.34307  0.03095  0.25456  1.0000
  C   C345      1.0  0.10741  0.99192  0.36872  1.0000
  C   C346      1.0  0.20822  0.18185  0.36910  1.0000
  S   S131      1.0  0.01791  0.44632  0.20940  1.0000
  H   H324      1.0  0.08712  0.10741  0.33963  1.0000
  H   H325      1.0  0.05656  0.40649  0.36007  1.0000
  C   C347      1.0  0.02381  0.38291  0.19072  1.0000
  C   C348      1.0  0.07514  0.39677  0.19781  1.0000
  H   H326      1.0  0.38014  0.10659  0.27651  1.0000
  H   H327      1.0  0.11567  0.15788  0.35476  1.0000
  H   H328      1.0  0.02555  0.43328  0.18224  1.0000
  H   H329      1.0  0.44509  0.98585  0.20621  1.0000
  H   H330      1.0  0.06694  0.99664  0.32654  1.0000
  S   S132      1.0  0.30632  0.06546  0.17861  1.0000
  H   H331      1.0  0.43001  0.09351  0.33040  1.0000
  C   C349      1.0  0.02954  0.41671  0.26660  1.0000
  H   H332      1.0  0.03397  0.41593  0.29412  1.0000
  H   H333      1.0  0.03188  0.30202  0.32680  1.0000
  H   H334      1.0  0.01344  0.47236  0.26927  1.0000
  S   S133      1.0  0.18415  0.12236  0.36059  1.0000
  C   C350      1.0  0.46674  0.09215  0.30787  1.0000
  C   C351      1.0  0.00448  0.42695  0.18204  1.0000
  C   C352      1.0  0.44343  0.02987  0.23529  1.0000
  H   H335      1.0  0.05279  0.29706  0.27995  1.0000
  C   C353      1.0  0.04712  0.29231  0.29174  1.0000
  C   C354      1.0  0.03356  0.27972  0.32202  1.0000
  H   H336      1.0  0.34291  0.12507  0.21105  1.0000
  H   H337      1.0  0.33898  0.10100  0.37510  1.0000
  H   H338      1.0  0.43990  0.01892  0.23759  1.0000
  C   C355      1.0  0.43369  0.13353  0.36750  1.0000
  H   H339      1.0  0.03536  0.09536  0.35639  1.0000
  C   C356      1.0  0.04532  0.27689  0.29615  1.0000
  H   H340      1.0  0.99959  0.20633  0.35716  1.0000
  H   H341      1.0  0.16243  0.05167  0.35107  1.0000
  H   H342      1.0  0.09423  0.19301  0.35886  1.0000
  S   S134      1.0  0.99967  0.44573  0.28613  1.0000
  H   H343      1.0  0.03131  0.41793  0.25390  1.0000
  H   H344      1.0  0.46712  0.12782  0.32767  1.0000
  S   S135      1.0  0.48492  0.01397  0.22026  1.0000
  C   C357      1.0  0.12598  0.17206  0.37278  1.0000
  Fe  Fe69      1.0  0.10869  0.02889  0.37012  1.0000
  C   C358      1.0  0.12252  0.11075  0.36668  1.0000
  C   C359      1.0  0.01101  0.22389  0.35758  1.0000
  C   C360      1.0  0.04517  0.43508  0.28891  1.0000
  C   C361      1.0  0.00799  0.45761  0.29192  1.0000
  S   S136      1.0  0.46155  0.08185  0.27546  1.0000
  C   C362      1.0  0.12184  0.09833  0.36098  1.0000
  C   C363      1.0  0.05437  0.13568  0.36990  1.0000
  N   N20       1.0  0.03830  0.27091  0.31106  1.0000
  C   C364      1.0  0.41006  0.01448  0.27523  1.0000
  N   N21       1.0  0.46226  0.10661  0.32740  1.0000
  S   S137      1.0  0.40556  0.02353  0.23525  1.0000
  C   C365      1.0  0.21916  0.09869  0.35127  1.0000
  H   H345      1.0  0.14730  0.04397  0.33816  1.0000
  C   C366      1.0  0.47182  0.10099  0.31488  1.0000
  C   C367      1.0  0.38165  0.02233  0.27739  1.0000
  C   C368      1.0  0.37211  0.02188  0.21505  1.0000
  H   H346      1.0  0.02550  0.25347  0.32424  1.0000
  C   C369      1.0  0.04885  0.44933  0.26231  1.0000
  H   H347      1.0  0.04651  0.24712  0.32083  1.0000
  H   H348      1.0  0.31944  0.15423  0.19707  1.0000
  C   C370      1.0  0.05057  0.44714  0.27744  1.0000
  H   H349      1.0  0.01676  0.41925  0.27169  1.0000
  H   H350      1.0  0.04614  0.43347  0.30074  1.0000
  S   S138      1.0  0.02342  0.18458  0.34093  1.0000
  H   H351      1.0  0.03925  0.15774  0.36238  1.0000
  H   H352      1.0  0.13030  0.16895  0.34375  1.0000
  H   H353      1.0  0.45654  0.06851  0.22689  1.0000
  Fe  Fe70      1.0  0.99289  0.45576  0.26324  1.0000
  H   H354      1.0  0.38422  0.02161  0.26502  1.0000
  N   N22       1.0  0.07070  0.39013  0.37470  1.0000
  H   H355      1.0  0.46123  0.11591  0.34667  1.0000
  H   H356      1.0  0.03639  0.25038  0.30551  1.0000
  C   C371      1.0  0.03530  0.29514  0.31803  1.0000
  H   H357      1.0  0.04287  0.15362  0.33599  1.0000
  H   H358      1.0  0.05969  0.12906  0.32898  1.0000
  H   H359      1.0  0.44761  0.08240  0.30826  1.0000
  C   C372      1.0  0.34603  0.13296  0.19959  1.0000
  H   H360      1.0  0.01579  0.39824  0.20665  1.0000
  H   H361      1.0  0.00313  0.37670  0.23055  1.0000
  N   N23       1.0  0.06073  0.40410  0.19463  1.0000
  N   N24       1.0  0.15834  0.02872  0.35623  1.0000
  H   H362      1.0  0.07738  0.40448  0.35235  1.0000
  H   H363      1.0  0.03465  0.40439  0.27159  1.0000
  C   C373      1.0  0.03828  0.42520  0.28508  1.0000
  H   H364      1.0  0.31633  0.04126  0.20605  1.0000
  N   N25       1.0  0.33516  0.13407  0.19001  1.0000
  H   H365      1.0  0.02855  0.27478  0.33398  1.0000
  H   H366      1.0  0.04336  0.31344  0.29947  1.0000
  C   C374      1.0  0.04187  0.43924  0.25888  1.0000
  H   H367      1.0  0.36400  0.03004  0.20839  1.0000
  N   N26       1.0  0.03692  0.42721  0.27018  1.0000
  C   C375      1.0  0.46826  0.04697  0.24944  1.0000
  H   H368      1.0  0.37254  0.03313  0.27875  1.0000
  S   S139      1.0  0.05933  0.06907  0.36469  1.0000
  H   H369      1.0  0.35830  0.12815  0.19405  1.0000
  Fe  Fe71      1.0  0.48274  0.13579  0.36771  1.0000
  H   H370      1.0  0.01595  0.46138  0.32449  1.0000
  H   H371      1.0  0.43954  0.10913  0.34241  1.0000
  H   H372      1.0  0.42979  0.12466  0.25653  1.0000
  C   C376      1.0  0.99322  0.40010  0.24523  1.0000
  N   N27       1.0  0.39582  0.02254  0.28182  1.0000
  C   C377      1.0  0.42253  0.02174  0.29129  1.0000
  C   C378      1.0  0.44730  0.10429  0.33278  1.0000
  C   C379      1.0  0.08486  0.38520  0.19010  1.0000
  C   C380      1.0  0.04188  0.30151  0.30273  1.0000
  C   C381      1.0  0.21008  0.08746  0.35664  1.0000
  C   C382      1.0  0.02922  0.10848  0.37416  1.0000
  N   N28       1.0  0.33144  0.10148  0.26855  1.0000
  C   C383      1.0  0.34098  0.10546  0.27524  1.0000
  C   C384      1.0  0.31814  0.09668  0.27739  1.0000
  C   C385      1.0  0.33690  0.10547  0.29106  1.0000
  C   C386      1.0  0.31371  0.09651  0.29328  1.0000
  C   C387      1.0  0.32312  0.10106  0.30010  1.0000
  C   C388      1.0  0.33583  0.10175  0.25192  1.0000
  H   H373      1.0  0.35164  0.10904  0.26827  1.0000
  H   H374      1.0  0.31064  0.09340  0.27209  1.0000
  H   H375      1.0  0.34428  0.10909  0.29621  1.0000
  H   H376      1.0  0.30292  0.09313  0.30015  1.0000
  H   H377      1.0  0.31975  0.10125  0.31233  1.0000
  H   H378      1.0  0.34237  0.11104  0.24539  1.0000
  H   H379      1.0  0.34320  0.09031  0.24993  1.0000
  H   H380      1.0  0.32536  0.10428  0.24695  1.0000
  C   C389      1.0  0.43812  0.04238  0.22392  1.0000
  H   H381      1.0  0.05111  0.42788  0.19556  1.0000
  H   H382      1.0  0.13618  0.16289  0.37041  1.0000
  H   H383      1.0  0.14263  0.02521  0.34477  1.0000
  S   S140      1.0  0.16464  0.19063  0.36502  1.0000
  C   C390      1.0  0.44284  0.05636  0.22091  1.0000
  H   H384      1.0  0.06959  0.11310  0.37410  1.0000
  C   C391      1.0  0.01360  0.43276  0.18820  1.0000
  C   C392      1.0  0.29492  0.22580  0.18745  1.0000
  H   H385      1.0  0.05397  0.35119  0.19264  1.0000
  C   C393      1.0  0.32495  0.12296  0.36591  1.0000
  H   H386      1.0  0.15542  0.00524  0.36409  1.0000
  H   H387      1.0  0.34695  0.01338  0.18352  1.0000
  C   C394      1.0  0.01399  0.46992  0.28128  1.0000
  H   H388      1.0  0.13958  0.21608  0.37394  1.0000
  H   H389      1.0  0.46101  0.05175  0.25965  1.0000
  N   N29       1.0  0.32894  0.04232  0.22189  1.0000
  C   C395      1.0  0.32396  0.05795  0.22130  1.0000
  C   C396      1.0  0.33562  0.03265  0.23374  1.0000
  C   C397      1.0  0.32576  0.06434  0.23268  1.0000
  C   C398      1.0  0.33754  0.03864  0.24535  1.0000
  C   C399      1.0  0.33255  0.05460  0.24478  1.0000
  C   C400      1.0  0.32789  0.03615  0.20922  1.0000
  H   H390      1.0  0.31875  0.06562  0.21186  1.0000
  H   H391      1.0  0.33972  0.02026  0.23416  1.0000
  H   H392      1.0  0.32219  0.07684  0.23192  1.0000
  H   H393      1.0  0.00111  0.40790  0.23772  1.0000
  H   H394      1.0  0.33409  0.05948  0.25358  1.0000
  N   N30       1.0  0.22855  0.09004  0.37489  1.0000
  H   H395      1.0  0.06994  0.10074  0.34014  1.0000
  C   C401      1.0  0.33794  0.12298  0.18166  1.0000
  C   C402      1.0  0.38301  0.99546  0.22715  1.0000
  C   C403      1.0  0.08166  0.98733  0.37148  1.0000
  Fe  Fe72      1.0  0.00094  0.45631  0.22888  1.0000
  C   C404      1.0  0.42362  0.01403  0.27981  1.0000
  S   S141      1.0  0.06500  0.23480  0.37232  1.0000
  H   H396      1.0  0.02019  0.11701  0.36915  1.0000
  C   C405      1.0  0.40528  0.17351  0.35702  1.0000
  H   H397      1.0  0.41331  0.12692  0.23836  1.0000
  C   C406      1.0  0.06388  0.12199  0.36562  1.0000
  H   H398      1.0  0.41673  0.98794  0.20879  1.0000
  C   C407      1.0  0.04912  0.08456  0.37373  1.0000
  H   H399      1.0  0.21878  0.10669  0.34008  1.0000
  H   H400      1.0  0.32853  0.08270  0.17911  1.0000
  N   N31       1.0  0.11539  0.17710  0.36348  1.0000
  H   H401      1.0  0.33731  0.03902  0.19890  1.0000
  N   N32       1.0  0.10277  0.32762  0.30442  1.0000
  C   C408      1.0  0.10213  0.34189  0.29445  1.0000
  C   C409      1.0  0.09486  0.32638  0.31959  1.0000
  C   C410      1.0  0.09285  0.35534  0.29942  1.0000
  C   C411      1.0  0.08537  0.33959  0.32490  1.0000
  C   C412      1.0  0.08428  0.35414  0.31468  1.0000
  C   C413      1.0  0.11238  0.31369  0.29885  1.0000
  H   H402      1.0  0.10857  0.34288  0.28249  1.0000
  H   H403      1.0  0.09530  0.31507  0.32752  1.0000
  H   H404      1.0  0.09207  0.36663  0.29143  1.0000
  H   H405      1.0  0.07861  0.33844  0.33676  1.0000
  H   H406      1.0  0.07671  0.36449  0.31844  1.0000
  H   H407      1.0  0.11146  0.31450  0.28681  1.0000
  H   H408      1.0  0.12482  0.31240  0.29899  1.0000
  H   H409      1.0  0.10835  0.30301  0.30610  1.0000
  N   N33       1.0  0.41431  0.11444  0.27643  1.0000
  C   C414      1.0  0.40039  0.10977  0.28204  1.0000
  C   C415      1.0  0.41878  0.12090  0.26101  1.0000
  C   C416      1.0  0.39097  0.11068  0.27202  1.0000
  C   C417      1.0  0.40948  0.12229  0.25068  1.0000
  C   C418      1.0  0.39558  0.11698  0.25622  1.0000
  C   C419      1.0  0.42416  0.11305  0.28712  1.0000
  H   H410      1.0  0.39656  0.10523  0.29434  1.0000
  C   C420      1.0  0.22318  0.17317  0.36393  1.0000
  S   S142      1.0  0.13714  0.13070  0.37141  1.0000
  C   C421      1.0  0.05590  0.40063  0.18344  1.0000
  Fe  Fe73      1.0  0.08274  0.05758  0.37074  1.0000
  H   H411      1.0  0.19946  0.18459  0.36223  1.0000
  H   H412      1.0  0.47610  0.03566  0.25339  1.0000
  H   H413      1.0  0.11506  0.22966  0.36456  1.0000
  H   H414      1.0  0.06915  0.99172  0.37268  1.0000
  C   C422      1.0  0.15228  0.03139  0.34229  1.0000
  H   H415      1.0  0.00036  0.23077  0.36326  1.0000
  C   C423      1.0  0.22831  0.09989  0.36065  1.0000
  C   C424      1.0  0.09121  0.99742  0.37051  1.0000
  H   H416      1.0  0.23499  0.10890  0.35656  1.0000
  C   C425      1.0  0.00709  0.43823  0.20189  1.0000
  C   C426      1.0  0.21044  0.07745  0.37115  1.0000
  H   H417      1.0  0.43483  0.00740  0.27470  1.0000
  N   N34       1.0  0.06553  0.11963  0.35114  1.0000
  H   H418      1.0  0.11037  0.17675  0.34216  1.0000
  C   C427      1.0  0.06803  0.39805  0.35915  1.0000
  C   C428      1.0  0.31203  0.13487  0.36930  1.0000
  C   C429      1.0  0.07247  0.99086  0.33661  1.0000
  C   C430      1.0  0.14353  0.36435  0.18308  1.0000
  H   H419      1.0  0.06802  0.38972  0.35241  1.0000
  H   H420      1.0  0.06398  0.98520  0.34626  1.0000
  H   H421      1.0  0.42493  0.17871  0.36177  1.0000
  C   C431      1.0  0.32178  0.14553  0.19030  1.0000
  H   H422      1.0  0.48039  0.11048  0.33533  1.0000
  H   H423      1.0  0.38616  0.16523  0.35529  1.0000
  H   H424      1.0  0.37353  0.05293  0.18336  1.0000
  H   H425      1.0  0.48348  0.10329  0.31030  1.0000
  H   H426      1.0  0.34655  0.14339  0.37329  1.0000
  C   C432      1.0  0.39345  0.16508  0.36288  1.0000
  C   C433      1.0  0.41527  0.17278  0.36638  1.0000
  H   H427      1.0  0.22599  0.16930  0.35316  1.0000
  H   H428      1.0  0.11209  0.11663  0.37364  1.0000
  H   H429      1.0  0.34841  0.11373  0.18167  1.0000
  H   H430      1.0  0.24591  0.16235  0.36919  1.0000
  C   C434      1.0  0.23436  0.16931  0.37290  1.0000
  H   H431      1.0  0.30003  0.15503  0.18264  1.0000
  H   H432      1.0  0.28732  0.19624  0.17705  1.0000
  H   H433      1.0  0.17261  0.04721  0.37461  1.0000
  C   C435      1.0  0.06529  0.38905  0.17556  1.0000
  S   S143      1.0  0.49193  0.10793  0.25309  1.0000
  H   H434      1.0  0.49207  0.04420  0.20978  1.0000
  Fe  Fe74      1.0  0.26469  0.13514  0.46160  1.0000
  S   S144      1.0  0.28767  0.12556  0.44691  1.0000
  S   S145      1.0  0.25882  0.13198  0.48766  1.0000
  Fe  Fe75      1.0  0.24788  0.14601  0.43504  1.0000
  S   S146      1.0  0.26921  0.13766  0.41786  1.0000
  S   S147      1.0  0.22464  0.15764  0.42846  1.0000
  Fe  Fe76      1.0  0.27342  0.11643  0.43663  1.0000
  S   S148      1.0  0.28427  0.09339  0.43006  1.0000
  Fe  Fe77      1.0  0.28211  0.14740  0.42904  1.0000
  S   S149      1.0  0.30042  0.15965  0.41222  1.0000
  S   S150      1.0  0.25090  0.12374  0.45294  1.0000
  S   S151      1.0  0.26021  0.15803  0.44462  1.0000
  Fe  Fe78      1.0  0.29809  0.13729  0.54908  1.0000
  S   S152      1.0  0.30746  0.11220  0.55939  1.0000
  S   S153      1.0  0.30245  0.14565  0.52297  1.0000
  H   H435      1.0  0.26124  0.04104  0.46504  1.0000
  H   H436      1.0  0.24988  0.04121  0.44401  1.0000
  Fe  Fe79      1.0  0.02041  0.34053  0.44863  1.0000
  S   S154      1.0  0.03966  0.31999  0.45416  1.0000
  C   C436      1.0  0.13687  0.00352  0.42618  1.0000
  Fe  Fe80      1.0  0.04125  0.36366  0.43936  1.0000
  S   S155      1.0  0.06232  0.34499  0.44424  1.0000
  S   S156      1.0  0.04452  0.38831  0.43136  1.0000
  Fe  Fe81      1.0  0.05408  0.33154  0.43219  1.0000
  S   S157      1.0  0.06940  0.32148  0.41189  1.0000
  Fe  Fe82      1.0  0.04575  0.33545  0.46570  1.0000
  S   S158      1.0  0.04917  0.32679  0.49026  1.0000
  S   S159      1.0  0.03422  0.35094  0.42575  1.0000
  S   S160      1.0  0.02530  0.35519  0.46178  1.0000
  Fe  Fe83      1.0  0.04680  0.37757  0.54528  1.0000
  S   S161      1.0  0.02299  0.38956  0.55645  1.0000
  S   S162      1.0  0.05375  0.38008  0.51927  1.0000
  C   C437      1.0  0.22464  0.11662  0.49234  1.0000
  C   C438      1.0  0.18606  0.01118  0.45237  1.0000
  H   H437      1.0  0.14335  0.00899  0.43061  1.0000
  C   C439      1.0  0.32365  0.09527  0.40464  1.0000
  C   C440      1.0  0.04122  0.32275  0.38704  1.0000
  C   C441      1.0  0.16508  0.01163  0.37961  1.0000
  Fe  Fe84      1.0  0.18800  0.07848  0.44509  1.0000
  S   S163      1.0  0.20763  0.05887  0.45227  1.0000
  S   S164      1.0  0.17728  0.10041  0.45389  1.0000
  Fe  Fe85      1.0  0.18505  0.06471  0.41992  1.0000
  S   S165      1.0  0.20452  0.04420  0.42462  1.0000
  S   S166      1.0  0.17414  0.06790  0.39976  1.0000
  Fe  Fe86      1.0  0.19335  0.04367  0.44969  1.0000
  S   S167      1.0  0.19158  0.01975  0.46429  1.0000
  Fe  Fe87      1.0  0.21694  0.06110  0.42667  1.0000
  S   S168      1.0  0.24218  0.05802  0.41456  1.0000
  S   S169      1.0  0.17275  0.06315  0.44491  1.0000
  S   S170      1.0  0.19861  0.08180  0.41960  1.0000
  S   S171      1.0  0.18720  0.10321  0.51809  1.0000
  Fe  Fe88      1.0  0.01145  0.25051  0.56110  1.0000
  S   S172      1.0  0.10921  0.04810  0.41598  1.0000
  H   H438      1.0  0.21692  0.00404  0.50668  1.0000
  C   C442      1.0  0.01662  0.27545  0.46133  1.0000
  S   S173      1.0  0.06155  0.25751  0.40447  1.0000
  S   S174      1.0  0.22379  0.03205  0.50951  1.0000
  H   H439      1.0  0.23184  0.09006  0.39681  1.0000
  C   C443      1.0  0.17036  0.01117  0.52273  1.0000
  H   H440      1.0  0.00246  0.32043  0.53715  1.0000
  C   C444      1.0  0.15590  0.06273  0.40464  1.0000
  C   C445      1.0  0.14743  0.06604  0.39312  1.0000
  C   C446      1.0  0.13290  0.06197  0.39670  1.0000
  C   C447      1.0  0.12685  0.05432  0.41175  1.0000
  C   C448      1.0  0.13520  0.05124  0.42334  1.0000
  C   C449      1.0  0.14967  0.05551  0.41979  1.0000
  N   N35       1.0  0.20458  0.18667  0.38273  1.0000
  C   C450      1.0  0.12358  0.00376  0.40681  1.0000
  H   H441      1.0  0.13058  0.04537  0.43502  1.0000
  H   H442      1.0  0.15605  0.05298  0.42876  1.0000
  C   C451      1.0  0.17922  0.10032  0.47234  1.0000
  C   C452      1.0  0.18755  0.08723  0.48110  1.0000
  C   C453      1.0  0.18984  0.08795  0.49535  1.0000
  C   C454      1.0  0.18373  0.10175  0.50081  1.0000
  C   C455      1.0  0.17517  0.11469  0.49216  1.0000
  C   C456      1.0  0.17293  0.11398  0.47795  1.0000
  H   H443      1.0  0.19240  0.07668  0.47680  1.0000
  H   H444      1.0  0.19635  0.07787  0.50206  1.0000
  H   H445      1.0  0.17043  0.12535  0.49636  1.0000
  H   H446      1.0  0.16651  0.12413  0.47118  1.0000
  H   H447      1.0  0.00756  0.33920  0.54760  1.0000
  H   H448      1.0  0.08210  0.39626  0.40411  1.0000
  H   H449      1.0  0.23628  0.10848  0.49218  1.0000
  H   H450      1.0  0.18569  0.03959  0.56370  1.0000
  C   C457      1.0  0.37338  0.13858  0.56456  1.0000
  C   C458      1.0  0.01857  0.21242  0.39533  1.0000
  C   C459      1.0  0.01112  0.30377  0.42674  1.0000
  C   C460      1.0  0.99501  0.18908  0.42283  1.0000
  H   H451      1.0  0.25046  0.06699  0.55814  1.0000
  H   H452      1.0  0.02165  0.31886  0.43286  1.0000
  H   H453      1.0  0.02205  0.29822  0.42011  1.0000
  C   C461      1.0  0.06720  0.30352  0.41030  1.0000
  C   C462      1.0  0.07519  0.29801  0.39681  1.0000
  C   C463      1.0  0.07328  0.28405  0.39486  1.0000
  C   C464      1.0  0.06370  0.27527  0.40658  1.0000
  C   C465      1.0  0.05582  0.28067  0.42016  1.0000
  C   C466      1.0  0.05739  0.29488  0.42194  1.0000
  C   C467      1.0  0.02433  0.25133  0.40787  1.0000
  H   H454      1.0  0.04842  0.27389  0.42925  1.0000
  H   H455      1.0  0.05117  0.29903  0.43237  1.0000
  C   C468      1.0  0.03855  0.39897  0.41410  1.0000
  C   C469      1.0  0.04333  0.41295  0.40642  1.0000
  C   C470      1.0  0.03945  0.42117  0.39216  1.0000
  C   C471      1.0  0.01355  0.36612  0.50687  1.0000
  C   C472      1.0  0.00849  0.32536  0.52520  1.0000
  C   C473      1.0  0.02949  0.39347  0.40768  1.0000
  H   H456      1.0  0.05018  0.41735  0.41144  1.0000
  H   H457      1.0  0.00572  0.18155  0.42582  1.0000
  H   H458      1.0  0.22634  0.12808  0.49264  1.0000
  H   H459      1.0  0.02532  0.38302  0.41375  1.0000
  C   C474      1.0  0.05054  0.34160  0.49818  1.0000
  C   C475      1.0  0.04931  0.33892  0.51418  1.0000
  C   C476      1.0  0.05011  0.35069  0.52076  1.0000
  C   C477      1.0  0.05229  0.36519  0.51139  1.0000
  C   C478      1.0  0.05368  0.36779  0.49535  1.0000
  C   C479      1.0  0.05268  0.35608  0.48876  1.0000
  H   H460      1.0  0.04762  0.32775  0.52152  1.0000
  H   H461      1.0  0.04913  0.34844  0.53305  1.0000
  H   H462      1.0  0.05539  0.37896  0.48799  1.0000
  H   H463      1.0  0.05362  0.35828  0.47638  1.0000
  H   H464      1.0  0.99610  0.35192  0.39409  1.0000
  C   C480      1.0  0.27191  0.08416  0.42594  1.0000
  C   C481      1.0  0.25554  0.08890  0.42977  1.0000
  C   C482      1.0  0.24614  0.08087  0.42649  1.0000
  C   C483      1.0  0.25321  0.06837  0.41910  1.0000
  C   C484      1.0  0.26951  0.06383  0.41518  1.0000
  C   C485      1.0  0.27882  0.07159  0.41872  1.0000
  H   H465      1.0  0.25016  0.09865  0.43533  1.0000
  H   H466      1.0  0.23351  0.08448  0.42942  1.0000
  H   H467      1.0  0.27499  0.05419  0.40948  1.0000
  H   H468      1.0  0.29144  0.06788  0.41578  1.0000
  C   C486      1.0  0.21062  0.12986  0.40243  1.0000
  C   C487      1.0  0.22416  0.12377  0.40843  1.0000
  C   C488      1.0  0.22848  0.13223  0.41650  1.0000
  C   C489      1.0  0.21903  0.14660  0.41899  1.0000
  C   C490      1.0  0.20509  0.15234  0.41362  1.0000
  C   C491      1.0  0.20106  0.14416  0.40504  1.0000
  H   H469      1.0  0.23150  0.11263  0.40664  1.0000
  H   H470      1.0  0.23911  0.12760  0.42084  1.0000
  Fe  Fe89      1.0  0.19019  0.13422  0.37563  1.0000
  C   C492      1.0  0.31839  0.14723  0.40606  1.0000
  H   H471      1.0  0.17428  0.02148  0.39300  1.0000
  H   H472      1.0  0.05251  0.13723  0.38161  1.0000
  C   C493      1.0  0.34625  0.12678  0.39511  1.0000
  C   C494      1.0  0.33809  0.12331  0.41056  1.0000
  C   C495      1.0  0.32408  0.13339  0.41597  1.0000
  C   C496      1.0  0.03049  0.41558  0.38571  1.0000
  C   C497      1.0  0.00531  0.25851  0.50822  1.0000
  H   H473      1.0  0.31780  0.13056  0.42786  1.0000
  C   C498      1.0  0.27035  0.13722  0.49708  1.0000
  C   C499      1.0  0.26704  0.13377  0.51333  1.0000
  C   C500      1.0  0.27657  0.13668  0.52137  1.0000
  C   C501      1.0  0.28944  0.14325  0.51318  1.0000
  C   C502      1.0  0.29246  0.14724  0.49689  1.0000
  C   C503      1.0  0.28299  0.14415  0.48883  1.0000
  H   H474      1.0  0.25728  0.12843  0.51971  1.0000
  H   H475      1.0  0.27407  0.13367  0.53388  1.0000
  H   H476      1.0  0.30235  0.15243  0.49048  1.0000
  H   H477      1.0  0.28556  0.14700  0.47627  1.0000
  N   N36       1.0  0.99525  0.09501  0.37676  1.0000
  C   C504      1.0  0.02542  0.40179  0.39354  1.0000
  C   C505      1.0  0.23803  0.02361  0.44502  1.0000
  H   H478      1.0  0.20089  0.03094  0.48695  1.0000
  H   H479      1.0  0.17840  0.10804  0.39472  1.0000
  H   H480      1.0  0.19680  0.98753  0.46180  1.0000
  C   C506      1.0  0.99609  0.26009  0.49780  1.0000
  C   C507      1.0  0.25146  0.03625  0.47355  1.0000
  N   N37       1.0  0.14143  0.10302  0.41046  1.0000
  H   H481      1.0  0.16578  0.00034  0.38760  1.0000
  N   N38       1.0  0.29806  0.09359  0.50481  1.0000
  C   C508      1.0  0.29883  0.07960  0.51528  1.0000
  C   C509      1.0  0.30413  0.10493  0.50651  1.0000
  C   C510      1.0  0.30562  0.07679  0.52798  1.0000
  C   C511      1.0  0.31090  0.10258  0.51911  1.0000
  C   C512      1.0  0.31158  0.08842  0.52994  1.0000
  C   C513      1.0  0.28943  0.09685  0.49258  1.0000
  H   H482      1.0  0.29349  0.07083  0.51427  1.0000
  H   H483      1.0  0.30344  0.11603  0.49831  1.0000
  H   H484      1.0  0.30562  0.06593  0.53659  1.0000
  H   H485      1.0  0.31518  0.11187  0.52066  1.0000
  H   H486      1.0  0.31641  0.08659  0.54000  1.0000
  H   H487      1.0  0.29211  0.08664  0.48730  1.0000
  H   H488      1.0  0.27663  0.09967  0.49763  1.0000
  H   H489      1.0  0.29227  0.10698  0.48317  1.0000
  H   H490      1.0  0.04506  0.28029  0.49340  1.0000
  H   H491      1.0  0.22785  0.09360  0.47853  1.0000
  H   H492      1.0  0.37566  0.14461  0.39623  1.0000
  H   H493      1.0  0.10969  0.19679  0.39732  1.0000
  H   H494      1.0  0.11832  0.10910  0.40680  1.0000
  H   H495      1.0  0.17455  0.03323  0.44048  1.0000
  H   H496      1.0  0.05298  0.32430  0.38548  1.0000
  H   H497      1.0  0.08812  0.35754  0.55472  1.0000
  C   C514      1.0  0.16554  0.11089  0.41759  1.0000
  C   C515      1.0  0.26203  0.08441  0.54170  1.0000
  H   H498      1.0  0.01289  0.34654  0.49878  1.0000
  C   C516      1.0  0.16739  0.10781  0.40310  1.0000
  H   H499      1.0  0.01976  0.26259  0.46548  1.0000
  C   C517      1.0  0.23151  0.00706  0.47027  1.0000
  C   C518      1.0  0.21578  0.01715  0.52328  1.0000
  S   S175      1.0  0.00513  0.16888  0.38222  1.0000
  C   C519      1.0  0.04353  0.09789  0.39467  1.0000
  C   C520      1.0  0.23054  0.17428  0.38677  1.0000
  H   H500      1.0  0.11966  0.00959  0.39615  1.0000
  N   N39       1.0  0.24512  0.02720  0.46686  1.0000
  C   C521      1.0  0.24488  0.03152  0.45143  1.0000
  C   C522      1.0  0.23859  0.01513  0.47626  1.0000
  C   C523      1.0  0.17177  0.03126  0.53421  1.0000
  C   C524      1.0  0.34058  0.14065  0.38525  1.0000
  C   C525      1.0  0.19101  0.03964  0.49199  1.0000
  C   C526      1.0  0.99723  0.29936  0.42800  1.0000
  H   H501      1.0  0.02046  0.31802  0.52257  1.0000
  H   H502      1.0  0.23876  0.01176  0.48850  1.0000
  C   C527      1.0  0.07520  0.37550  0.40447  1.0000
  H   H503      1.0  0.32251  0.16166  0.38306  1.0000
  H   H504      1.0  0.31903  0.09805  0.41634  1.0000
  S   S176      1.0  0.09590  0.07104  0.37750  1.0000
  C   C528      1.0  0.23122  0.01138  0.45454  1.0000
  H   H505      1.0  0.03772  0.21227  0.41262  1.0000
  C   C529      1.0  0.01318  0.25323  0.39938  1.0000
  C   C530      1.0  0.15157  0.10982  0.42856  1.0000
  H   H506      1.0  0.21257  0.18638  0.40260  1.0000
  H   H507      1.0  0.17505  0.11379  0.42040  1.0000
  S   S177      1.0  0.99871  0.24435  0.48937  1.0000
  C   C531      1.0  0.06955  0.36822  0.39640  1.0000
  C   C532      1.0  0.21091  0.01808  0.53889  1.0000
  C   C533      1.0  0.15509  0.10404  0.39964  1.0000
  H   H508      1.0  0.34246  0.11267  0.41832  1.0000
  H   H509      1.0  0.19616  0.04887  0.49301  1.0000
  H   H510      1.0  0.15018  0.11187  0.43999  1.0000
  C   C534      1.0  0.00004  0.34184  0.40318  1.0000
  H   H511      1.0  0.36581  0.12164  0.55779  1.0000
  C   C535      1.0  0.26986  0.09614  0.53982  1.0000
  H   H512      1.0  0.99929  0.31721  0.39342  1.0000
  N   N40       1.0  0.21877  0.11767  0.47870  1.0000
  C   C536      1.0  0.21036  0.13155  0.47192  1.0000
  C   C537      1.0  0.22143  0.10464  0.47302  1.0000
  C   C538      1.0  0.20474  0.13272  0.45887  1.0000
  C   C539      1.0  0.21606  0.10543  0.45991  1.0000
  C   C540      1.0  0.20765  0.11957  0.45283  1.0000
  H   H513      1.0  0.20813  0.14186  0.47647  1.0000
  H   H514      1.0  0.19832  0.14379  0.45335  1.0000
  H   H515      1.0  0.21813  0.09512  0.45542  1.0000
  H   H516      1.0  0.20321  0.12028  0.44281  1.0000
  Fe  Fe90      1.0  0.10345  0.04862  0.39368  1.0000
  H   H517      1.0  0.21627  0.11255  0.50309  1.0000
  H   H518      1.0  0.19752  0.16324  0.41592  1.0000
  H   H519      1.0  0.18229  0.07749  0.56410  1.0000
  C   C541      1.0  0.16987  0.02348  0.38264  1.0000
  C   C542      1.0  0.01155  0.07774  0.39385  1.0000
  S   S178      1.0  0.17684  0.99233  0.41566  1.0000
  H   H520      1.0  0.01426  0.24803  0.51040  1.0000
  H   H521      1.0  0.12882  0.10480  0.43344  1.0000
  C   C543      1.0  0.13958  0.10579  0.42480  1.0000
  H   H522      1.0  0.05045  0.43186  0.55892  1.0000
  H   H523      1.0  0.20378  0.98426  0.52607  1.0000
  C   C544      1.0  0.20033  0.99508  0.54513  1.0000
  C   C545      1.0  0.01184  0.35091  0.50892  1.0000
  H   H524      1.0  0.19048  0.14879  0.40062  1.0000
  H   H525      1.0  0.10266  0.99065  0.40312  1.0000
  H   H526      1.0  0.27856  0.10855  0.55113  1.0000
  C   C546      1.0  0.11108  0.19099  0.38808  1.0000
  C   C547      1.0  0.25912  0.07944  0.56958  1.0000
  C   C548      1.0  0.21552  0.18303  0.39153  1.0000
  H   H527      1.0  0.00412  0.27848  0.46061  1.0000
  H   H528      1.0  0.02099  0.20147  0.40413  1.0000
  C   C549      1.0  0.17991  0.99893  0.43047  1.0000
  H   H529      1.0  0.36892  0.15307  0.37865  1.0000
  C   C550      1.0  0.12853  0.09909  0.40682  1.0000
  N   N41       1.0  0.01997  0.22574  0.40032  1.0000
  C   C551      1.0  0.03084  0.22376  0.40879  1.0000
  C   C552      1.0  0.05212  0.08550  0.38750  1.0000
  S   S179      1.0  0.99633  0.33707  0.45172  1.0000
  N   N42       1.0  0.18265  0.03214  0.50707  1.0000
  H   H530      1.0  0.16971  0.03610  0.54426  1.0000
  C   C553      1.0  0.21336  0.00482  0.51869  1.0000
  S   S180      1.0  0.00022  0.20940  0.43645  1.0000
  H   H531      1.0  0.08733  0.32964  0.56062  1.0000
  C   C554      1.0  0.00900  0.34676  0.53614  1.0000
  H   H532      1.0  0.07653  0.37001  0.41626  1.0000
  H   H533      1.0  0.04174  0.23494  0.41946  1.0000
  H   H534      1.0  0.04887  0.30215  0.37755  1.0000
  H   H535      1.0  0.01832  0.39756  0.38866  1.0000
  H   H536      1.0  0.06083  0.07653  0.39279  1.0000
  N   N43       1.0  0.08797  0.33861  0.52212  1.0000
  C   C555      1.0  0.08773  0.32982  0.53688  1.0000
  C   C556      1.0  0.08838  0.35403  0.51882  1.0000
  C   C557      1.0  0.08775  0.33650  0.54883  1.0000
  C   C558      1.0  0.08836  0.36108  0.53049  1.0000
  C   C559      1.0  0.08814  0.35221  0.54555  1.0000
  C   C560      1.0  0.08858  0.33128  0.50961  1.0000
  H   H537      1.0  0.08745  0.31759  0.53951  1.0000
  H   H538      1.0  0.23779  0.02713  0.43278  1.0000
  H   H539      1.0  0.43103  0.12678  0.37924  1.0000
  H   H540      1.0  0.22606  0.99766  0.47779  1.0000
  S   S181      1.0  0.20586  0.11947  0.39167  1.0000
  H   H541      1.0  0.10090  0.32599  0.50475  1.0000
  H   H542      1.0  0.08159  0.32214  0.51389  1.0000
  H   H543      1.0  0.08351  0.33992  0.50010  1.0000
  C   C561      1.0  0.30669  0.12035  0.39577  1.0000
  H   H544      1.0  0.13422  0.02230  0.40633  1.0000
  C   C562      1.0  0.19046  0.99508  0.45316  1.0000
  H   H545      1.0  0.24204  0.04601  0.47731  1.0000
  N   N44       1.0  0.12042  0.98954  0.41464  1.0000
  C   C563      1.0  0.01114  0.24022  0.39567  1.0000
  C   C564      1.0  0.00920  0.29703  0.47471  1.0000
  H   H546      1.0  0.03998  0.26666  0.47613  1.0000
  H   H547      1.0  0.07953  0.27991  0.38444  1.0000
  C   C565      1.0  0.02474  0.29893  0.49117  1.0000
  H   H548      1.0  0.18788  0.20115  0.39729  1.0000
  S   S182      1.0  0.02137  0.12476  0.39721  1.0000
  H   H549      1.0  0.08825  0.36112  0.50721  1.0000
  S   S183      1.0  0.08814  0.03576  0.38895  1.0000
  C   C566      1.0  0.23318  0.12554  0.54986  1.0000
  C   C567      1.0  0.13182  0.01097  0.41246  1.0000
  C   C568      1.0  0.25651  0.07612  0.55661  1.0000
  H   H550      1.0  0.12516  0.08866  0.41539  1.0000
  Fe  Fe91      1.0  0.20480  0.08243  0.52647  1.0000
  H   H551      1.0  0.06676  0.35688  0.40181  1.0000
  H   H552      1.0  0.18296  0.04920  0.51862  1.0000
  H   H553      1.0  0.18397  0.20369  0.37856  1.0000
  H   H554      1.0  0.16188  0.01137  0.54705  1.0000
  C   C569      1.0  0.27249  0.09946  0.55271  1.0000
  S   S184      1.0  0.22701  0.07365  0.51051  1.0000
  H   H555      1.0  0.13187  0.09631  0.39517  1.0000
  C   C570      1.0  0.04468  0.18728  0.57279  1.0000
  C   C571      1.0  0.00580  0.08781  0.40406  1.0000
  C   C572      1.0  0.02830  0.33295  0.39387  1.0000
  C   C573      1.0  0.20581  0.99366  0.52967  1.0000
  H   H556      1.0  0.42147  0.16254  0.38856  1.0000
  H   H557      1.0  0.13290  0.17536  0.39203  1.0000
  C   C574      1.0  0.37954  0.14696  0.38338  1.0000
  S   S185      1.0  0.12433  0.03991  0.37644  1.0000
  C   C575      1.0  0.03207  0.10943  0.38800  1.0000
  H   H558      1.0  0.25604  0.02894  0.48390  1.0000
  C   C576      1.0  0.17806  0.01875  0.50837  1.0000
  S   S186      1.0  0.16570  0.14775  0.38208  1.0000
  H   H559      1.0  0.29965  0.11948  0.40749  1.0000
  H   H560      1.0  0.29299  0.14297  0.38724  1.0000
  H   H561      1.0  0.03025  0.34238  0.39754  1.0000
  C   C577      1.0  0.12408  0.17899  0.38512  1.0000
  N   N45       1.0  0.01920  0.28340  0.47190  1.0000
  H   H562      1.0  0.01032  0.08530  0.41444  1.0000
  S   S187      1.0  0.23549  0.04617  0.54085  1.0000
  H   H563      1.0  0.21310  0.02724  0.54267  1.0000
  H   H564      1.0  0.06712  0.44773  0.56180  1.0000
  H   H565      1.0  0.12633  0.06498  0.38777  1.0000
  S   S188      1.0  0.04588  0.35428  0.56127  1.0000
  H   H566      1.0  0.22033  0.07088  0.39130  1.0000
  H   H567      1.0  0.02698  0.21126  0.38416  1.0000
  H   H568      1.0  0.08284  0.30460  0.38779  1.0000
  H   H569      1.0  0.24912  0.08168  0.38395  1.0000
  H   H570      1.0  0.16714  0.00030  0.52389  1.0000
  H   H571      1.0  0.00626  0.26472  0.39559  1.0000
  Fe  Fe92      1.0  0.23806  0.07078  0.53034  1.0000
  Fe  Fe93      1.0  0.22213  0.05009  0.52245  1.0000
  S   S189      1.0  0.25956  0.08014  0.52523  1.0000
  S   S190      1.0  0.21613  0.08151  0.54544  1.0000
  C   C578      1.0  0.17814  0.02090  0.44103  1.0000
  C   C579      1.0  0.37286  0.12349  0.56460  1.0000
  S   S191      1.0  0.19870  0.05926  0.53666  1.0000
  H   H572      1.0  0.27387  0.10273  0.52836  1.0000
  C   C580      1.0  0.17938  0.03856  0.51968  1.0000
  H   H573      1.0  0.18062  0.01372  0.49833  1.0000
  C   C581      1.0  0.99679  0.32259  0.44254  1.0000
  S   S192      1.0  0.01456  0.27502  0.55457  1.0000
  H   H574      1.0  0.18291  0.04485  0.48392  1.0000
  C   C582      1.0  0.03313  0.23650  0.41274  1.0000
  S   S193      1.0  0.27415  0.13861  0.56473  1.0000
  H   H575      1.0  0.00313  0.34616  0.41188  1.0000
  H   H576      1.0  0.15672  0.10158  0.38835  1.0000
  H   H577      1.0  0.08812  0.37344  0.52791  1.0000
  C   C583      1.0  0.17514  0.01486  0.43010  1.0000
  C   C584      1.0  0.01092  0.31538  0.43403  1.0000
  C   C585      1.0  0.04472  0.20192  0.56271  1.0000
  H   H578      1.0  0.02179  0.29860  0.38175  1.0000
  S   S194      1.0  0.99736  0.28533  0.41843  1.0000
  C   C586      1.0  0.06720  0.37582  0.38149  1.0000
  H   H579      1.0  0.00982  0.26870  0.52445  1.0000
  H   H580      1.0  0.23705  0.14892  0.54251  1.0000
  Fe  Fe94      1.0  0.21233  0.05712  0.55426  1.0000
  H   H581      1.0  0.02615  0.26132  0.41074  1.0000
  C   C587      1.0  0.99474  0.10150  0.40049  1.0000
  Fe  Fe95      1.0  0.06547  0.25612  0.37960  1.0000
  C   C588      1.0  0.40131  0.15546  0.38697  1.0000
  H   H582      1.0  0.04318  0.43196  0.38630  1.0000
  H   H583      1.0  0.05506  0.20389  0.55382  1.0000
  C   C589      1.0  0.01103  0.31900  0.39145  1.0000
  H   H584      1.0  0.09027  0.20549  0.38060  1.0000
  H   H585      1.0  0.99894  0.30169  0.46974  1.0000
  H   H586      1.0  0.22546  0.00544  0.44981  1.0000
  H   H587      1.0  0.04573  0.09851  0.40543  1.0000
  C   C590      1.0  0.41329  0.16372  0.38146  1.0000
  H   H588      1.0  0.16933  0.02266  0.42116  1.0000
  C   C591      1.0  0.30278  0.13357  0.38432  1.0000
  H   H589      1.0  0.00368  0.31572  0.48662  1.0000
  C   C592      1.0  0.38168  0.14082  0.57412  1.0000
  N   N46       1.0  0.00947  0.34150  0.52344  1.0000
  C   C593      1.0  0.03202  0.27744  0.47840  1.0000
  H   H590      1.0  0.02693  0.30499  0.49865  1.0000
  C   C594      1.0  0.23840  0.09115  0.38453  1.0000
  S   S195      1.0  0.30758  0.14660  0.56403  1.0000
  H   H591      1.0  0.33657  0.09124  0.40317  1.0000
  H   H592      1.0  0.19890  0.00826  0.56172  1.0000
  C   C595      1.0  0.03891  0.31034  0.38260  1.0000
  S   S196      1.0  0.00432  0.24606  0.44621  1.0000
  S   S197      1.0  0.36317  0.11335  0.38836  1.0000
  S   S198      1.0  0.05917  0.38517  0.55905  1.0000
  S   S199      1.0  0.03228  0.23273  0.55287  1.0000
  C   C596      1.0  0.00271  0.27018  0.51627  1.0000
  C   C597      1.0  0.01059  0.36191  0.53452  1.0000
  C   C598      1.0  0.03495  0.28507  0.48818  1.0000
  C   C599      1.0  0.20299  0.00721  0.54975  1.0000
  Fe  Fe96      1.0  0.02279  0.36665  0.57335  1.0000
  H   H593      1.0  0.40018  0.14806  0.39853  1.0000
  H   H594      1.0  0.23899  0.17105  0.39407  1.0000
  C   C600      1.0  0.01177  0.30498  0.48439  1.0000
  C   C601      1.0  0.32687  0.15099  0.39079  1.0000
  C   C602      1.0  0.26716  0.09111  0.56760  1.0000
  C   C603      1.0  0.16732  0.01743  0.53574  1.0000
  H   H595      1.0  0.02384  0.27878  0.44955  1.0000
  H   H596      1.0  0.00652  0.21387  0.39380  1.0000
  C   C604      1.0  0.18731  0.98891  0.44220  1.0000
  H   H597      1.0  0.02059  0.06735  0.39623  1.0000
  N   N47       1.0  0.01345  0.33091  0.39613  1.0000
  C   C605      1.0  0.02372  0.30841  0.38483  1.0000
  H   H598      1.0  0.01030  0.36600  0.54462  1.0000
  H   H599      1.0  0.23275  0.12482  0.53841  1.0000
  H   H600      1.0  0.15197  0.07196  0.38144  1.0000
  C   C606      1.0  0.01293  0.37162  0.51978  1.0000
  C   C607      1.0  0.07838  0.39024  0.39762  1.0000
  H   H601      1.0  0.00272  0.24183  0.38873  1.0000
  C   C608      1.0  0.07600  0.39745  0.38265  1.0000
  C   C609      1.0  0.23560  0.13903  0.55217  1.0000
  H   H602      1.0  0.16940  0.09657  0.56307  1.0000
  H   H603      1.0  0.01472  0.38323  0.51832  1.0000
  C   C610      1.0  0.13377  0.98894  0.43402  1.0000
  H   H604      1.0  0.01585  0.37340  0.49530  1.0000
  C   C611      1.0  0.00616  0.08158  0.38013  1.0000
  Fe  Fe97      1.0  0.00554  0.14397  0.38378  1.0000
  H   H605      1.0  0.36691  0.14851  0.55755  1.0000
  C   C612      1.0  0.17136  0.08444  0.57006  1.0000
  N   N48       1.0  0.31965  0.10894  0.39245  1.0000
  N   N49       1.0  0.39148  0.15634  0.37775  1.0000
  H   H606      1.0  0.00162  0.32465  0.51724  1.0000
  C   C613      1.0  0.18854  0.19491  0.38828  1.0000
  C   C614      1.0  0.03153  0.21410  0.56437  1.0000
  H   H607      1.0  0.15779  0.03767  0.57073  1.0000
  H   H608      1.0  0.18077  0.18647  0.39321  1.0000
  H   H609      1.0  0.31843  0.08577  0.40440  1.0000
  H   H610      1.0  0.24171  0.10262  0.38098  1.0000
  C   C615      1.0  0.21996  0.07878  0.38009  1.0000
  H   H611      1.0  0.05501  0.17796  0.57171  1.0000
  C   C616      1.0  0.23153  0.11287  0.56232  1.0000
  C   C617      1.0  0.38062  0.11082  0.57429  1.0000
  H   H612      1.0  0.23825  0.15012  0.56871  1.0000
  C   C618      1.0  0.23640  0.13960  0.56698  1.0000
  H   H613      1.0  0.22993  0.10223  0.56057  1.0000
  H   H614      1.0  0.16173  0.07898  0.57045  1.0000
  H   H615      1.0  0.38165  0.15250  0.57469  1.0000
  H   H616      1.0  0.38428  0.13562  0.37980  1.0000
  H   H617      1.0  0.37945  0.09921  0.57484  1.0000
  H   H618      1.0  0.07810  0.40909  0.37757  1.0000
  C   C619      1.0  0.05113  0.43221  0.57037  1.0000
  H   H619      1.0  0.20329  0.06880  0.37556  1.0000
  C   C620      1.0  0.32865  0.11000  0.37770  1.0000
  C   C621      1.0  0.06041  0.44134  0.57202  1.0000
  Fe  Fe98      1.0  0.03514  0.39466  0.57202  1.0000
  C   C622      1.0  0.17847  0.04167  0.57472  1.0000
  C   C623      1.0  0.10014  0.19584  0.37874  1.0000
  S   S200      1.0  0.45653  0.14072  0.37657  1.0000
  H   H620      1.0  0.06247  0.37025  0.37544  1.0000
  H   H621      1.0  0.13789  0.98295  0.44456  1.0000
  H   H622      1.0  0.07868  0.40030  0.57432  1.0000
  Fe  Fe99      1.0  0.06656  0.27672  0.65225  1.0000
  S   S201      1.0  0.05639  0.26612  0.67691  1.0000
  S   S202      1.0  0.05021  0.29306  0.63743  1.0000
  Fe  Fe100     1.0  0.09924  0.25760  0.65394  1.0000
  S   S203      1.0  0.09182  0.24572  0.67874  1.0000
  S   S204      1.0  0.12318  0.24972  0.63975  1.0000
  Fe  Fe101     1.0  0.07127  0.24350  0.67134  1.0000
  S   S205      1.0  0.06568  0.21978  0.67743  1.0000
  Fe  Fe102     1.0  0.07791  0.26945  0.68196  1.0000
  S   S206      1.0  0.07552  0.27769  0.70372  1.0000
  S   S207      1.0  0.07959  0.25381  0.64631  1.0000
  S   S208      1.0  0.08705  0.28172  0.65761  1.0000
  Fe  Fe103     1.0  0.16985  0.16874  0.66636  1.0000
  S   S209      1.0  0.16807  0.14496  0.68079  1.0000
  S   S210      1.0  0.15928  0.18871  0.67824  1.0000
  Fe  Fe104     1.0  0.18905  0.15644  0.63770  1.0000
  S   S211      1.0  0.18900  0.13151  0.64969  1.0000
  S   S212      1.0  0.19956  0.16456  0.61250  1.0000
  Fe  Fe105     1.0  0.16357  0.14071  0.65966  1.0000
  S   S213      1.0  0.14179  0.13340  0.65996  1.0000
  Fe  Fe106     1.0  0.19351  0.13825  0.66962  1.0000
  S   S214      1.0  0.21234  0.12598  0.68307  1.0000
  S   S215      1.0  0.16338  0.16523  0.64609  1.0000
  S   S216      1.0  0.19553  0.16241  0.65667  1.0000
  Fe  Fe107     1.0  0.12727  0.06157  0.64497  1.0000
  S   S217      1.0  0.12338  0.07339  0.62116  1.0000
  S   S218      1.0  0.14735  0.06548  0.65212  1.0000
  Fe  Fe108     1.0  0.10134  0.04404  0.65193  1.0000
  S   S219      1.0  0.09538  0.05444  0.62860  1.0000
  Fe  Fe109     1.0  0.12141  0.05017  0.61968  1.0000
  S   S220      1.0  0.13370  0.04175  0.59784  1.0000
  Fe  Fe110     1.0  0.09789  0.07671  0.63231  1.0000
  S   S221      1.0  0.08314  0.09981  0.62335  1.0000
  S   S222      1.0  0.12729  0.03776  0.64270  1.0000
  S   S223      1.0  0.10178  0.06687  0.65646  1.0000
  C   C624      1.0  0.03150  0.18488  0.58458  1.0000
  C   C625      1.0  0.99394  0.46855  0.68820  1.0000
  H   H623      1.0  0.24134  0.12008  0.75371  1.0000
  C   C626      1.0  0.08591  0.13872  0.63465  1.0000
  C   C627      1.0  0.06445  0.01292  0.67617  1.0000
  C   C628      1.0  0.30313  0.14452  0.61815  1.0000
  H   H624      1.0  0.04579  0.26729  0.59953  1.0000
  S   S224      1.0  0.20392  0.04846  0.57983  1.0000
  C   C629      1.0  0.03049  0.48139  0.60339  1.0000
  H   H625      1.0  0.04513  0.20095  0.61547  1.0000
  H   H626      1.0  0.42790  0.98521  0.70036  1.0000
  C   C630      1.0  0.48190  0.08765  0.71637  1.0000
  C   C631      1.0  0.01812  0.19691  0.58586  1.0000
  S   S225      1.0  0.43962  0.08008  0.76785  1.0000
  H   H627      1.0  0.04956  0.21996  0.62532  1.0000
  S   S226      1.0  0.00091  0.35769  0.57863  1.0000
  H   H628      1.0  0.14915  0.01492  0.62175  1.0000
  C   C632      1.0  0.38937  0.12788  0.58361  1.0000
  S   S227      1.0  0.00007  0.25081  0.58603  1.0000
  Fe  Fe111     1.0  0.08157  0.47532  0.63054  1.0000
  H   H629      1.0  0.22486  0.13282  0.60090  1.0000
  C   C633      1.0  0.04849  0.24393  0.61368  1.0000
  H   H630      1.0  0.39527  0.12982  0.59141  1.0000
  H   H631      1.0  0.23059  0.10226  0.72832  1.0000
  H   H632      1.0  0.04613  0.00048  0.68133  1.0000
  H   H633      1.0  0.46917  0.00910  0.70944  1.0000
  H   H634      1.0  0.01524  0.11758  0.64293  1.0000
  Fe  Fe112     1.0  0.38481  0.05046  0.73833  1.0000
  S   S228      1.0  0.37867  0.02875  0.73742  1.0000
  Fe  Fe113     1.0  0.41843  0.04124  0.72203  1.0000
  S   S229      1.0  0.41574  0.01837  0.71999  1.0000
  S   S230      1.0  0.44072  0.04987  0.71372  1.0000
  Fe  Fe114     1.0  0.39326  0.03218  0.71329  1.0000
  S   S231      1.0  0.38749  0.02569  0.69420  1.0000
  Fe  Fe115     1.0  0.40147  0.01660  0.74430  1.0000
  H   H635      1.0  0.06670  0.37957  0.59383  1.0000
  S   S232      1.0  0.39710  0.05532  0.71330  1.0000
  H   H636      1.0  0.05117  0.37248  0.76007  1.0000
  C   C634      1.0  0.15233  0.00703  0.61397  1.0000
  N   N50       1.0  0.23534  0.12689  0.57901  1.0000
  C   C635      1.0  0.04328  0.40126  0.72473  1.0000
  N   N51       1.0  0.31104  0.16448  0.75465  1.0000
  S   S233      1.0  0.26385  0.17507  0.77086  1.0000
  H   H637      1.0  0.18367  0.99206  0.58800  1.0000
  S   S234      1.0  0.29225  0.12102  0.59337  1.0000
  C   C636      1.0  0.03043  0.39895  0.72096  1.0000
  H   H638      1.0  0.40570  0.10218  0.59773  1.0000
  C   C637      1.0  0.01421  0.28844  0.63325  1.0000
  C   C638      1.0  0.04268  0.42517  0.59826  1.0000
  H   H639      1.0  0.03954  0.31760  0.73472  1.0000
  H   H640      1.0  0.00737  0.27986  0.63392  1.0000
  H   H641      1.0  0.03072  0.30472  0.59386  1.0000
  H   H642      1.0  0.32476  0.10909  0.63030  1.0000
  H   H643      1.0  0.09535  0.09865  0.66520  1.0000
  C   C639      1.0  0.24195  0.11687  0.74272  1.0000
  S   S235      1.0  0.47034  0.13415  0.68177  1.0000
  H   H644      1.0  0.03391  0.42919  0.75412  1.0000
  H   H645      1.0  0.01787  0.28573  0.64446  1.0000
  H   H646      1.0  0.05108  0.41374  0.73663  1.0000
  S   S236      1.0  0.06194  0.48270  0.61807  1.0000
  Fe  Fe116     1.0  0.37933  0.12148  0.66569  1.0000
  S   S237      1.0  0.36828  0.11540  0.64990  1.0000
  S   S238      1.0  0.36715  0.12012  0.69071  1.0000
  Fe  Fe117     1.0  0.40889  0.12596  0.64157  1.0000
  S   S239      1.0  0.40026  0.12088  0.62329  1.0000
  S   S240      1.0  0.43406  0.12840  0.63459  1.0000
  Fe  Fe118     1.0  0.37702  0.13529  0.63235  1.0000
  S   S241      1.0  0.36166  0.15020  0.61584  1.0000
  Fe  Fe119     1.0  0.39219  0.10151  0.64186  1.0000
  S   S242      1.0  0.39653  0.07913  0.63457  1.0000
  S   S243      1.0  0.38632  0.14275  0.64882  1.0000
  S   S244      1.0  0.40247  0.10525  0.65959  1.0000
  Fe  Fe120     1.0  0.06999  0.45928  0.61187  1.0000
  S   S245      1.0  0.09129  0.45317  0.62181  1.0000
  S   S246      1.0  0.02741  0.41632  0.58167  1.0000
  Fe  Fe121     1.0  0.04892  0.47024  0.64033  1.0000
  C   C640      1.0  0.04203  0.42434  0.58350  1.0000
  H   H647      1.0  0.12851  0.47399  0.63228  1.0000
  H   H648      1.0  0.01243  0.45004  0.58416  1.0000
  C   C641      1.0  0.00265  0.33175  0.62805  1.0000
  Fe  Fe122     1.0  0.07598  0.44253  0.64355  1.0000
  S   S247      1.0  0.08595  0.41758  0.65338  1.0000
  H   H649      1.0  0.00535  0.40600  0.72321  1.0000
  S   S248      1.0  0.05516  0.44754  0.63318  1.0000
  Fe  Fe123     1.0  0.26496  0.16781  0.74891  1.0000
  S   S249      1.0  0.28746  0.15166  0.74087  1.0000
  C   C642      1.0  0.22256  0.11279  0.73118  1.0000
  Fe  Fe124     1.0  0.24986  0.16344  0.72495  1.0000
  S   S250      1.0  0.27124  0.14683  0.71533  1.0000
  S   S251      1.0  0.22745  0.17020  0.71631  1.0000
  Fe  Fe125     1.0  0.27242  0.13651  0.74018  1.0000
  Fe  Fe126     1.0  0.28417  0.16361  0.71693  1.0000
  S   S252      1.0  0.30357  0.17043  0.69711  1.0000
  S   S253      1.0  0.24993  0.15167  0.74987  1.0000
  S   S254      1.0  0.26274  0.18123  0.72482  1.0000
  Fe  Fe127     1.0  0.09908  0.34268  0.72245  1.0000
  S   S255      1.0  0.07635  0.36006  0.72576  1.0000
  S   S256      1.0  0.10735  0.33174  0.70161  1.0000
  Fe  Fe128     1.0  0.10643  0.34454  0.75213  1.0000
  S   S257      1.0  0.08401  0.36179  0.75836  1.0000
  S   S258      1.0  0.12502  0.33306  0.76618  1.0000
  Fe  Fe129     1.0  0.07285  0.34721  0.75052  1.0000
  Fe  Fe130     1.0  0.08924  0.37333  0.73306  1.0000
  S   S259      1.0  0.08359  0.39940  0.72519  1.0000
  S   S260      1.0  0.09467  0.32870  0.74677  1.0000
  S   S261      1.0  0.11261  0.35724  0.72729  1.0000
  H   H650      1.0  0.12189  0.43362  0.64902  1.0000
  H   H651      1.0  0.00043  0.43678  0.61043  1.0000
  S   S262      1.0  0.27206  0.16196  0.59641  1.0000
  Fe  Fe131     1.0  0.01854  0.17159  0.62159  1.0000
  C   C643      1.0  0.21680  0.13533  0.74144  1.0000
  C   C644      1.0  0.03480  0.35817  0.76358  1.0000
  N   N52       1.0  0.17228  0.08432  0.58577  1.0000
  H   H652      1.0  0.25496  0.07297  0.58112  1.0000
  S   S263      1.0  0.03291  0.37261  0.58995  1.0000
  C   C645      1.0  0.48568  0.13674  0.73313  1.0000
  H   H653      1.0  0.02163  0.48254  0.69249  1.0000
  H   H654      1.0  0.06904  0.33453  0.68136  1.0000
  H   H655      1.0  0.05047  0.10504  0.67499  1.0000
  H   H656      1.0  0.25470  0.26837  0.77110  1.0000
  H   H657      1.0  0.32975  0.12808  0.64027  1.0000
  H   H658      1.0  0.03544  0.23326  0.58229  1.0000
  C   C646      1.0  0.43813  0.08126  0.64492  1.0000
  C   C647      1.0  0.32103  0.15266  0.63328  1.0000
  H   H659      1.0  0.10828  0.42495  0.67612  1.0000
  C   C648      1.0  0.07159  0.38713  0.59748  1.0000
  C   C649      1.0  0.01813  0.21153  0.57578  1.0000
  C   C650      1.0  0.05517  0.31169  0.68394  1.0000
  C   C651      1.0  0.27507  0.22069  0.77117  1.0000
  N   N53       1.0  0.03217  0.11090  0.62326  1.0000
  S   S264      1.0  0.03225  0.16726  0.59835  1.0000
  C   C652      1.0  0.42880  0.07060  0.67666  1.0000
  C   C653      1.0  0.00048  0.45272  0.69281  1.0000
  C   C654      1.0  0.04100  0.41207  0.73374  1.0000
  C   C655      1.0  0.01819  0.32816  0.58622  1.0000
  C   C656      1.0  0.10181  0.44790  0.68094  1.0000
  C   C657      1.0  0.00962  0.30497  0.58745  1.0000
  S   S265      1.0  0.99952  0.19226  0.62641  1.0000
  C   C658      1.0  0.09125  0.12506  0.64494  1.0000
  C   C659      1.0  0.08529  0.00850  0.65382  1.0000
  Fe  Fe132     1.0  0.01729  0.15712  0.65527  1.0000
  C   C660      1.0  0.01550  0.46196  0.62009  1.0000
  N   N54       1.0  0.00518  0.30450  0.62991  1.0000
  H   H660      1.0  0.29625  0.18301  0.74237  1.0000
  H   H661      1.0  0.26744  0.20316  0.74658  1.0000
  C   C661      1.0  0.16043  0.98796  0.59302  1.0000
  C   C662      1.0  0.07843  0.39869  0.58653  1.0000
  Fe  Fe133     1.0  0.49248  0.08372  0.77220  1.0000
  H   H662      1.0  0.34441  0.10293  0.68782  1.0000
  H   H663      1.0  0.38965  0.05598  0.76682  1.0000
  H   H664      1.0  0.45443  0.99794  0.71449  1.0000
  H   H665      1.0  0.03027  0.12440  0.60048  1.0000
  H   H666      1.0  0.47731  0.08997  0.72792  1.0000
  C   C663      1.0  0.03900  0.37203  0.76263  1.0000
  C   C664      1.0  0.07850  0.01598  0.66626  1.0000
  N   N55       1.0  0.31304  0.13315  0.62625  1.0000
  H   H667      1.0  0.02207  0.44334  0.74154  1.0000
  H   H668      1.0  0.04585  0.20496  0.59505  1.0000
  H   H669      1.0  0.05920  0.01858  0.68584  1.0000
  H   H670      1.0  0.24653  0.10407  0.74448  1.0000
  H   H671      1.0  0.48017  0.15824  0.69023  1.0000
  C   C665      1.0  0.02099  0.46509  0.59271  1.0000
  H   H672      1.0  0.01649  0.46510  0.63027  1.0000
  H   H673      1.0  0.00689  0.34097  0.62975  1.0000
  H   H674      1.0  0.03279  0.44957  0.66342  1.0000
  H   H675      1.0  0.02384  0.09319  0.66125  1.0000
  C   C666      1.0  0.02740  0.38532  0.76530  1.0000
  C   C667      1.0  0.28259  0.10915  0.76846  1.0000
  H   H676      1.0  0.04088  0.30459  0.71393  1.0000
  C   C668      1.0  0.09006  0.41705  0.61206  1.0000
  H   H677      1.0  0.11302  0.36532  0.76908  1.0000
  H   H678      1.0  0.05495  0.39466  0.72079  1.0000
  C   C669      1.0  0.17398  0.08357  0.61570  1.0000
  H   H679      1.0  0.31690  0.11773  0.69218  1.0000
  C   C670      1.0  0.27276  0.21860  0.75748  1.0000
  C   C671      1.0  0.26931  0.20465  0.75714  1.0000
  C   C672      1.0  0.04709  0.22873  0.61510  1.0000
  C   C673      1.0  0.48437  0.16565  0.69524  1.0000
  H   H680      1.0  0.27356  0.22781  0.74713  1.0000
  H   H681      1.0  0.29566  0.08535  0.77074  1.0000
  C   C674      1.0  0.08416  0.41252  0.67352  1.0000
  C   C675      1.0  0.07637  0.42341  0.68273  1.0000
  C   C676      1.0  0.07628  0.41940  0.69865  1.0000
  C   C677      1.0  0.08374  0.40444  0.70535  1.0000
  C   C678      1.0  0.09110  0.39345  0.69621  1.0000
  C   C679      1.0  0.09138  0.39752  0.68030  1.0000
  H   H682      1.0  0.07063  0.43495  0.67759  1.0000
  H   H683      1.0  0.07040  0.42785  0.70576  1.0000
  H   H684      1.0  0.09687  0.38189  0.70132  1.0000
  H   H685      1.0  0.09742  0.38906  0.67321  1.0000
  C   C680      1.0  0.06057  0.44270  0.58678  1.0000
  H   H686      1.0  0.39676  0.99399  0.71020  1.0000
  H   H687      1.0  0.29607  0.14147  0.61219  1.0000
  C   C681      1.0  0.33439  0.09084  0.72653  1.0000
  C   C682      1.0  0.44114  0.08794  0.65543  1.0000
  H   H688      1.0  0.02741  0.20960  0.60850  1.0000
  C   C683      1.0  0.47469  0.09658  0.70424  1.0000
  C   C684      1.0  0.34400  0.14701  0.59759  1.0000
  Fe  Fe134     1.0  0.05615  0.36273  0.57600  1.0000
  C   C685      1.0  0.32161  0.10990  0.70186  1.0000
  C   C686      1.0  0.23650  0.12760  0.59437  1.0000
  C   C687      1.0  0.31382  0.11675  0.62704  1.0000
  H   H689      1.0  0.17639  0.00945  0.60660  1.0000
  H   H690      1.0  0.09327  0.42693  0.60250  1.0000
  H   H691      1.0  0.05150  0.30036  0.68866  1.0000
  C   C688      1.0  0.34972  0.13437  0.69259  1.0000
  C   C689      1.0  0.33922  0.13401  0.70702  1.0000
  C   C690      1.0  0.32480  0.14479  0.70842  1.0000
  C   C691      1.0  0.32117  0.15635  0.69554  1.0000
  C   C692      1.0  0.33179  0.15684  0.68119  1.0000
  C   C693      1.0  0.34593  0.14571  0.67966  1.0000
  H   H692      1.0  0.34210  0.12516  0.71701  1.0000
  H   H693      1.0  0.31659  0.14424  0.71945  1.0000
  H   H694      1.0  0.32904  0.16580  0.67122  1.0000
  H   H695      1.0  0.35395  0.14605  0.66848  1.0000
  C   C694      1.0  0.35411  0.13935  0.60776  1.0000
  C   C695      1.0  0.35816  0.12307  0.61130  1.0000
  C   C696      1.0  0.35249  0.11452  0.60442  1.0000
  C   C697      1.0  0.34265  0.12216  0.59403  1.0000
  H   H696      1.0  0.02493  0.28691  0.62389  1.0000
  S   S266      1.0  0.08774  0.02814  0.67081  1.0000
  H   H697      1.0  0.36601  0.11704  0.61901  1.0000
  H   H698      1.0  0.35595  0.10193  0.60697  1.0000
  N   N56       1.0  0.48782  0.15761  0.71050  1.0000
  C   C698      1.0  0.46025  0.13255  0.66867  1.0000
  C   C699      1.0  0.44421  0.13250  0.67349  1.0000
  C   C700      1.0  0.43598  0.13120  0.66318  1.0000
  C   C701      1.0  0.44378  0.13005  0.64798  1.0000
  C   C702      1.0  0.45986  0.12983  0.64329  1.0000
  C   C703      1.0  0.46809  0.13102  0.65360  1.0000
  H   H699      1.0  0.43807  0.13366  0.68516  1.0000
  H   H700      1.0  0.42358  0.13139  0.66690  1.0000
  H   H701      1.0  0.46597  0.12892  0.63155  1.0000
  H   H702      1.0  0.48045  0.13104  0.64976  1.0000
  H   H703      1.0  0.10038  0.11598  0.64033  1.0000
  C   C704      1.0  0.01438  0.44580  0.68376  1.0000
  H   H704      1.0  0.46484  0.02748  0.75356  1.0000
  C   C705      1.0  0.09046  0.10856  0.67114  1.0000
  N   N57       1.0  0.22658  0.12158  0.73868  1.0000
  C   C706      1.0  0.11678  0.44204  0.65632  1.0000
  S   S267      1.0  0.00547  0.15420  0.63824  1.0000
  S   S268      1.0  0.02426  0.48217  0.64872  1.0000
  N   N58       1.0  0.08465  0.12291  0.66049  1.0000
  H   H705      1.0  0.01458  0.13044  0.61579  1.0000
  C   C707      1.0  0.38860  0.04070  0.67760  1.0000
  C   C708      1.0  0.39372  0.03715  0.66293  1.0000
  C   C709      1.0  0.39583  0.04906  0.64963  1.0000
  C   C710      1.0  0.39264  0.06450  0.65104  1.0000
  C   C711      1.0  0.38703  0.06811  0.66568  1.0000
  C   C712      1.0  0.38503  0.05619  0.67896  1.0000
  H   H706      1.0  0.39641  0.02517  0.66186  1.0000
  H   H707      1.0  0.40011  0.04627  0.63829  1.0000
  H   H708      1.0  0.38435  0.08006  0.66679  1.0000
  H   H709      1.0  0.38057  0.05897  0.69024  1.0000
  C   C713      1.0  0.44073  0.05987  0.72737  1.0000
  C   C714      1.0  0.45475  0.05919  0.73117  1.0000
  H   H710      1.0  0.99511  0.37080  0.77161  1.0000
  C   C715      1.0  0.00474  0.33746  0.58127  1.0000
  H   H711      1.0  0.05311  0.33924  0.72870  1.0000
  H   H712      1.0  0.46523  0.06389  0.74701  1.0000
  H   H713      1.0  0.46576  0.05339  0.72493  1.0000
  H   H714      1.0  0.24093  0.11582  0.60115  1.0000
  H   H715      1.0  0.44829  0.09675  0.67670  1.0000
  C   C716      1.0  0.18485  0.04522  0.58515  1.0000
  H   H716      1.0  0.17461  0.08280  0.62751  1.0000
  C   C717      1.0  0.35981  0.08385  0.70936  1.0000
  H   H717      1.0  0.09979  0.11022  0.67575  1.0000
  S   S269      1.0  0.06809  0.46404  0.65334  1.0000
  C   C718      1.0  0.31242  0.10866  0.71690  1.0000
  C   C719      1.0  0.07377  0.15024  0.64036  1.0000
  H   H718      1.0  0.02499  0.24165  0.64711  1.0000
  C   C720      1.0  0.43860  0.09046  0.68196  1.0000
  N   N59       1.0  0.11800  0.45724  0.65068  1.0000
  C   C721      1.0  0.44224  0.00176  0.75872  1.0000
  C   C722      1.0  0.37872  0.98820  0.75769  1.0000
  H   H719      1.0  0.09716  0.47206  0.68204  1.0000
  H   H720      1.0  0.05746  0.15670  0.66079  1.0000
  C   C723      1.0  0.00115  0.47746  0.67445  1.0000
  H   H721      1.0  0.37343  0.00039  0.75705  1.0000
  H   H722      1.0  0.20539  0.11093  0.71999  1.0000
  S   S270      1.0  0.26977  0.09588  0.58372  1.0000
  C   C724      1.0  0.99646  0.31428  0.58189  1.0000
  H   H723      1.0  0.47526  0.17649  0.69618  1.0000
  H   H724      1.0  0.43462  0.99503  0.76768  1.0000
  H   H725      1.0  0.47532  0.13997  0.71382  1.0000
  H   H726      1.0  0.11949  0.46217  0.62647  1.0000
  S   S271      1.0  0.36593  0.06888  0.74848  1.0000
  H   H727      1.0  0.00776  0.22077  0.57679  1.0000
  C   C725      1.0  0.32491  0.13842  0.75242  1.0000
  H   H728      1.0  0.47548  0.10071  0.67984  1.0000
  H   H729      1.0  0.44139  0.08591  0.63253  1.0000
  Fe  Fe135     1.0  0.01172  0.19228  0.64444  1.0000
  C   C726      1.0  0.05337  0.33376  0.71955  1.0000
  H   H730      1.0  0.08966  0.41752  0.58287  1.0000
  H   H731      1.0  0.01969  0.31339  0.63835  1.0000
  C   C727      1.0  0.44029  0.07272  0.75189  1.0000
  H   H732      1.0  0.19716  0.08106  0.58018  1.0000
  C   C728      1.0  0.04509  0.25536  0.60069  1.0000
  H   H733      1.0  0.33932  0.08351  0.73626  1.0000
  C   C729      1.0  0.12648  0.46203  0.63468  1.0000
  C   C730      1.0  0.02186  0.45484  0.67019  1.0000
  H   H734      1.0  0.06918  0.16068  0.63245  1.0000
  C   C731      1.0  0.02382  0.43128  0.74870  1.0000
  C   C732      1.0  0.01549  0.40746  0.72617  1.0000
  S   S272      1.0  0.01167  0.28478  0.59336  1.0000
  H   H735      1.0  0.01957  0.43361  0.68745  1.0000
  C   C733      1.0  0.11108  0.46793  0.65978  1.0000
  C   C734      1.0  0.30211  0.16025  0.61723  1.0000
  H   H736      1.0  0.48181  0.12605  0.73936  1.0000
  H   H737      1.0  0.09548  0.44420  0.69274  1.0000
  S   S273      1.0  0.04925  0.34141  0.76055  1.0000
  C   C735      1.0  0.30658  0.18103  0.74741  1.0000
  S   S274      1.0  0.27935  0.11091  0.75004  1.0000
  H   H738      1.0  0.03556  0.41921  0.60845  1.0000
  C   C736      1.0  0.08462  0.40838  0.59145  1.0000
  H   H739      1.0  0.23203  0.10359  0.58640  1.0000
  N   N60       1.0  0.34336  0.09215  0.71177  1.0000
  H   H740      1.0  0.46844  0.02605  0.72630  1.0000
  H   H741      1.0  0.05212  0.43494  0.61130  1.0000
  C   C737      1.0  0.48216  0.14461  0.71869  1.0000
  H   H742      1.0  0.08084  0.10514  0.68096  1.0000
  H   H743      1.0  0.36077  0.07123  0.71462  1.0000
  C   C738      1.0  0.02883  0.21662  0.65403  1.0000
  H   H744      1.0  0.36635  0.08861  0.71487  1.0000
  C   C739      1.0  0.16776  0.00402  0.60539  1.0000
  C   C740      1.0  0.04215  0.08341  0.64374  1.0000
  H   H745      1.0  0.06750  0.13250  0.67850  1.0000
  C   C741      1.0  0.10894  0.43709  0.67160  1.0000
  C   C742      1.0  0.01517  0.47065  0.66553  1.0000
  C   C743      1.0  0.31118  0.16432  0.62480  1.0000
  C   C744      1.0  0.42636  0.07415  0.74747  1.0000
  H   H746      1.0  0.10056  0.41042  0.61678  1.0000
  H   H747      1.0  0.36560  0.08524  0.69685  1.0000
  C   C745      1.0  0.15339  0.04294  0.59309  1.0000
  C   C746      1.0  0.15990  0.04604  0.60370  1.0000
  C   C747      1.0  0.17567  0.04696  0.59981  1.0000
  C   C748      1.0  0.19813  0.13146  0.72950  1.0000
  H   H748      1.0  0.13623  0.98671  0.59986  1.0000
  C   C749      1.0  0.45448  0.06526  0.74366  1.0000
  H   H749      1.0  0.15283  0.04770  0.61494  1.0000
  H   H750      1.0  0.18062  0.04944  0.60803  1.0000
  C   C750      1.0  0.07721  0.39537  0.61772  1.0000
  S   S275      1.0  0.33709  0.11107  0.58449  1.0000
  C   C751      1.0  0.06480  0.10207  0.65246  1.0000
  C   C752      1.0  0.06793  0.10878  0.63657  1.0000
  C   C753      1.0  0.05885  0.12319  0.63087  1.0000
  C   C754      1.0  0.04676  0.13100  0.64097  1.0000
  H   H751      1.0  0.07167  0.09082  0.65690  1.0000
  H   H752      1.0  0.06124  0.12841  0.61858  1.0000
  H   H753      1.0  0.03983  0.14204  0.63633  1.0000
  C   C755      1.0  0.03921  0.23616  0.59109  1.0000
  H   H754      1.0  0.08348  0.99172  0.64216  1.0000
  H   H755      1.0  0.04758  0.33784  0.59390  1.0000
  H   H756      1.0  0.03530  0.19185  0.66266  1.0000
  C   C756      1.0  0.05706  0.00264  0.67364  1.0000
  C   C757      1.0  0.21728  0.13902  0.69085  1.0000
  C   C758      1.0  0.23155  0.13509  0.69547  1.0000
  C   C759      1.0  0.23506  0.14483  0.70284  1.0000
  C   C760      1.0  0.22427  0.15852  0.70567  1.0000
  C   C761      1.0  0.21014  0.16260  0.70075  1.0000
  C   C762      1.0  0.20667  0.15291  0.69332  1.0000
  H   H757      1.0  0.23980  0.12437  0.69356  1.0000
  H   H758      1.0  0.24595  0.14157  0.70657  1.0000
  H   H759      1.0  0.20166  0.17307  0.70306  1.0000
  H   H760      1.0  0.19549  0.15592  0.69008  1.0000
  C   C763      1.0  0.21973  0.16356  0.60827  1.0000
  C   C764      1.0  0.22826  0.15772  0.61995  1.0000
  C   C765      1.0  0.24434  0.15743  0.61633  1.0000
  C   C766      1.0  0.25196  0.16254  0.60097  1.0000
  C   C767      1.0  0.24350  0.16804  0.58926  1.0000
  C   C768      1.0  0.22736  0.16871  0.59294  1.0000
  H   H761      1.0  0.22250  0.15343  0.63176  1.0000
  H   H762      1.0  0.25092  0.15298  0.62538  1.0000
  H   H763      1.0  0.11855  0.01524  0.61329  1.0000
  H   H764      1.0  0.22077  0.17326  0.58391  1.0000
  C   C769      1.0  0.14380  0.11456  0.65743  1.0000
  C   C770      1.0  0.13150  0.11113  0.65355  1.0000
  C   C771      1.0  0.13250  0.09609  0.65187  1.0000
  C   C772      1.0  0.14575  0.08437  0.65428  1.0000
  C   C773      1.0  0.15811  0.08782  0.65806  1.0000
  C   C774      1.0  0.15720  0.10293  0.65953  1.0000
  H   H765      1.0  0.12126  0.12021  0.65179  1.0000
  H   H766      1.0  0.12306  0.09350  0.64876  1.0000
  H   H767      1.0  0.16839  0.07876  0.65993  1.0000
  H   H768      1.0  0.16670  0.10549  0.66258  1.0000
  C   C775      1.0  0.13371  0.23300  0.65026  1.0000
  C   C776      1.0  0.13227  0.23124  0.66614  1.0000
  C   C777      1.0  0.14022  0.21760  0.67463  1.0000
  C   C778      1.0  0.14947  0.20560  0.66730  1.0000
  C   C779      1.0  0.15102  0.20735  0.65138  1.0000
  C   C780      1.0  0.14326  0.22112  0.64282  1.0000
  H   H769      1.0  0.12534  0.24057  0.67183  1.0000
  H   H770      1.0  0.13916  0.21636  0.68691  1.0000
  H   H771      1.0  0.15828  0.19818  0.64563  1.0000
  H   H772      1.0  0.14441  0.22249  0.63051  1.0000
  C   C781      1.0  0.08557  0.29177  0.70317  1.0000
  C   C782      1.0  0.09549  0.29792  0.68958  1.0000
  C   C783      1.0  0.10229  0.31005  0.68926  1.0000
  C   C784      1.0  0.09913  0.31617  0.70246  1.0000
  C   C785      1.0  0.08948  0.30978  0.71613  1.0000
  C   C786      1.0  0.08284  0.29754  0.71651  1.0000
  H   H773      1.0  0.09784  0.29341  0.67929  1.0000
  H   H774      1.0  0.10987  0.31484  0.67868  1.0000
  H   H775      1.0  0.08696  0.31436  0.72639  1.0000
  H   H776      1.0  0.07521  0.29281  0.72708  1.0000
  C   C787      1.0  0.05815  0.30771  0.62305  1.0000
  C   C788      1.0  0.04916  0.31766  0.61262  1.0000
  C   C789      1.0  0.05469  0.33007  0.60171  1.0000
  C   C790      1.0  0.06940  0.33243  0.60088  1.0000
  C   C791      1.0  0.07869  0.32225  0.61095  1.0000
  C   C792      1.0  0.07304  0.30989  0.62207  1.0000
  H   H777      1.0  0.03793  0.31578  0.61287  1.0000
  H   H778      1.0  0.30355  0.11296  0.63559  1.0000
  H   H779      1.0  0.09016  0.32396  0.61026  1.0000
  H   H780      1.0  0.08020  0.30213  0.62985  1.0000
  C   C793      1.0  0.05143  0.21869  0.66846  1.0000
  C   C794      1.0  0.04294  0.23219  0.66036  1.0000
  C   C795      1.0  0.03158  0.23116  0.65328  1.0000
  H   H781      1.0  0.04502  0.24345  0.65971  1.0000
  C   C796      1.0  0.04982  0.08597  0.62814  1.0000
  C   C797      1.0  0.99293  0.30796  0.62278  1.0000
  C   C798      1.0  0.04052  0.25145  0.58926  1.0000
  H   H782      1.0  0.44684  0.09771  0.65095  1.0000
  C   C799      1.0  0.07291  0.13426  0.66622  1.0000
  C   C800      1.0  0.07103  0.38539  0.61318  1.0000
  C   C801      1.0  0.04385  0.12465  0.65690  1.0000
  H   H783      1.0  0.34194  0.08150  0.77223  1.0000
  S   S276      1.0  0.02949  0.13529  0.66949  1.0000
  C   C802      1.0  0.05192  0.43431  0.59989  1.0000
  Fe  Fe136     1.0  0.28409  0.11413  0.57603  1.0000
  H   H784      1.0  0.42479  0.06659  0.68904  1.0000
  H   H785      1.0  0.41570  0.06844  0.73224  1.0000
  C   C803      1.0  0.02054  0.31190  0.58953  1.0000
  H   H786      1.0  0.44143  0.08193  0.69261  1.0000
  N   N61       1.0  0.04242  0.22506  0.60391  1.0000
  C   C804      1.0  0.31882  0.09903  0.72932  1.0000
  H   H787      1.0  0.09616  0.01080  0.64617  1.0000
  H   H788      1.0  0.02667  0.47046  0.58119  1.0000
  C   C805      1.0  0.33716  0.10148  0.69948  1.0000
  C   C806      1.0  0.48077  0.09356  0.68942  1.0000
  H   H789      1.0  0.00768  0.19487  0.59444  1.0000
  C   C807      1.0  0.05278  0.11007  0.66267  1.0000
  H   H790      1.0  0.30042  0.11529  0.71897  1.0000
  C   C808      1.0  0.31755  0.13270  0.76766  1.0000
  H   H791      1.0  0.25047  0.12268  0.73332  1.0000
  C   C809      1.0  0.23267  0.11373  0.57691  1.0000
  C   C810      1.0  0.01361  0.41806  0.73527  1.0000
  H   H792      1.0  0.42766  0.09909  0.68528  1.0000
  N   N62       1.0  0.45432  0.00947  0.73181  1.0000
  H   H793      1.0  0.41956  0.05410  0.67093  1.0000
  C   C811      1.0  0.06169  0.33852  0.70448  1.0000
  Fe  Fe137     1.0  0.28444  0.14542  0.58067  1.0000
  N   N63       1.0  0.08378  0.40674  0.60690  1.0000
  C   C812      1.0  0.36573  0.06834  0.76773  1.0000
  C   C813      1.0  0.45916  0.01995  0.75081  1.0000
  C   C814      1.0  0.04651  0.31432  0.71112  1.0000
  H   H794      1.0  0.31628  0.18499  0.73803  1.0000
  H   H795      1.0  0.04629  0.07283  0.65177  1.0000
  H   H796      1.0  0.04315  0.47717  0.59864  1.0000
  H   H797      1.0  0.31071  0.17648  0.62399  1.0000
  C   C815      1.0  0.15884  0.08629  0.59698  1.0000
  N   N64       1.0  0.38884  0.11311  0.58355  1.0000
  S   S277      1.0  0.00668  0.46272  0.76740  1.0000
  S   S278      1.0  0.07166  0.45493  0.58838  1.0000
  H   H798      1.0  0.02646  0.33351  0.58806  1.0000
  H   H799      1.0  0.31977  0.12028  0.77269  1.0000
  C   C816      1.0  0.06396  0.99479  0.66154  1.0000
  C   C817      1.0  0.02954  0.09480  0.64904  1.0000
  C   C818      1.0  0.12491  0.00472  0.62037  1.0000
  C   C819      1.0  0.33818  0.13843  0.59083  1.0000
  H   H800      1.0  0.18733  0.13560  0.72537  1.0000
  H   H801      1.0  0.43878  0.99380  0.74037  1.0000
  C   C820      1.0  0.43042  0.06895  0.65051  1.0000
  N   N65       1.0  0.43647  0.08259  0.67108  1.0000
  N   N66       1.0  0.11176  0.19944  0.66553  1.0000
  C   C821      1.0  0.10778  0.20131  0.68048  1.0000
  C   C822      1.0  0.12106  0.18578  0.66195  1.0000
  C   C823      1.0  0.11384  0.18969  0.69215  1.0000
  C   C824      1.0  0.12703  0.17377  0.67341  1.0000
  C   C825      1.0  0.12361  0.17587  0.68854  1.0000
  C   C826      1.0  0.10534  0.21182  0.65347  1.0000
  H   H802      1.0  0.09993  0.21188  0.68343  1.0000
  H   H803      1.0  0.12400  0.18413  0.65017  1.0000
  H   H804      1.0  0.11102  0.19143  0.70389  1.0000
  H   H805      1.0  0.13436  0.16293  0.67059  1.0000
  H   H806      1.0  0.12859  0.16682  0.69739  1.0000
  H   H807      1.0  0.09374  0.21038  0.65314  1.0000
  H   H808      1.0  0.10381  0.22346  0.65584  1.0000
  H   H809      1.0  0.11339  0.21183  0.64190  1.0000
  H   H810      1.0  0.32843  0.15570  0.63892  1.0000
  N   N67       1.0  0.13208  0.30642  0.73154  1.0000
  C   C827      1.0  0.12779  0.30049  0.74713  1.0000
  C   C828      1.0  0.12940  0.29996  0.72106  1.0000
  C   C829      1.0  0.11991  0.28825  0.75257  1.0000
  C   C830      1.0  0.12166  0.28764  0.72609  1.0000
  C   C831      1.0  0.11674  0.28187  0.74195  1.0000
  C   C832      1.0  0.14005  0.31945  0.72594  1.0000
  H   H811      1.0  0.13008  0.30547  0.75546  1.0000
  H   H812      1.0  0.13284  0.30464  0.70870  1.0000
  C   C833      1.0  0.26805  0.19281  0.77056  1.0000
  H   H813      1.0  0.11910  0.28291  0.71771  1.0000
  H   H814      1.0  0.11040  0.27256  0.74599  1.0000
  H   H815      1.0  0.13777  0.32617  0.73503  1.0000
  H   H816      1.0  0.15287  0.31504  0.72245  1.0000
  H   H817      1.0  0.13572  0.32775  0.71585  1.0000
  C   C834      1.0  0.32176  0.13703  0.63396  1.0000
  C   C835      1.0  0.04860  0.20415  0.66930  1.0000
  H   H818      1.0  0.06732  0.30905  0.67696  1.0000
  C   C836      1.0  0.04473  0.09992  0.61803  1.0000
  H   H819      1.0  0.12418  0.00722  0.63172  1.0000
  C   C837      1.0  0.32148  0.15445  0.74605  1.0000
  C   C838      1.0  0.44960  0.01122  0.76253  1.0000
  S   S279      1.0  0.99797  0.17657  0.66340  1.0000
  N   N68       1.0  0.14124  0.00071  0.61204  1.0000
  H   H820      1.0  0.24499  0.13469  0.59336  1.0000
  C   C839      1.0  0.46128  0.01901  0.73542  1.0000
  H   H821      1.0  0.06579  0.37637  0.62173  1.0000
  H   H822      1.0  0.07667  0.39406  0.62995  1.0000
  C   C840      1.0  0.20827  0.11756  0.72654  1.0000
  H   H823      1.0  0.22033  0.14276  0.74659  1.0000
  C   C841      1.0  0.99389  0.33053  0.57904  1.0000
  H   H824      1.0  0.00251  0.44441  0.63370  1.0000
  H   H825      1.0  0.44916  0.01892  0.70955  1.0000
  H   H826      1.0  0.01331  0.43030  0.75831  1.0000
  H   H827      1.0  0.34077  0.15960  0.59486  1.0000
  H   H828      1.0  0.31389  0.11506  0.61550  1.0000
  H   H829      1.0  0.01566  0.34703  0.76767  1.0000
  N   N69       1.0  0.02201  0.46926  0.60550  1.0000
  H   H830      1.0  0.24938  0.17204  0.57739  1.0000
  C   C842      1.0  0.14509  0.99141  0.60162  1.0000
  H   H831      1.0  0.29439  0.16918  0.61055  1.0000
  C   C843      1.0  0.00734  0.37114  0.76921  1.0000
  H   H832      1.0  0.41535  0.08006  0.75358  1.0000
  C   C844      1.0  0.10279  0.46346  0.67498  1.0000
  H   H833      1.0  0.14755  0.08776  0.59438  1.0000
  C   C845      1.0  0.37885  0.06055  0.77405  1.0000
  C   C846      1.0  0.01895  0.35773  0.76693  1.0000
  N   N70       1.0  0.20168  0.19806  0.63926  1.0000
  C   C847      1.0  0.21697  0.19024  0.63604  1.0000
  C   C848      1.0  0.19459  0.20033  0.65393  1.0000
  C   C849      1.0  0.22557  0.18441  0.64768  1.0000
  C   C850      1.0  0.20283  0.19463  0.66585  1.0000
  C   C851      1.0  0.21841  0.18660  0.66268  1.0000
  C   C852      1.0  0.19249  0.20280  0.62728  1.0000
  H   H834      1.0  0.22249  0.18814  0.62450  1.0000
  H   H835      1.0  0.18237  0.20619  0.65662  1.0000
  H   H836      1.0  0.23758  0.17791  0.64515  1.0000
  H   H837      1.0  0.19699  0.19606  0.67755  1.0000
  H   H838      1.0  0.22483  0.18186  0.67191  1.0000
  H   H839      1.0  0.19988  0.20610  0.61554  1.0000
  H   H840      1.0  0.18754  0.19294  0.62740  1.0000
  H   H841      1.0  0.18270  0.21299  0.62922  1.0000
  H   H842      1.0  0.42770  0.06387  0.64250  1.0000
  C   C853      1.0  0.01158  0.38493  0.76843  1.0000
  H   H843      1.0  0.05199  0.24684  0.62269  1.0000
  C   C854      1.0  0.04014  0.20936  0.60584  1.0000
  C   C855      1.0  0.00988  0.31614  0.63282  1.0000
  C   C856      1.0  0.01294  0.45358  0.59430  1.0000
  C   C857      1.0  0.44467  0.00109  0.74320  1.0000
  C   C858      1.0  0.07814  0.99769  0.65160  1.0000
  H   H844      1.0  0.05123  0.10208  0.60609  1.0000
  H   H845      1.0  0.04736  0.31945  0.67624  1.0000
  C   C859      1.0  0.06221  0.33102  0.69295  1.0000
  H   H846      1.0  0.00192  0.42449  0.73940  1.0000
  S   S280      1.0  0.27901  0.23837  0.77151  1.0000
  S   S281      1.0  0.48574  0.07054  0.75888  1.0000
  C   C860      1.0  0.18650  0.08260  0.58905  1.0000
  H   H847      1.0  0.03354  0.13444  0.61314  1.0000
  C   C861      1.0  0.18759  0.08195  0.60411  1.0000
  C   C862      1.0  0.15950  0.08596  0.61209  1.0000
  H   H848      1.0  0.11609  0.28393  0.76495  1.0000
  H   H849      1.0  0.06006  0.07750  0.62403  1.0000
  H   H850      1.0  0.44782  0.01187  0.77451  1.0000
  H   H851      1.0  0.19894  0.07985  0.60683  1.0000
  H   H852      1.0  0.40081  0.08933  0.58921  1.0000
  H   H853      1.0  0.33063  0.14443  0.58279  1.0000
  H   H854      1.0  0.19498  0.15162  0.73870  1.0000
  C   C863      1.0  0.16276  0.04046  0.57873  1.0000
  H   H855      1.0  0.08112  0.42216  0.62134  1.0000
  S   S282      1.0  0.40451  0.99444  0.76241  1.0000
  H   H856      1.0  0.27015  0.13265  0.76975  1.0000
  S   S283      1.0  0.99863  0.47292  0.72594  1.0000
  C   C864      1.0  0.45685  0.00877  0.71555  1.0000
  H   H857      1.0  0.11185  0.48004  0.65527  1.0000
  H   H858      1.0  0.32687  0.15876  0.73403  1.0000
  H   H859      1.0  0.38701  0.09683  0.60514  1.0000
  Fe  Fe138     1.0  0.00137  0.27595  0.57890  1.0000
  N   N71       1.0  0.05469  0.31908  0.69636  1.0000
  C   C865      1.0  0.39596  0.09974  0.59439  1.0000
  H   H860      1.0  0.37797  0.02260  0.77084  1.0000
  H   H861      1.0  0.03769  0.26028  0.57917  1.0000
  H   H862      1.0  0.06815  0.34760  0.70184  1.0000
  S   S284      1.0  0.40659  0.03793  0.74717  1.0000
  H   H863      1.0  0.14890  0.08723  0.62107  1.0000
  C   C866      1.0  0.04574  0.32157  0.72293  1.0000
  N   N72       1.0  0.02623  0.42010  0.73911  1.0000
  H   H864      1.0  0.09082  0.14010  0.62229  1.0000
  C   C867      1.0  0.03738  0.20309  0.66202  1.0000
  H   H865      1.0  0.33297  0.13048  0.74546  1.0000
  S   S285      1.0  0.03185  0.17309  0.63800  1.0000
  C   C868      1.0  0.42578  0.06351  0.66648  1.0000
  S   S286      1.0  0.01529  0.21579  0.64406  1.0000
  C   C869      1.0  0.42656  0.06758  0.73535  1.0000
  C   C870      1.0  0.20240  0.14042  0.73701  1.0000
  H   H866      1.0  0.05511  0.19370  0.67561  1.0000
  H   H867      1.0  0.03205  0.39061  0.71400  1.0000
  H   H868      1.0  0.31179  0.09801  0.74107  1.0000
  C   C871      1.0  0.06722  0.14804  0.65625  1.0000
  S   S287      1.0  0.07591  0.34825  0.58728  1.0000
  H   H869      1.0  0.46455  0.10598  0.70624  1.0000
  H   H870      1.0  0.13806  0.45396  0.63233  1.0000
  H   H871      1.0  0.30345  0.18844  0.75604  1.0000
  C   C872      1.0  0.02741  0.12573  0.61266  1.0000
  C   C873      1.0  0.02471  0.10858  0.63860  1.0000
  C   C874      1.0  0.17180  0.99439  0.59487  1.0000
  C   C875      1.0  0.30382  0.15897  0.76961  1.0000
  C   C876      1.0  0.00626  0.44607  0.60911  1.0000
  H   H872      1.0  0.03070  0.39583  0.76507  1.0000
  S   S288      1.0  0.99711  0.40182  0.77135  1.0000
  H   H873      1.0  0.11887  0.99504  0.62261  1.0000
  C   C877      1.0  0.00754  0.45025  0.62211  1.0000
  H   H874      1.0  0.23918  0.29501  0.77379  1.0000
  Fe  Fe139     1.0  0.31477  0.12161  0.57576  1.0000
  H   H875      1.0  0.35885  0.98326  0.75318  1.0000
  S   S289      1.0  0.34548  0.32775  0.89107  1.0000
  Fe  Fe140     1.0  0.26905  0.25323  0.82273  1.0000
  C   C878      1.0  0.24607  0.35581  0.81293  1.0000
  C   C879      1.0  0.29399  0.47025  0.80201  1.0000
  H   H876      1.0  0.33309  0.30804  0.80874  1.0000
  S   S290      1.0  0.19259  0.35024  0.84110  1.0000
  C   C880      1.0  0.34273  0.27189  0.81536  1.0000
  H   H877      1.0  0.11446  0.40963  0.85510  1.0000
  C   C881      1.0  0.22718  0.29570  0.83529  1.0000
  Fe  Fe141     1.0  0.31010  0.05227  0.84721  1.0000
  S   S291      1.0  0.32977  0.05499  0.85590  1.0000
  S   S292      1.0  0.30409  0.02837  0.85515  1.0000
  Fe  Fe142     1.0  0.30534  0.08584  0.82850  1.0000
  S   S293      1.0  0.32501  0.09086  0.83507  1.0000
  S   S294      1.0  0.29162  0.10724  0.81532  1.0000
  Fe  Fe143     1.0  0.33764  0.06711  0.83129  1.0000
  S   S295      1.0  0.36283  0.06154  0.81925  1.0000
  Fe  Fe144     1.0  0.31520  0.07861  0.85901  1.0000
  S   S296      1.0  0.31027  0.09029  0.87908  1.0000
  S   S297      1.0  0.31894  0.06308  0.82229  1.0000
  S   S298      1.0  0.29458  0.07484  0.85276  1.0000
  Fe  Fe145     1.0  0.13958  0.44017  0.93480  1.0000
  C   C882      1.0  0.33342  0.36313  0.81922  1.0000
  H   H878      1.0  0.23080  0.38152  0.85491  1.0000
  C   C883      1.0  0.43500  0.32954  0.91965  1.0000
  C   C884      1.0  0.21867  0.44857  0.88015  1.0000
  H   H879      1.0  0.15483  0.34138  0.79892  1.0000
  H   H880      1.0  0.05070  0.42124  0.93768  1.0000
  C   C885      1.0  0.33096  0.21080  0.86050  1.0000
  H   H881      1.0  0.26443  0.37813  0.82253  1.0000
  C   C886      1.0  0.22052  0.31090  0.82825  1.0000
  H   H882      1.0  0.43344  0.30080  0.90448  1.0000
  H   H883      1.0  0.37076  0.15351  0.94457  1.0000
  C   C887      1.0  0.35657  0.03251  0.78538  1.0000
  Fe  Fe146     1.0  0.40855  0.23758  0.95110  1.0000
  S   S299      1.0  0.40560  0.26098  0.95582  1.0000
  S   S300      1.0  0.43074  0.22107  0.95585  1.0000
  Fe  Fe147     1.0  0.37729  0.24571  0.94225  1.0000
  S   S301      1.0  0.37154  0.26991  0.94618  1.0000
  S   S302      1.0  0.35794  0.23906  0.93658  1.0000
  Fe  Fe148     1.0  0.39656  0.27015  0.93412  1.0000
  S   S303      1.0  0.40496  0.29028  0.91656  1.0000
  C   C888      1.0  0.22528  0.39861  0.81413  1.0000
  H   H884      1.0  0.34792  0.27607  0.80330  1.0000
  S   S304      1.0  0.40160  0.24686  0.92810  1.0000
  C   C889      1.0  0.31723  0.48123  0.80693  1.0000
  S   S305      1.0  0.26778  0.23138  0.81702  1.0000
  S   S306      1.0  0.29005  0.24188  0.83327  1.0000
  Fe  Fe149     1.0  0.29025  0.22092  0.82506  1.0000
  S   S307      1.0  0.29657  0.19586  0.83727  1.0000
  Fe  Fe150     1.0  0.35819  0.17360  0.90361  1.0000
  S   S308      1.0  0.33740  0.17788  0.92287  1.0000
  S   S309      1.0  0.37563  0.18900  0.89587  1.0000
  Fe  Fe151     1.0  0.34914  0.14549  0.89954  1.0000
  S   S310      1.0  0.32771  0.14734  0.91886  1.0000
  S   S311      1.0  0.35678  0.12832  0.88384  1.0000
  Fe  Fe152     1.0  0.32419  0.17291  0.90840  1.0000
  S   S312      1.0  0.30095  0.18872  0.90606  1.0000
  Fe  Fe153     1.0  0.34279  0.15213  0.93189  1.0000
  C   C890      1.0  0.07482  0.44133  0.95129  1.0000
  S   S313      1.0  0.34449  0.17095  0.88811  1.0000
  S   S314      1.0  0.36478  0.14793  0.91350  1.0000
  S   S315      1.0  0.11506  0.43765  0.93789  1.0000
  S   S316      1.0  0.15759  0.41799  0.93819  1.0000
  H   H885      1.0  0.22264  0.45420  0.91300  1.0000
  C   C891      1.0  0.29011  0.14356  0.93740  1.0000
  Fe  Fe154     1.0  0.16955  0.34381  0.84547  1.0000
  S   S317      1.0  0.16169  0.32710  0.86742  1.0000
  Fe  Fe155     1.0  0.05800  0.39547  0.89316  1.0000
  S   S318      1.0  0.05551  0.37455  0.91263  1.0000
  S   S319      1.0  0.04013  0.40930  0.87893  1.0000
  Fe  Fe156     1.0  0.09066  0.39471  0.89596  1.0000
  S   S320      1.0  0.09111  0.37363  0.91541  1.0000
  S   S321      1.0  0.11174  0.40536  0.88694  1.0000
  Fe  Fe157     1.0  0.08031  0.36492  0.90139  1.0000
  S   S322      1.0  0.08940  0.34054  0.89794  1.0000
  Fe  Fe158     1.0  0.06656  0.38538  0.92489  1.0000
  S   S323      1.0  0.05749  0.38656  0.95019  1.0000
  S   S324      1.0  0.08198  0.38500  0.88096  1.0000
  S   S325      1.0  0.06682  0.40733  0.90632  1.0000
  H   H886      1.0  0.34960  0.31583  0.92253  1.0000
  C   C892      1.0  0.35533  0.22583  0.85381  1.0000
  H   H887      1.0  0.09081  0.38588  0.94127  1.0000
  C   C893      1.0  0.14160  0.33117  0.87579  1.0000
  C   C894      1.0  0.13276  0.34648  0.87418  1.0000
  C   C895      1.0  0.11679  0.34945  0.88135  1.0000
  C   C896      1.0  0.10957  0.33709  0.88984  1.0000
  C   C897      1.0  0.11837  0.32180  0.89126  1.0000
  C   C898      1.0  0.13441  0.31886  0.88446  1.0000
  H   H888      1.0  0.13823  0.35606  0.86772  1.0000
  H   H889      1.0  0.11006  0.36127  0.88013  1.0000
  H   H890      1.0  0.11282  0.31221  0.89779  1.0000
  H   H891      1.0  0.14122  0.30701  0.88580  1.0000
  C   C899      1.0  0.11469  0.42815  0.92389  1.0000
  C   C900      1.0  0.10387  0.41882  0.92716  1.0000
  C   C901      1.0  0.10286  0.41198  0.91573  1.0000
  C   C902      1.0  0.11289  0.41416  0.90109  1.0000
  C   C903      1.0  0.12407  0.42305  0.89795  1.0000
  C   C904      1.0  0.12496  0.43004  0.90934  1.0000
  H   H892      1.0  0.09632  0.41675  0.93856  1.0000
  H   H893      1.0  0.09436  0.40496  0.91830  1.0000
  H   H894      1.0  0.13196  0.42470  0.88669  1.0000
  H   H895      1.0  0.13336  0.43718  0.90668  1.0000
  S   S326      1.0  0.47744  0.26593  0.93641  1.0000
  H   H896      1.0  0.31819  0.21503  0.83711  1.0000
  H   H897      1.0  0.28736  0.28422  0.85371  1.0000
  H   H898      1.0  0.24866  0.38747  0.84501  1.0000
  H   H899      1.0  0.22595  0.34729  0.82754  1.0000
  H   H900      1.0  0.14633  0.40138  0.86126  1.0000
  S   S327      1.0  0.46864  0.05183  0.79304  1.0000
  C   C905      1.0  0.29795  0.36759  0.89521  1.0000
  H   H901      1.0  0.30404  0.99604  0.86105  1.0000
  H   H902      1.0  0.22123  0.29023  0.84660  1.0000
  H   H903      1.0  0.20949  0.31705  0.83412  1.0000
  C   C906      1.0  0.29669  0.19357  0.85676  1.0000
  C   C907      1.0  0.30586  0.18009  0.86415  1.0000
  C   C908      1.0  0.30677  0.17840  0.87949  1.0000
  C   C909      1.0  0.29847  0.19017  0.88750  1.0000
  C   C910      1.0  0.28898  0.20349  0.88027  1.0000
  C   C911      1.0  0.28817  0.20525  0.86484  1.0000
  H   H904      1.0  0.31263  0.17112  0.85790  1.0000
  H   H905      1.0  0.31399  0.16800  0.88508  1.0000
  H   H906      1.0  0.28252  0.21260  0.88647  1.0000
  H   H907      1.0  0.28089  0.21558  0.85925  1.0000
  C   C912      1.0  0.36318  0.22618  0.92414  1.0000
  C   C913      1.0  0.37886  0.22041  0.91762  1.0000
  C   C914      1.0  0.38263  0.20932  0.90848  1.0000
  C   C915      1.0  0.37076  0.20391  0.90603  1.0000
  C   C916      1.0  0.35511  0.21017  0.91208  1.0000
  C   C917      1.0  0.35133  0.22126  0.92112  1.0000
  H   H908      1.0  0.38807  0.22421  0.91986  1.0000
  H   H909      1.0  0.39478  0.20460  0.90371  1.0000
  H   H910      1.0  0.34587  0.20658  0.90969  1.0000
  H   H911      1.0  0.33917  0.22586  0.92597  1.0000
  H   H912      1.0  0.28570  0.14040  0.92916  1.0000
  H   H913      1.0  0.18270  0.45894  0.87160  1.0000
  C   C918      1.0  0.36888  0.18772  0.95181  1.0000
  H   H914      1.0  0.20023  0.27081  0.82202  1.0000
  H   H915      1.0  0.36376  0.20762  0.96202  1.0000
  H   H916      1.0  0.31040  0.36633  0.81529  1.0000
  C   C919      1.0  0.12219  0.40888  0.84387  1.0000
  N   N73       1.0  0.37132  0.17188  0.95434  1.0000
  C   C920      1.0  0.24323  0.37716  0.84942  1.0000
  H   H917      1.0  0.24925  0.36869  0.85831  1.0000
  C   C921      1.0  0.44475  0.23250  0.94977  1.0000
  C   C922      1.0  0.45635  0.22972  0.95808  1.0000
  H   H918      1.0  0.28459  0.46619  0.80038  1.0000
  Fe  Fe159     1.0  0.48896  0.26560  0.95509  1.0000
  H   H919      1.0  0.31128  0.12753  0.96536  1.0000
  C   C923      1.0  0.00944  0.38583  0.86511  1.0000
  C   C924      1.0  0.01959  0.37689  0.87495  1.0000
  C   C925      1.0  0.02974  0.38370  0.87870  1.0000
  C   C926      1.0  0.02970  0.39953  0.87266  1.0000
  C   C927      1.0  0.02003  0.40827  0.86239  1.0000
  C   C928      1.0  0.00989  0.40149  0.85872  1.0000
  H   H920      1.0  0.01930  0.36476  0.87997  1.0000
  H   H921      1.0  0.03715  0.37686  0.88667  1.0000
  S   S328      1.0  0.46842  0.08917  0.78697  1.0000
  C   C929      1.0  0.34800  0.27473  0.82706  1.0000
  C   C930      1.0  0.46491  0.25301  0.94182  1.0000
  C   C931      1.0  0.20070  0.46420  0.89693  1.0000
  S   S329      1.0  0.14251  0.37363  0.80210  1.0000
  C   C932      1.0  0.99621  0.41468  0.79377  1.0000
  H   H922      1.0  0.10356  0.43941  0.97142  1.0000
  H   H923      1.0  0.23036  0.44193  0.87640  1.0000
  C   C933      1.0  0.21076  0.39435  0.82024  1.0000
  H   H924      1.0  0.31805  0.34985  0.88899  1.0000
  N   N74       1.0  0.43674  0.31477  0.91786  1.0000
  S   S330      1.0  0.18269  0.39390  0.84135  1.0000
  C   C934      1.0  0.19193  0.45823  0.87726  1.0000
  C   C935      1.0  0.32334  0.10083  0.88015  1.0000
  C   C936      1.0  0.33796  0.10060  0.86991  1.0000
  C   C937      1.0  0.34807  0.10914  0.87112  1.0000
  C   C938      1.0  0.34357  0.11811  0.88242  1.0000
  C   C939      1.0  0.32881  0.11858  0.89244  1.0000
  C   C940      1.0  0.31879  0.10989  0.89136  1.0000
  H   H925      1.0  0.34156  0.09365  0.86124  1.0000
  H   H926      1.0  0.35946  0.10874  0.86335  1.0000
  H   H927      1.0  0.32524  0.12540  0.90119  1.0000
  H   H928      1.0  0.30748  0.11013  0.89929  1.0000
  C   C941      1.0  0.30505  0.99711  0.82346  1.0000
  C   C942      1.0  0.12640  0.40504  0.81800  1.0000
  C   C943      1.0  0.30468  0.00072  0.84876  1.0000
  C   C944      1.0  0.30521  0.01647  0.84253  1.0000
  C   C945      1.0  0.30601  0.02243  0.82664  1.0000
  C   C946      1.0  0.30596  0.01276  0.81715  1.0000
  H   H929      1.0  0.22882  0.24944  0.81583  1.0000
  H   H930      1.0  0.47556  0.09853  0.84878  1.0000
  H   H931      1.0  0.30620  0.03458  0.82175  1.0000
  H   H932      1.0  0.30623  0.01755  0.80493  1.0000
  C   C947      1.0  0.41674  0.31947  0.84976  1.0000
  H   H933      1.0  0.01453  0.45964  0.79654  1.0000
  C   C948      1.0  0.29408  0.09441  0.79060  1.0000
  C   C949      1.0  0.28815  0.10731  0.79751  1.0000
  C   C950      1.0  0.27943  0.12097  0.78994  1.0000
  H   H934      1.0  0.15510  0.47943  0.95510  1.0000
  C   C951      1.0  0.22986  0.40888  0.87816  1.0000
  H   H935      1.0  0.30081  0.08380  0.79644  1.0000
  H   H936      1.0  0.27469  0.13094  0.79526  1.0000
  Fe  Fe160     1.0  0.26304  0.42016  0.85996  1.0000
  C   C952      1.0  0.33467  0.25131  0.97159  1.0000
  H   H937      1.0  0.38789  0.16187  0.93649  1.0000
  C   C953      1.0  0.48268  0.31897  0.94146  1.0000
  C   C954      1.0  0.36413  0.06497  0.79932  1.0000
  C   C955      1.0  0.35130  0.07363  0.79287  1.0000
  H   H938      1.0  0.14232  0.48081  0.97379  1.0000
  H   H939      1.0  0.41528  0.26587  0.87567  1.0000
  H   H940      1.0  0.15918  0.41026  0.82456  1.0000
  H   H941      1.0  0.34076  0.07909  0.80000  1.0000
  H   H942      1.0  0.30117  0.13870  0.78819  1.0000
  H   H943      1.0  0.36476  0.23190  0.85106  1.0000
  C   C956      1.0  0.08698  0.38539  0.95355  1.0000
  H   H944      1.0  0.45638  0.29651  0.92204  1.0000
  H   H945      1.0  0.01574  0.40386  0.90675  1.0000
  C   C957      1.0  0.48565  0.32512  0.95241  1.0000
  C   C958      1.0  0.19851  0.48123  0.94496  1.0000
  H   H946      1.0  0.26864  0.01640  0.85409  1.0000
  C   C959      1.0  0.33054  0.21630  0.83292  1.0000
  N   N75       1.0  0.13728  0.41053  0.84093  1.0000
  C   C960      1.0  0.34939  0.21904  0.86918  1.0000
  C   C961      1.0  0.28464  0.47734  0.83876  1.0000
  S   S331      1.0  0.33937  0.34384  0.81680  1.0000
  H   H947      1.0  0.35439  0.21950  0.87841  1.0000
  C   C962      1.0  0.33080  0.17058  0.96549  1.0000
  C   C963      1.0  0.36228  0.32055  0.89878  1.0000
  C   C964      1.0  0.37707  0.31908  0.88874  1.0000
  C   C965      1.0  0.39044  0.31081  0.89447  1.0000
  C   C966      1.0  0.38902  0.30390  0.91025  1.0000
  C   C967      1.0  0.37439  0.30627  0.92045  1.0000
  C   C968      1.0  0.36100  0.31464  0.91473  1.0000
  H   H948      1.0  0.37819  0.32383  0.87644  1.0000
  H   H949      1.0  0.40169  0.30898  0.88650  1.0000
  H   H950      1.0  0.37335  0.30137  0.93273  1.0000
  C   C969      1.0  0.20407  0.41303  0.89503  1.0000
  H   H951      1.0  0.29085  0.40475  0.87423  1.0000
  H   H952      1.0  0.20852  0.41031  0.87161  1.0000
  H   H953      1.0  0.24648  0.35060  0.80353  1.0000
  H   H954      1.0  0.27920  0.38764  0.89832  1.0000
  C   C970      1.0  0.29467  0.29198  0.81437  1.0000
  H   H955      1.0  0.43878  0.36697  0.81844  1.0000
  H   H956      1.0  0.45268  0.26529  0.92349  1.0000
  H   H957      1.0  0.24907  0.24558  0.79204  1.0000
  H   H958      1.0  0.48402  0.08353  0.86325  1.0000
  C   C971      1.0  0.31221  0.36194  0.88577  1.0000
  H   H959      1.0  0.42096  0.32325  0.88647  1.0000
  Fe  Fe161     1.0  0.46118  0.35145  0.86437  1.0000
  H   H960      1.0  0.24809  0.31527  0.79465  1.0000
  S   S332      1.0  0.18376  0.41798  0.89711  1.0000
  H   H961      1.0  0.43865  0.30318  0.85199  1.0000
  C   C972      1.0  0.38821  0.25955  0.87851  1.0000
  C   C973      1.0  0.42821  0.34248  0.90947  1.0000
  C   C974      1.0  0.42492  0.32515  0.89573  1.0000
  C   C975      1.0  0.42317  0.34024  0.89741  1.0000
  C   C976      1.0  0.32969  0.26084  0.84649  1.0000
  H   H962      1.0  0.42720  0.35417  0.91074  1.0000
  H   H963      1.0  0.33972  0.37468  0.85570  1.0000
  H   H964      1.0  0.41815  0.35016  0.88923  1.0000
  N   N76       1.0  0.08765  0.35446  0.85247  1.0000
  C   C977      1.0  0.09843  0.34144  0.85722  1.0000
  C   C978      1.0  0.09162  0.36466  0.83872  1.0000
  C   C979      1.0  0.11384  0.33877  0.84855  1.0000
  C   C980      1.0  0.10688  0.36222  0.82965  1.0000
  C   C981      1.0  0.11808  0.34927  0.83470  1.0000
  C   C982      1.0  0.07155  0.35713  0.86170  1.0000
  H   H965      1.0  0.09519  0.33311  0.86790  1.0000
  H   H966      1.0  0.08295  0.37471  0.83470  1.0000
  H   H967      1.0  0.12247  0.32867  0.85264  1.0000
  H   H968      1.0  0.11004  0.37025  0.81871  1.0000
  H   H969      1.0  0.12998  0.34734  0.82781  1.0000
  H   H970      1.0  0.06405  0.35236  0.85737  1.0000
  H   H971      1.0  0.07110  0.35146  0.87417  1.0000
  H   H972      1.0  0.06654  0.36977  0.86120  1.0000
  C   C983      1.0  0.24245  0.25721  0.79319  1.0000
  H   H973      1.0  0.99635  0.37382  0.80373  1.0000
  H   H974      1.0  0.48103  0.02199  0.81873  1.0000
  Fe  Fe162     1.0  0.16319  0.46054  0.92759  1.0000
  H   H975      1.0  0.19811  0.46997  0.90646  1.0000
  C   C984      1.0  0.14568  0.34663  0.79251  1.0000
  H   H976      1.0  0.30035  0.11985  0.94731  1.0000
  C   C985      1.0  0.20999  0.27595  0.82182  1.0000
  C   C986      1.0  0.37156  0.02309  0.78261  1.0000
  H   H977      1.0  0.44529  0.30430  0.93874  1.0000
  C   C987      1.0  0.38013  0.27162  0.90003  1.0000
  H   H978      1.0  0.39011  0.00718  0.79288  1.0000
  C   C988      1.0  0.48813  0.09104  0.81625  1.0000
  C   C989      1.0  0.46755  0.34429  0.93134  1.0000
  H   H979      1.0  0.32157  0.20473  0.86323  1.0000
  S   S333      1.0  0.34212  0.14198  0.95751  1.0000
  C   C990      1.0  0.26705  0.00492  0.83724  1.0000
  H   H980      1.0  0.36934  0.17222  0.93163  1.0000
  C   C991      1.0  0.47753  0.09586  0.86074  1.0000
  C   C992      1.0  0.30460  0.99106  0.83928  1.0000
  H   H981      1.0  0.38806  0.05226  0.79476  1.0000
  H   H982      1.0  0.26601  0.36609  0.80107  1.0000
  H   H983      1.0  0.32907  0.17527  0.95387  1.0000
  C   C993      1.0  0.34693  0.02516  0.82883  1.0000
  C   C994      1.0  0.06481  0.43846  0.93080  1.0000
  C   C995      1.0  0.34366  0.37010  0.82242  1.0000
  H   H984      1.0  0.45092  0.32222  0.85644  1.0000
  C   C996      1.0  0.20702  0.44977  0.87243  1.0000
  H   H985      1.0  0.00376  0.42813  0.89230  1.0000
  H   H986      1.0  0.15359  0.41798  0.84859  1.0000
  C   C997      1.0  0.24114  0.28735  0.82754  1.0000
  Fe  Fe163     1.0  0.17223  0.43003  0.91687  1.0000
  H   H987      1.0  0.40379  0.28539  0.87579  1.0000
  N   N77       1.0  0.35528  0.02435  0.81285  1.0000
  N   N78       1.0  0.39119  0.26767  0.88741  1.0000
  Fe  Fe164     1.0  0.16675  0.42993  0.95082  1.0000
  C   C998      1.0  0.36576  0.19502  0.96416  1.0000
  H   H988      1.0  0.30617  0.47937  0.84267  1.0000
  C   C999      1.0  0.29027  0.38310  0.89109  1.0000
  C   C1000     1.0  0.40578  0.27323  0.88274  1.0000
  C   C1001     1.0  0.36572  0.26733  0.90411  1.0000
  C   C1002     1.0  0.29834  0.13203  0.94757  1.0000
  H   H989      1.0  0.20593  0.47188  0.95154  1.0000
  C   C1003     1.0  0.45369  0.25544  0.93320  1.0000
  S   S334      1.0  0.27473  0.40409  0.84376  1.0000
  H   H990      1.0  0.06421  0.44127  0.91868  1.0000
  H   H991      1.0  0.13399  0.42071  0.86011  1.0000
  S   S335      1.0  0.46498  0.33267  0.88545  1.0000
  C   C1004     1.0  0.14310  0.41278  0.85331  1.0000
  C   C1005     1.0  0.26429  0.99330  0.86458  1.0000
  H   H992      1.0  0.00198  0.40863  0.85144  1.0000
  H   H993      1.0  0.47593  0.34449  0.81140  1.0000
  C   C1006     1.0  0.32436  0.31024  0.81951  1.0000
  H   H994      1.0  0.28219  0.16815  0.92921  1.0000
  H   H995      1.0  0.46518  0.36239  0.94308  1.0000
  H   H996      1.0  0.43753  0.29198  0.93213  1.0000
  C   C1007     1.0  0.23442  0.35403  0.82642  1.0000
  C   C1008     1.0  0.34151  0.26918  0.84265  1.0000
  H   H997      1.0  0.30778  0.44720  0.80902  1.0000
  C   C1009     1.0  0.17420  0.44839  0.97232  1.0000
  H   H998      1.0  0.43817  0.31514  0.81266  1.0000
  C   C1010     1.0  0.07350  0.44572  0.93579  1.0000
  C   C1011     1.0  0.23683  0.28492  0.78287  1.0000
  S   S336      1.0  0.25828  0.47569  0.83069  1.0000
  S   S337      1.0  0.17299  0.41868  0.97392  1.0000
  H   H999      1.0  0.35726  0.28100  0.82399  1.0000
  C   C1012     1.0  0.30204  0.15208  0.95766  1.0000
  H   H1000     1.0  0.00340  0.42277  0.79257  1.0000
  C   C1013     1.0  0.99569  0.42239  0.89051  1.0000
  H   H1001     1.0  0.29594  0.12533  0.86808  1.0000
  H   H1002     1.0  0.48488  0.09626  0.88658  1.0000
  C   C1014     1.0  0.00511  0.39907  0.90933  1.0000
  C   C1015     1.0  0.14712  0.40928  0.82683  1.0000
  C   C1016     1.0  0.33676  0.15467  0.97039  1.0000
  H   H1003     1.0  0.33070  0.22690  0.82337  1.0000
  H   H1004     1.0  0.01341  0.39286  0.80222  1.0000
  C   C1017     1.0  0.32422  0.25825  0.83478  1.0000
  H   H1005     1.0  0.29097  0.18167  0.95902  1.0000
  N   N79       1.0  0.24423  0.36983  0.83678  1.0000
  N   N80       1.0  0.39832  0.08586  0.80167  1.0000
  C   C1018     1.0  0.41168  0.08297  0.80699  1.0000
  C   C1019     1.0  0.38394  0.08840  0.81148  1.0000
  C   C1020     1.0  0.41085  0.08249  0.82254  1.0000
  C   C1021     1.0  0.38266  0.08787  0.82713  1.0000
  C   C1022     1.0  0.39622  0.08492  0.83266  1.0000
  C   C1023     1.0  0.39962  0.08606  0.78537  1.0000
  H   H1006     1.0  0.42309  0.08097  0.79918  1.0000
  H   H1007     1.0  0.37332  0.09057  0.80735  1.0000
  H   H1008     1.0  0.42150  0.08016  0.82670  1.0000
  H   H1009     1.0  0.37122  0.08951  0.83493  1.0000
  H   H1010     1.0  0.39537  0.08446  0.84479  1.0000
  H   H1011     1.0  0.38799  0.08850  0.78247  1.0000
  H   H1012     1.0  0.40599  0.09509  0.77766  1.0000
  H   H1013     1.0  0.40627  0.07455  0.78282  1.0000
  H   H1014     1.0  0.26947  0.18580  0.79460  1.0000
  H   H1015     1.0  0.07987  0.45411  0.92755  1.0000
  H   H1016     1.0  0.35147  0.25555  0.89825  1.0000
  H   H1017     1.0  0.48475  0.23413  0.91869  1.0000
  H   H1018     1.0  0.43911  0.33144  0.92882  1.0000
  C   C1024     1.0  0.07143  0.38493  0.96093  1.0000
  H   H1019     1.0  0.23206  0.41174  0.91356  1.0000
  H   H1020     1.0  0.34172  0.35714  0.87020  1.0000
  S   S338      1.0  0.25586  0.41141  0.88555  1.0000
  H   H1021     1.0  0.12225  0.40274  0.80905  1.0000
  C   C1025     1.0  0.37503  0.16450  0.94113  1.0000
  C   C1026     1.0  0.43193  0.31249  0.90600  1.0000
  H   H1022     1.0  0.37306  0.15031  0.97102  1.0000
  C   C1027     1.0  0.22697  0.41123  0.90445  1.0000
  H   H1023     1.0  0.39673  0.25686  0.86821  1.0000
  H   H1024     1.0  0.23718  0.40749  0.86694  1.0000
  S   S339      1.0  0.28069  0.43503  0.85093  1.0000
  C   C1028     1.0  0.24881  0.29455  0.81300  1.0000
  C   C1029     1.0  0.25701  0.36442  0.81159  1.0000
  H   H1025     1.0  0.30153  0.39337  0.81933  1.0000
  H   H1026     1.0  0.47671  0.43519  0.89598  1.0000
  C   C1030     1.0  0.30440  0.13631  0.95774  1.0000
  C   C1031     1.0  0.37395  0.25494  0.88236  1.0000
  N   N81       1.0  0.45181  0.34376  0.81777  1.0000
  N   N82       1.0  0.14633  0.37180  0.89786  1.0000
  C   C1032     1.0  0.14589  0.38448  0.90319  1.0000
  C   C1033     1.0  0.15841  0.36711  0.88624  1.0000
  C   C1034     1.0  0.15788  0.39270  0.89704  1.0000
  C   C1035     1.0  0.17062  0.37505  0.87986  1.0000
  C   C1036     1.0  0.17030  0.38795  0.88527  1.0000
  C   C1037     1.0  0.13326  0.36386  0.90389  1.0000
  H   H1027     1.0  0.13614  0.38840  0.91217  1.0000
  H   H1028     1.0  0.15867  0.35717  0.88184  1.0000
  H   H1029     1.0  0.15750  0.40277  0.90129  1.0000
  H   H1030     1.0  0.18017  0.37132  0.87064  1.0000
  H   H1031     1.0  0.17961  0.39434  0.88032  1.0000
  H   H1032     1.0  0.13714  0.35134  0.90334  1.0000
  H   H1033     1.0  0.12783  0.36435  0.91622  1.0000
  H   H1034     1.0  0.12419  0.36958  0.89693  1.0000
  N   N83       1.0  0.29340  0.13956  0.84595  1.0000
  C   C1038     1.0  0.28600  0.13210  0.84015  1.0000
  C   C1039     1.0  0.29131  0.15545  0.84182  1.0000
  C   C1040     1.0  0.27632  0.14055  0.82979  1.0000
  C   C1041     1.0  0.28178  0.16425  0.83143  1.0000
  C   C1042     1.0  0.27426  0.15672  0.82537  1.0000
  C   C1043     1.0  0.30328  0.13037  0.85693  1.0000
  H   H1035     1.0  0.28762  0.11949  0.84345  1.0000
  H   H1036     1.0  0.29699  0.16147  0.84651  1.0000
  H   H1037     1.0  0.27055  0.13453  0.82517  1.0000
  H   H1038     1.0  0.28024  0.17685  0.82816  1.0000
  H   H1039     1.0  0.26681  0.16336  0.81732  1.0000
  C   C1044     1.0  0.46569  0.34604  0.82121  1.0000
  C   C1045     1.0  0.05727  0.42723  0.94142  1.0000
  N   N84       1.0  0.48652  0.10608  0.86240  1.0000
  C   C1046     1.0  0.42555  0.35345  0.81371  1.0000
  H   H1040     1.0  0.33757  0.20595  0.82822  1.0000
  H   H1041     1.0  0.23417  0.46312  0.89486  1.0000
  C   C1047     1.0  0.05865  0.42330  0.95688  1.0000
  H   H1042     1.0  0.20962  0.44392  0.86295  1.0000
  S   S340      1.0  0.24801  0.26768  0.83592  1.0000
  C   C1048     1.0  0.47396  0.32867  0.93064  1.0000
  H   H1043     1.0  0.38235  0.27825  0.90694  1.0000
  H   H1044     1.0  0.20520  0.28841  0.82236  1.0000
  H   H1045     1.0  0.35699  0.27049  0.91414  1.0000
  H   H1046     1.0  0.40995  0.27303  0.89307  1.0000
  H   H1047     1.0  0.20722  0.38737  0.81466  1.0000
  C   C1049     1.0  0.48868  0.07673  0.82691  1.0000
  S   S341      1.0  0.24623  0.43570  0.84540  1.0000
  H   H1048     1.0  0.31010  0.13738  0.85941  1.0000
  H   H1049     1.0  0.43453  0.24753  0.93085  1.0000
  C   C1050     1.0  0.21367  0.41039  0.88081  1.0000
  C   C1051     1.0  0.30494  0.29639  0.83817  1.0000
  H   H1050     1.0  0.28840  0.46496  0.83952  1.0000
  H   H1051     1.0  0.29290  0.35998  0.90563  1.0000
  H   H1052     1.0  0.17613  0.44983  0.95995  1.0000
  S   S342      1.0  0.14716  0.45115  0.94957  1.0000
  H   H1053     1.0  0.35546  0.36370  0.82311  1.0000
  N   N85       1.0  0.33679  0.21756  0.84548  1.0000
  H   H1054     1.0  0.32758  0.23818  0.95965  1.0000
  Fe  Fe165     1.0  0.35309  0.32098  0.86816  1.0000
  S   S343      1.0  0.38471  0.23431  0.96480  1.0000
  H   H1055     1.0  0.41520  0.36281  0.81330  1.0000
  C   C1052     1.0  0.18873  0.47772  0.93763  1.0000
  N   N86       1.0  0.31874  0.37154  0.87271  1.0000
  S   S344      1.0  0.18336  0.43999  0.92975  1.0000
  C   C1053     1.0  0.99331  0.45735  0.81397  1.0000
  Fe  Fe166     1.0  0.46761  0.35181  0.89458  1.0000
  H   H1056     1.0  0.46382  0.35783  0.82342  1.0000
  S   S345      1.0  0.43988  0.35585  0.85434  1.0000
  S   S346      1.0  0.15638  0.36831  0.83900  1.0000
  H   H1057     1.0  0.25957  0.28829  0.80694  1.0000
  C   C1054     1.0  0.29269  0.28866  0.84173  1.0000
  C   C1055     1.0  0.31113  0.38669  0.86841  1.0000
  C   C1056     1.0  0.29684  0.39271  0.87758  1.0000
  H   H1058     1.0  0.10958  0.38597  0.95615  1.0000
  S   S347      1.0  0.36661  0.33480  0.84730  1.0000
  C   C1057     1.0  0.32345  0.39384  0.82357  1.0000
  C   C1058     1.0  0.36264  0.25892  0.89522  1.0000
  S   S348      1.0  0.17369  0.33856  0.82206  1.0000
  S   S349      1.0  0.30579  0.22761  0.80179  1.0000
  H   H1059     1.0  0.20344  0.41426  0.91823  1.0000
  C   C1059     1.0  0.23641  0.40979  0.88985  1.0000
  C   C1060     1.0  0.21076  0.41289  0.90702  1.0000
  H   H1060     1.0  0.22424  0.36007  0.84856  1.0000
  S   S350      1.0  0.15362  0.45163  0.91259  1.0000
  H   H1061     1.0  0.31612  0.39423  0.85789  1.0000
  H   H1062     1.0  0.37559  0.00880  0.81981  1.0000
  H   H1063     1.0  0.46589  0.09715  0.86887  1.0000
  H   H1064     1.0  0.19772  0.41249  0.85045  1.0000
  H   H1065     1.0  0.31181  0.12058  0.85220  1.0000
  S   S351      1.0  0.37009  0.29825  0.86712  1.0000
  C   C1061     1.0  0.46628  0.24013  0.95426  1.0000
  C   C1062     1.0  0.29240  0.17977  0.94723  1.0000
  H   H1066     1.0  0.27592  0.21016  0.79505  1.0000
  H   H1067     1.0  0.37150  0.24868  0.87522  1.0000
  C   C1063     1.0  0.34856  0.03303  0.80067  1.0000
  Fe  Fe167     1.0  0.28329  0.23949  0.79415  1.0000
  H   H1068     1.0  0.05282  0.41445  0.96495  1.0000
  C   C1064     1.0  0.43896  0.35574  0.81656  1.0000
  H   H1069     1.0  0.14759  0.32575  0.78497  1.0000
  S   S352      1.0  0.33784  0.31634  0.85549  1.0000
  H   H1070     1.0  0.33151  0.35900  0.85527  1.0000
  C   C1065     1.0  0.33363  0.36529  0.86296  1.0000
  H   H1071     1.0  0.32468  0.25646  0.85856  1.0000
  H   H1072     1.0  0.32859  0.45698  0.81346  1.0000
  C   C1066     1.0  0.28753  0.28647  0.82972  1.0000
  H   H1073     1.0  0.33230  0.20623  0.88449  1.0000
  H   H1074     1.0  0.27812  0.28038  0.83230  1.0000
  Fe  Fe168     1.0  0.17983  0.37447  0.83257  1.0000
  C   C1067     1.0  0.42532  0.33880  0.81216  1.0000
  C   C1068     1.0  0.43202  0.31492  0.85240  1.0000
  H   H1075     1.0  0.26593  0.99014  0.82319  1.0000
  C   C1069     1.0  0.48876  0.42879  0.89171  1.0000
  H   H1076     1.0  0.31503  0.25193  0.83787  1.0000
  C   C1070     1.0  0.13799  0.36221  0.79201  1.0000
  N   N87       1.0  0.22237  0.27408  0.80790  1.0000
  H   H1077     1.0  0.40884  0.35734  0.85235  1.0000
  H   H1078     1.0  0.34867  0.01349  0.83675  1.0000
  C   C1071     1.0  0.14183  0.40650  0.81517  1.0000
  S   S353      1.0  0.34824  0.27222  0.85748  1.0000
  H   H1079     1.0  0.99874  0.45547  0.82360  1.0000
  Fe  Fe169     1.0  0.48818  0.36551  0.86466  1.0000
  Fe  Fe170     1.0  0.16213  0.36375  0.81506  1.0000
  C   C1072     1.0  0.20085  0.39927  0.83340  1.0000
  C   C1073     1.0  0.44436  0.30126  0.92821  1.0000
  N   N88       1.0  0.31194  0.30167  0.82306  1.0000
  C   C1074     1.0  0.24553  0.27003  0.78137  1.0000
  H   H1080     1.0  0.47509  0.23808  0.96081  1.0000
  Fe  Fe171     1.0  0.49059  0.33068  0.87435  1.0000
  Fe  Fe172     1.0  0.30378  0.24952  0.80928  1.0000
  Fe  Fe173     1.0  0.19569  0.34737  0.81695  1.0000
  C   C1075     1.0  0.22797  0.31791  0.81352  1.0000
  Fe  Fe174     1.0  0.29100  0.42046  0.83312  1.0000
  C   C1076     1.0  0.43076  0.34112  0.85453  1.0000
  C   C1077     1.0  0.41528  0.34543  0.85263  1.0000
  H   H1081     1.0  0.30300  0.18370  0.93955  1.0000
  C   C1078     1.0  0.34893  0.22488  0.84201  1.0000
  H   H1082     1.0  0.48736  0.30683  0.94109  1.0000
  H   H1083     1.0  0.33699  0.04052  0.80271  1.0000
  C   C1079     1.0  0.40825  0.33463  0.85039  1.0000
  H   H1084     1.0  0.39654  0.33832  0.84835  1.0000
  Fe  Fe175     1.0  0.25936  0.42082  0.82823  1.0000
  C   C1080     1.0  0.43899  0.32568  0.85491  1.0000
  C   C1081     1.0  0.18879  0.46572  0.88942  1.0000
  C   C1082     1.0  0.30691  0.29962  0.81122  1.0000
  C   C1083     1.0  0.44346  0.24535  0.93732  1.0000
  H   H1085     1.0  0.41477  0.33665  0.81064  1.0000
  H   H1086     1.0  0.34674  0.39094  0.82666  1.0000
  C   C1084     1.0  0.31863  0.46515  0.80940  1.0000
  H   H1087     1.0  0.47200  0.32402  0.92192  1.0000
  Fe  Fe176     1.0  0.35301  0.32802  0.83426  1.0000
  Fe  Fe177     1.0  0.38307  0.31167  0.84547  1.0000
  S   S354      1.0  0.28275  0.26229  0.79917  1.0000
  S   S355      1.0  0.31717  0.41270  0.82718  1.0000
  C   C1085     1.0  0.23020  0.40737  0.82143  1.0000
  C   C1086     1.0  0.20551  0.40846  0.84043  1.0000
  C   C1087     1.0  0.33874  0.38552  0.82436  1.0000
  H   H1088     1.0  0.33410  0.02937  0.82981  1.0000
  C   C1088     1.0  0.24227  0.30984  0.80604  1.0000
  C   C1089     1.0  0.22027  0.41233  0.83460  1.0000
  H   H1089     1.0  0.14972  0.40514  0.80411  1.0000
  H   H1090     1.0  0.26433  0.99413  0.87610  1.0000
  S   S356      1.0  0.18451  0.37235  0.80792  1.0000
  H   H1091     1.0  0.22392  0.41917  0.84024  1.0000
  S   S357      1.0  0.32438  0.26068  0.80408  1.0000
  S   S358      1.0  0.40928  0.30665  0.84393  1.0000
  Fe  Fe178     1.0  0.35623  0.29475  0.85228  1.0000
  C   C1090     1.0  0.31828  0.37162  0.81795  1.0000
  C   C1091     1.0  0.31323  0.38689  0.82032  1.0000
  C   C1092     1.0  0.33078  0.26371  0.81917  1.0000
  H   H1092     1.0  0.18875  0.46574  0.93854  1.0000
  S   S359      1.0  0.27673  0.43599  0.81613  1.0000
  C   C1093     1.0  0.43850  0.32670  0.81329  1.0000
  S   S360      1.0  0.45632  0.35638  0.91821  1.0000
  S   S361      1.0  0.37073  0.30604  0.83017  1.0000
  C   C1094     1.0  0.25603  0.37123  0.82379  1.0000
  Fe  Fe179     1.0  0.26502  0.44943  0.83488  1.0000
  C   C1095     1.0  0.33705  0.21155  0.87258  1.0000
  H   H1093     1.0  0.48801  0.42009  0.88575  1.0000
  H   H1094     1.0  0.23603  0.44224  0.90044  1.0000
  N   N89       1.0  0.21530  0.45535  0.89252  1.0000
  S   S362      1.0  0.46228  0.37086  0.87429  1.0000
  H   H1095     1.0  0.35354  0.23028  0.83009  1.0000
  C   C1096     1.0  0.26663  0.00599  0.85219  1.0000
  S   S363      1.0  0.24922  0.41094  0.81432  1.0000
  Fe  Fe180     1.0  0.38113  0.25867  0.96746  1.0000
  H   H1096     1.0  0.21843  0.29837  0.79731  1.0000
  S   S364      1.0  0.47590  0.06511  0.82802  1.0000
  S   S365      1.0  0.21938  0.33649  0.80401  1.0000
  C   C1097     1.0  0.27402  0.20874  0.78449  1.0000
  H   H1097     1.0  0.01993  0.42051  0.85768  1.0000
  C   C1098     1.0  0.09760  0.38544  0.96203  1.0000
  C   C1099     1.0  0.11649  0.40619  0.83244  1.0000
  C   C1100     1.0  0.23360  0.36121  0.83829  1.0000
  H   H1098     1.0  0.23284  0.39488  0.80386  1.0000
  C   C1101     1.0  0.28813  0.15924  0.93752  1.0000
  H   H1099     1.0  0.21475  0.27005  0.83241  1.0000
  H   H1100     1.0  0.45730  0.21982  0.96776  1.0000
  S   S366      1.0  0.99557  0.37757  0.86190  1.0000
  H   H1101     1.0  0.10452  0.40492  0.83483  1.0000
  Fe  Fe181     1.0  0.47693  0.06691  0.80306  1.0000
  S   S367      1.0  0.30388  0.98574  0.81131  1.0000
  C   C1102     1.0  0.27042  0.19491  0.78420  1.0000
  C   C1103     1.0  0.47014  0.35030  0.94258  1.0000
  C   C1104     1.0  0.00198  0.39736  0.79938  1.0000
  C   C1105     1.0  0.37010  0.01534  0.81018  1.0000
  H   H1102     1.0  0.33093  0.30659  0.82891  1.0000
  H   H1103     1.0  0.48169  0.34554  0.96142  1.0000
  H   H1104     1.0  0.36929  0.19478  0.94018  1.0000
  H   H1105     1.0  0.35118  0.03322  0.83292  1.0000
  C   C1106     1.0  0.14157  0.33779  0.78458  1.0000
  C   C1107     1.0  0.37116  0.16288  0.96899  1.0000
  H   H1106     1.0  0.30904  0.29788  0.84756  1.0000
  C   C1108     1.0  0.37841  0.01445  0.79504  1.0000
  H   H1107     1.0  0.29102  0.29005  0.80493  1.0000
  H   H1108     1.0  0.33373  0.26183  0.96253  1.0000
  S   S368      1.0  0.47614  0.27995  0.97279  1.0000
  H   H1109     1.0  0.17496  0.47200  0.97089  1.0000
  C   C1109     1.0  0.22764  0.45371  0.90060  1.0000
  H   H1110     1.0  0.46180  0.31985  0.81733  1.0000
  C   C1110     1.0  0.22510  0.28673  0.79623  1.0000
  H   H1111     1.0  0.30698  0.15526  0.96548  1.0000
  H   H1112     1.0  0.49039  0.11757  0.83844  1.0000
  H   H1113     1.0  0.31258  0.30359  0.79924  1.0000
  H   H1114     1.0  0.28209  0.18721  0.94256  1.0000
  C   C1111     1.0  0.23089  0.25946  0.80653  1.0000
  H   H1115     1.0  0.47916  0.09540  0.80961  1.0000
  C   C1112     1.0  0.35206  0.07522  0.77709  1.0000
  N   N90       1.0  0.29393  0.16330  0.94769  1.0000
  H   H1116     1.0  0.46836  0.33756  0.83193  1.0000
  H   H1117     1.0  0.31927  0.32296  0.81798  1.0000
  C   C1113     1.0  0.45175  0.32942  0.81605  1.0000
  N   N91       1.0  0.06752  0.43018  0.96159  1.0000
  C   C1114     1.0  0.30692  0.45966  0.80692  1.0000
  C   C1115     1.0  0.12614  0.36887  0.78361  1.0000
  C   C1116     1.0  0.26511  0.99126  0.83484  1.0000
  C   C1117     1.0  0.12166  0.41857  0.97443  1.0000
  H   H1118     1.0  0.00936  0.38654  0.90892  1.0000
  H   H1119     1.0  0.32212  0.19284  0.97180  1.0000
  H   H1120     1.0  0.99834  0.40010  0.92120  1.0000
  S   S369      1.0  0.48669  0.34804  0.85229  1.0000
  H   H1121     1.0  0.26941  0.01447  0.82745  1.0000
  H   H1122     1.0  0.14012  0.39273  0.96874  1.0000
  H   H1123     1.0  0.12015  0.38092  0.78314  1.0000
  C   C1118     1.0  0.48930  0.10474  0.87663  1.0000
  H   H1124     1.0  0.17716  0.47255  0.89312  1.0000
  C   C1119     1.0  0.12980  0.34447  0.77608  1.0000
  H   H1125     1.0  0.08219  0.44652  0.95488  1.0000
  C   C1120     1.0  0.99543  0.46105  0.78636  1.0000
  C   C1121     1.0  0.00226  0.45954  0.79871  1.0000
  C   C1122     1.0  0.37801  0.05871  0.78986  1.0000
  H   H1126     1.0  0.11845  0.41355  0.96669  1.0000
  C   C1123     1.0  0.33126  0.23801  0.96995  1.0000
  N   N92       1.0  0.99531  0.40727  0.89802  1.0000
  C   C1124     1.0  0.47945  0.34079  0.95292  1.0000
  H   H1127     1.0  0.49123  0.00221  0.82565  1.0000
  C   C1125     1.0  0.29118  0.09531  0.77608  1.0000
  C   C1126     1.0  0.30705  0.14305  0.77637  1.0000
  C   C1127     1.0  0.12208  0.36005  0.77563  1.0000
  H   H1128     1.0  0.29524  0.16685  0.77630  1.0000
  H   H1129     1.0  0.49143  0.00976  0.80531  1.0000
  H   H1130     1.0  0.35134  0.03958  0.77572  1.0000
  C   C1128     1.0  0.49241  0.11656  0.84978  1.0000
  Fe  Fe182     1.0  0.49247  0.04959  0.77724  1.0000
  C   C1129     1.0  0.49166  0.01279  0.81614  1.0000
  C   C1130     1.0  0.27682  0.12195  0.77542  1.0000
  Fe  Fe183     1.0  0.46245  0.07374  0.77539  1.0000
  Fe  Fe184     1.0  0.19145  0.67648  0.11812  1.0000
  S   S370      1.0  0.18287  0.66427  0.14254  1.0000
  S   S371      1.0  0.19113  0.66596  0.09876  1.0000
  Fe  Fe185     1.0  0.20223  0.70019  0.12871  1.0000
  S   S372      1.0  0.19421  0.68983  0.15389  1.0000
  S   S373      1.0  0.21407  0.72061  0.12091  1.0000
  Fe  Fe186     1.0  0.20499  0.66699  0.14672  1.0000
  S   S374      1.0  0.22291  0.64804  0.15744  1.0000
  Fe  Fe187     1.0  0.17300  0.68836  0.14694  1.0000
  S   S375      1.0  0.14782  0.69639  0.15833  1.0000
  S   S376      1.0  0.21438  0.67746  0.12193  1.0000
  S   S377      1.0  0.18012  0.70055  0.12207  1.0000
  Fe  Fe188     1.0  0.13157  0.61176  0.08160  1.0000
  S   S378      1.0  0.13953  0.63312  0.06623  1.0000
  S   S379      1.0  0.14701  0.58874  0.08945  1.0000
  Fe  Fe189     1.0  0.09711  0.62765  0.08545  1.0000
  S   S380      1.0  0.10212  0.65037  0.07056  1.0000
  S   S381      1.0  0.07311  0.62292  0.09629  1.0000
  Fe  Fe190     1.0  0.11977  0.63559  0.05488  1.0000
  Fe  Fe191     1.0  0.12128  0.64557  0.08339  1.0000
  S   S382      1.0  0.12349  0.66272  0.09572  1.0000
  S   S383      1.0  0.11331  0.61319  0.06898  1.0000
  S   S384      1.0  0.11474  0.62391  0.09955  1.0000
  H   H1131     1.0  0.31679  0.87483  0.99722  1.0000
  H   H1132     1.0  0.28026  0.54754  0.05398  1.0000
  H   H1133     1.0  0.44998  0.63054  0.15946  1.0000
  H   H1134     1.0  0.36491  0.68826  0.15571  1.0000
  C   C1131     1.0  0.25450  0.64179  0.09074  1.0000
  C   C1132     1.0  0.27492  0.51028  0.11029  1.0000
  C   C1133     1.0  0.21604  0.50211  0.00382  1.0000
  S   S385      1.0  0.45373  0.80799  0.04378  1.0000
  H   H1135     1.0  0.34297  0.83033  0.01707  1.0000
  C   C1134     1.0  0.20667  0.51245  0.01309  1.0000
  H   H1136     1.0  0.25945  0.54216  0.99811  1.0000
  S   S386      1.0  0.20266  0.59839  0.01744  1.0000
  H   H1137     1.0  0.29116  0.68724  0.14917  1.0000
  H   H1138     1.0  0.34042  0.81946  0.99628  1.0000
  Fe  Fe192     1.0  0.37179  0.78700  0.02888  1.0000
  S   S387      1.0  0.36378  0.77315  0.01729  1.0000
  S   S388      1.0  0.35459  0.79195  0.05060  1.0000
  Fe  Fe193     1.0  0.40200  0.78839  0.00455  1.0000
  S   S389      1.0  0.39672  0.77394  0.99139  1.0000
  S   S390      1.0  0.42412  0.79730  0.99422  1.0000
  Fe  Fe194     1.0  0.37265  0.78914  0.99524  1.0000
  H   H1139     1.0  0.28947  0.48976  0.12145  1.0000
  Fe  Fe195     1.0  0.38852  0.75945  0.01485  1.0000
  S   S391      1.0  0.39297  0.73332  0.02076  1.0000
  S   S392      1.0  0.37833  0.80450  0.00699  1.0000
  S   S393      1.0  0.39622  0.77243  0.02775  1.0000
  S   S394      1.0  0.38070  0.71107  0.09385  1.0000
  Fe  Fe196     1.0  0.28506  0.88018  0.03105  1.0000
  S   S395      1.0  0.29983  0.89292  0.03662  1.0000
  S   S396      1.0  0.28199  0.88580  0.00639  1.0000
  Fe  Fe197     1.0  0.27935  0.86054  0.06364  1.0000
  S   S397      1.0  0.29416  0.87075  0.07216  1.0000
  S   S398      1.0  0.26484  0.84362  0.07927  1.0000
  Fe  Fe198     1.0  0.28243  0.89363  0.05922  1.0000
  S   S399      1.0  0.27522  0.91499  0.06945  1.0000
  Fe  Fe199     1.0  0.31060  0.86953  0.04913  1.0000
  S   S400      1.0  0.33668  0.86421  0.04531  1.0000
  S   S401      1.0  0.26615  0.88358  0.05233  1.0000
  S   S402      1.0  0.29727  0.85650  0.04192  1.0000
  H   H1140     1.0  0.33104  0.85818  0.01762  1.0000
  H   H1141     1.0  0.06599  0.63012  0.15381  1.0000
  C   C1135     1.0  0.42289  0.69247  0.09912  1.0000
  C   C1136     1.0  0.19617  0.57072  0.01844  1.0000
  C   C1137     1.0  0.22057  0.63704  0.07841  1.0000
  Fe  Fe200     1.0  0.31364  0.94020  0.12187  1.0000
  C   C1138     1.0  0.24312  0.61706  0.07133  1.0000
  S   S403      1.0  0.32012  0.92243  0.10702  1.0000
  Fe  Fe201     1.0  0.32880  0.95040  0.14212  1.0000
  C   C1139     1.0  0.45081  0.66659  0.14865  1.0000
  Fe  Fe202     1.0  0.30153  0.97225  0.12964  1.0000
  S   S404      1.0  0.30075  0.77624  0.10560  1.0000
  S   S405      1.0  0.31971  0.92926  0.14505  1.0000
  S   S406      1.0  0.32510  0.96018  0.11792  1.0000
  H   H1142     1.0  0.43095  0.83930  0.98658  1.0000
  H   H1143     1.0  0.11907  0.64869  0.99746  1.0000
  S   S407      1.0  0.16240  0.51596  0.05151  1.0000
  H   H1144     1.0  0.14987  0.72199  0.16900  1.0000
  Fe  Fe203     1.0  0.22552  0.57847  0.06494  1.0000
  S   S408      1.0  0.23370  0.59306  0.04156  1.0000
  S   S409      1.0  0.21686  0.58785  0.08646  1.0000
  Fe  Fe204     1.0  0.22754  0.55071  0.05238  1.0000
  S   S410      1.0  0.23584  0.56266  0.02791  1.0000
  S   S411      1.0  0.22632  0.52571  0.05699  1.0000
  Fe  Fe205     1.0  0.25106  0.57099  0.03767  1.0000
  S   S412      1.0  0.27588  0.57004  0.02473  1.0000
  Fe  Fe206     1.0  0.21770  0.58348  0.03395  1.0000
  S   S413      1.0  0.24442  0.55719  0.06186  1.0000
  S   S414      1.0  0.20787  0.57080  0.05768  1.0000
  C   C1140     1.0  0.24344  0.73623  0.13614  1.0000
  Fe  Fe207     1.0  0.27638  0.59273  0.10837  1.0000
  S   S415      1.0  0.29292  0.60856  0.09618  1.0000
  S   S416      1.0  0.25041  0.60153  0.11235  1.0000
  Fe  Fe208     1.0  0.30198  0.56331  0.10994  1.0000
  S   S417      1.0  0.32110  0.57655  0.09823  1.0000
  S   S418      1.0  0.30706  0.53700  0.11735  1.0000
  Fe  Fe209     1.0  0.30746  0.59362  0.11322  1.0000
  S   S419      1.0  0.31721  0.60493  0.12625  1.0000
  Fe  Fe210     1.0  0.30497  0.59036  0.08227  1.0000
  S   S420      1.0  0.31341  0.59580  0.05647  1.0000
  S   S421      1.0  0.28976  0.57901  0.12663  1.0000
  S   S422      1.0  0.28702  0.57590  0.09281  1.0000
  C   C1141     1.0  0.28166  0.87485  0.98170  1.0000
  C   C1142     1.0  0.27261  0.52644  0.10479  1.0000
  C   C1143     1.0  0.28255  0.53466  0.10670  1.0000
  C   C1144     1.0  0.29493  0.52681  0.11406  1.0000
  C   C1145     1.0  0.45502  0.70485  0.10742  1.0000
  H   H1145     1.0  0.20143  0.56603  0.02840  1.0000
  H   H1146     1.0  0.26301  0.53266  0.09914  1.0000
  H   H1147     1.0  0.28043  0.54708  0.10263  1.0000
  S   S423      1.0  0.12274  0.64229  0.02878  1.0000
  N   N93       1.0  0.32755  0.84092  0.98515  1.0000
  C   C1146     1.0  0.28575  0.57834  0.03306  1.0000
  C   C1147     1.0  0.30144  0.57886  0.02643  1.0000
  C   C1148     1.0  0.30973  0.58472  0.03341  1.0000
  C   C1149     1.0  0.30241  0.58991  0.04715  1.0000
  C   C1150     1.0  0.28657  0.58975  0.05359  1.0000
  C   C1151     1.0  0.27824  0.58392  0.04658  1.0000
  H   H1148     1.0  0.30726  0.57459  0.01596  1.0000
  H   H1149     1.0  0.32194  0.58492  0.02836  1.0000
  H   H1150     1.0  0.28074  0.59420  0.06391  1.0000
  H   H1151     1.0  0.26609  0.58360  0.05171  1.0000
  H   H1152     1.0  0.48624  0.77653  0.08941  1.0000
  C   C1152     1.0  0.48902  0.62681  0.12602  1.0000
  C   C1153     1.0  0.18039  0.51851  0.05258  1.0000
  C   C1154     1.0  0.18173  0.53332  0.05264  1.0000
  C   C1155     1.0  0.19596  0.53567  0.05352  1.0000
  C   C1156     1.0  0.20890  0.52321  0.05444  1.0000
  C   C1157     1.0  0.20764  0.50839  0.05422  1.0000
  C   C1158     1.0  0.19339  0.50604  0.05330  1.0000
  H   H1153     1.0  0.17170  0.54297  0.05208  1.0000
  H   H1154     1.0  0.19677  0.54708  0.05377  1.0000
  H   H1155     1.0  0.21761  0.49867  0.05504  1.0000
  H   H1156     1.0  0.19242  0.49450  0.05355  1.0000
  H   H1157     1.0  0.26957  0.52668  0.05362  1.0000
  C   C1159     1.0  0.28653  0.91616  0.08167  1.0000
  C   C1160     1.0  0.29957  0.90438  0.08467  1.0000
  C   C1161     1.0  0.30927  0.90610  0.09325  1.0000
  C   C1162     1.0  0.30612  0.91970  0.09875  1.0000
  C   C1163     1.0  0.29276  0.93127  0.09632  1.0000
  C   C1164     1.0  0.28298  0.92949  0.08777  1.0000
  H   H1158     1.0  0.30255  0.89418  0.07991  1.0000
  H   H1159     1.0  0.31958  0.89712  0.09512  1.0000
  H   H1160     1.0  0.29028  0.94185  0.10046  1.0000
  H   H1161     1.0  0.27291  0.93866  0.08549  1.0000
  C   C1165     1.0  0.28248  0.87095  0.99738  1.0000
  H   H1162     1.0  0.21174  0.51677  0.01998  1.0000
  H   H1163     1.0  0.45384  0.77818  0.98024  1.0000
  H   H1164     1.0  0.44243  0.76362  0.98911  1.0000
  C   C1166     1.0  0.28560  0.84368  0.99745  1.0000
  C   C1167     1.0  0.28438  0.85532  0.00526  1.0000
  H   H1165     1.0  0.26048  0.54396  0.15554  1.0000
  S   S424      1.0  0.36080  0.80158  0.97548  1.0000
  H   H1166     1.0  0.28709  0.83162  0.00360  1.0000
  H   H1167     1.0  0.28489  0.85225  0.01734  1.0000
  C   C1168     1.0  0.29084  0.79545  0.09985  1.0000
  C   C1169     1.0  0.26660  0.81435  0.09730  1.0000
  C   C1170     1.0  0.27504  0.82534  0.08744  1.0000
  C   C1171     1.0  0.29140  0.82154  0.08415  1.0000
  C   C1172     1.0  0.29929  0.80658  0.09041  1.0000
  H   H1168     1.0  0.25392  0.81730  0.09984  1.0000
  H   H1169     1.0  0.29791  0.83006  0.07666  1.0000
  H   H1170     1.0  0.31193  0.80354  0.08789  1.0000
  C   C1173     1.0  0.33802  0.61606  0.10001  1.0000
  C   C1174     1.0  0.33025  0.61706  0.11525  1.0000
  C   C1175     1.0  0.33417  0.62661  0.12249  1.0000
  C   C1176     1.0  0.34639  0.63444  0.11487  1.0000
  H   H1171     1.0  0.33504  0.60877  0.09432  1.0000
  H   H1172     1.0  0.32807  0.62755  0.13422  1.0000
  H   H1173     1.0  0.34966  0.64139  0.12072  1.0000
  C   C1177     1.0  0.35050  0.81182  0.05019  1.0000
  C   C1178     1.0  0.33581  0.81878  0.05789  1.0000
  C   C1179     1.0  0.33178  0.83488  0.05665  1.0000
  C   C1180     1.0  0.34254  0.84401  0.04792  1.0000
  C   C1181     1.0  0.35744  0.83703  0.04054  1.0000
  C   C1182     1.0  0.36140  0.82089  0.04159  1.0000
  H   H1174     1.0  0.32742  0.81180  0.06449  1.0000
  H   H1175     1.0  0.32035  0.84027  0.06248  1.0000
  H   H1176     1.0  0.36579  0.84411  0.03377  1.0000
  H   H1177     1.0  0.37290  0.81548  0.03586  1.0000
  C   C1183     1.0  0.38896  0.72674  0.04108  1.0000
  C   C1184     1.0  0.39182  0.71078  0.04790  1.0000
  C   C1185     1.0  0.38912  0.70571  0.06416  1.0000
  C   C1186     1.0  0.38391  0.71664  0.07354  1.0000
  C   C1187     1.0  0.38106  0.73253  0.06667  1.0000
  C   C1188     1.0  0.38319  0.73754  0.05056  1.0000
  H   H1178     1.0  0.39613  0.70234  0.04064  1.0000
  H   H1179     1.0  0.39124  0.69339  0.06938  1.0000
  H   H1180     1.0  0.37722  0.74104  0.07382  1.0000
  H   H1181     1.0  0.38036  0.74981  0.04553  1.0000
  H   H1182     1.0  0.26988  0.56567  0.99622  1.0000
  Fe  Fe211     1.0  0.48258  0.68011  0.14913  1.0000
  C   C1189     1.0  0.45145  0.76355  0.01375  1.0000
  C   C1190     1.0  0.18592  0.72945  0.15751  1.0000
  C   C1191     1.0  0.48245  0.75682  0.12694  1.0000
  H   H1183     1.0  0.22850  0.49828  0.00345  1.0000
  C   C1192     1.0  0.04041  0.65396  0.12871  1.0000
  C   C1193     1.0  0.44515  0.80571  0.02990  1.0000
  C   C1194     1.0  0.42983  0.80338  0.03411  1.0000
  C   C1195     1.0  0.42320  0.80089  0.02317  1.0000
  C   C1196     1.0  0.43191  0.80073  0.00804  1.0000
  C   C1197     1.0  0.44720  0.80306  0.00386  1.0000
  C   C1198     1.0  0.45367  0.80587  0.01466  1.0000
  H   H1184     1.0  0.42315  0.80337  0.04586  1.0000
  H   H1185     1.0  0.41135  0.79914  0.02647  1.0000
  H   H1186     1.0  0.45409  0.80265  0.99227  1.0000
  H   H1187     1.0  0.46519  0.80837  0.01113  1.0000
  S   S425      1.0  0.49081  0.68315  0.12344  1.0000
  C   C1199     1.0  0.19326  0.50204  0.99539  1.0000
  H   H1188     1.0  0.15948  0.72558  0.14099  1.0000
  H   H1189     1.0  0.21652  0.48928  0.98716  1.0000
  C   C1200     1.0  0.39445  0.73131  0.98249  1.0000
  C   C1201     1.0  0.15313  0.60476  0.02337  1.0000
  H   H1190     1.0  0.31479  0.90084  0.13760  1.0000
  H   H1191     1.0  0.35153  0.77245  0.99112  1.0000
  C   C1202     1.0  0.23643  0.53879  0.12444  1.0000
  S   S426      1.0  0.30598  0.96370  0.15364  1.0000
  N   N94       1.0  0.29206  0.90054  0.15227  1.0000
  C   C1203     1.0  0.33828  0.74358  0.12118  1.0000
  C   C1204     1.0  0.34377  0.71635  0.11945  1.0000
  H   H1192     1.0  0.41010  0.69623  0.10361  1.0000
  Fe  Fe212     1.0  0.40269  0.65691  0.11976  1.0000
  C   C1205     1.0  0.10943  0.63032  0.99589  1.0000
  C   C1206     1.0  0.33746  0.75942  0.11448  1.0000
  H   H1193     1.0  0.34374  0.70946  0.11126  1.0000
  S   S427      1.0  0.00828  0.63091  0.16942  1.0000
  C   C1207     1.0  0.18837  0.59237  0.99796  1.0000
  C   C1208     1.0  0.16594  0.58917  0.08991  1.0000
  C   C1209     1.0  0.17130  0.60304  0.08473  1.0000
  C   C1210     1.0  0.18680  0.60287  0.08454  1.0000
  C   C1211     1.0  0.19684  0.58884  0.08966  1.0000
  C   C1212     1.0  0.19135  0.57507  0.09521  1.0000
  C   C1213     1.0  0.17591  0.57525  0.09537  1.0000
  H   H1194     1.0  0.16370  0.61382  0.08053  1.0000
  H   H1195     1.0  0.19111  0.61349  0.07993  1.0000
  H   H1196     1.0  0.19921  0.56413  0.09874  1.0000
  H   H1197     1.0  0.17180  0.56450  0.09930  1.0000
  C   C1214     1.0  0.04020  0.63819  0.13178  1.0000
  C   C1215     1.0  0.05017  0.62881  0.12166  1.0000
  C   C1216     1.0  0.06070  0.63503  0.10865  1.0000
  C   C1217     1.0  0.06102  0.65079  0.10559  1.0000
  H   H1198     1.0  0.03231  0.63320  0.14187  1.0000
  H   H1199     1.0  0.04983  0.61664  0.12401  1.0000
  H   H1200     1.0  0.06900  0.65572  0.09547  1.0000
  H   H1201     1.0  0.07838  0.69065  0.11804  1.0000
  H   H1202     1.0  0.36226  0.61895  0.14214  1.0000
  H   H1203     1.0  0.46240  0.61636  0.17161  1.0000
  S   S428      1.0  0.37214  0.63967  0.09151  1.0000
  C   C1218     1.0  0.43487  0.70164  0.13075  1.0000
  C   C1219     1.0  0.35036  0.77521  0.97923  1.0000
  N   N95       1.0  0.08124  0.66601  0.12697  1.0000
  H   H1204     1.0  0.42593  0.67959  0.10069  1.0000
  C   C1220     1.0  0.34736  0.70864  0.16057  1.0000
  C   C1221     1.0  0.30794  0.89528  0.14836  1.0000
  N   N96       1.0  0.26466  0.82492  0.13117  1.0000
  C   C1222     1.0  0.32224  0.86270  0.99698  1.0000
  C   C1223     1.0  0.22570  0.72255  0.13245  1.0000
  C   C1224     1.0  0.22639  0.71268  0.14701  1.0000
  C   C1225     1.0  0.23424  0.73433  0.12705  1.0000
  H   H1205     1.0  0.22004  0.70345  0.15125  1.0000
  H   H1206     1.0  0.23374  0.74204  0.11580  1.0000
  C   C1226     1.0  0.23076  0.63491  0.14512  1.0000
  C   C1227     1.0  0.22273  0.63517  0.13410  1.0000
  C   C1228     1.0  0.22886  0.62482  0.12416  1.0000
  C   C1229     1.0  0.24319  0.61433  0.12497  1.0000
  C   C1230     1.0  0.25152  0.61427  0.13568  1.0000
  C   C1231     1.0  0.24519  0.62446  0.14590  1.0000
  H   H1207     1.0  0.21169  0.64327  0.13332  1.0000
  H   H1208     1.0  0.22257  0.62509  0.11568  1.0000
  H   H1209     1.0  0.26269  0.60625  0.13626  1.0000
  H   H1210     1.0  0.25151  0.62429  0.15433  1.0000
  C   C1232     1.0  0.17230  0.66584  0.09732  1.0000
  C   C1233     1.0  0.17067  0.65750  0.08738  1.0000
  C   C1234     1.0  0.15576  0.65654  0.08673  1.0000
  C   C1235     1.0  0.14236  0.66403  0.09592  1.0000
  C   C1236     1.0  0.14397  0.67245  0.10578  1.0000
  C   C1237     1.0  0.15890  0.67331  0.10653  1.0000
  H   H1211     1.0  0.18093  0.65172  0.08019  1.0000
  H   H1212     1.0  0.15465  0.65013  0.07901  1.0000
  H   H1213     1.0  0.13367  0.67828  0.11292  1.0000
  H   H1214     1.0  0.16002  0.67973  0.11427  1.0000
  C   C1238     1.0  0.11616  0.63191  0.01922  1.0000
  C   C1239     1.0  0.15861  0.57971  0.03978  1.0000
  C   C1240     1.0  0.14677  0.58304  0.01832  1.0000
  C   C1241     1.0  0.41017  0.72756  0.98346  1.0000
  C   C1242     1.0  0.19008  0.56112  0.01326  1.0000
  H   H1215     1.0  0.30069  0.55667  0.05975  1.0000
  H   H1216     1.0  0.46162  0.75840  0.97755  1.0000
  S   S429      1.0  0.32515  0.73457  0.16629  1.0000
  C   C1243     1.0  0.35915  0.58348  0.11863  1.0000
  S   S430      1.0  0.46033  0.67124  0.16052  1.0000
  C   C1244     1.0  0.20934  0.49698  0.99478  1.0000
  C   C1245     1.0  0.16132  0.72277  0.16968  1.0000
  H   H1217     1.0  0.08913  0.67892  0.10425  1.0000
  C   C1246     1.0  0.19722  0.50914  0.09165  1.0000
  H   H1218     1.0  0.17676  0.59347  0.04741  1.0000
  H   H1219     1.0  0.16315  0.57217  0.04968  1.0000
  S   S431      1.0  0.09526  0.60754  0.99524  1.0000
  S   S432      1.0  0.27899  0.74967  0.17445  1.0000
  H   H1220     1.0  0.06455  0.67907  0.14271  1.0000
  H   H1221     1.0  0.33880  0.92613  0.17024  1.0000
  H   H1222     1.0  0.44990  0.76210  0.03796  1.0000
  C   C1247     1.0  0.16722  0.73283  0.14153  1.0000
  H   H1223     1.0  0.31876  0.53826  0.07582  1.0000
  C   C1248     1.0  0.33135  0.71547  0.16347  1.0000
  C   C1249     1.0  0.28401  0.91365  0.14191  1.0000
  C   C1250     1.0  0.22522  0.50096  0.09221  1.0000
  H   H1224     1.0  0.34785  0.60767  0.15156  1.0000
  H   H1225     1.0  0.41569  0.65920  0.14973  1.0000
  N   N97       1.0  0.36423  0.59997  0.13206  1.0000
  C   C1251     1.0  0.45450  0.76570  0.98597  1.0000
  N   N98       1.0  0.46115  0.76195  0.99968  1.0000
  H   H1226     1.0  0.28103  0.80603  0.14145  1.0000
  C   C1252     1.0  0.45169  0.65797  0.12567  1.0000
  H   H1227     1.0  0.18338  0.52541  0.02049  1.0000
  C   C1253     1.0  0.14702  0.59882  0.01443  1.0000
  S   S433      1.0  0.17550  0.55515  0.99401  1.0000
  C   C1254     1.0  0.28491  0.84760  0.98172  1.0000
  H   H1228     1.0  0.15311  0.61709  0.02035  1.0000
  Fe  Fe213     1.0  0.47993  0.80083  0.03741  1.0000
  H   H1229     1.0  0.30414  0.81649  0.12562  1.0000
  H   H1230     1.0  0.27836  0.50699  0.06139  1.0000
  H   H1231     1.0  0.47015  0.75158  0.08608  1.0000
  H   H1232     1.0  0.18823  0.49812  0.98816  1.0000
  H   H1233     1.0  0.30497  0.92345  0.04098  1.0000
  C   C1255     1.0  0.37629  0.60359  0.11995  1.0000
  C   C1256     1.0  0.32120  0.85631  0.98524  1.0000
  H   H1234     1.0  0.43056  0.70157  0.14302  1.0000
  H   H1235     1.0  0.27628  0.92250  0.14849  1.0000
  N   N99       1.0  0.30643  0.79361  0.05654  1.0000
  C   C1257     1.0  0.29078  0.79563  0.06325  1.0000
  C   C1258     1.0  0.31191  0.80459  0.04423  1.0000
  C   C1259     1.0  0.28017  0.80896  0.05765  1.0000
  C   C1260     1.0  0.30160  0.81800  0.03826  1.0000
  C   C1261     1.0  0.28565  0.82022  0.04512  1.0000
  C   C1262     1.0  0.31758  0.78017  0.06320  1.0000
  H   H1236     1.0  0.28647  0.78717  0.07331  1.0000
  H   H1237     1.0  0.32438  0.80312  0.03916  1.0000
  H   H1238     1.0  0.26784  0.81082  0.06333  1.0000
  H   H1239     1.0  0.30597  0.82677  0.02860  1.0000
  H   H1240     1.0  0.27754  0.83078  0.04095  1.0000
  H   H1241     1.0  0.31178  0.77051  0.07033  1.0000
  H   H1242     1.0  0.32711  0.77566  0.05392  1.0000
  H   H1243     1.0  0.32292  0.78371  0.07079  1.0000
  N   N100      1.0  0.07726  0.64320  0.03744  1.0000
  C   C1263     1.0  0.07404  0.63782  0.02646  1.0000
  C   C1264     1.0  0.07536  0.63508  0.05254  1.0000
  C   C1265     1.0  0.06927  0.62371  0.03039  1.0000
  C   C1266     1.0  0.07068  0.62089  0.05687  1.0000
  C   C1267     1.0  0.06771  0.61515  0.04568  1.0000
  C   C1268     1.0  0.08213  0.65808  0.03310  1.0000
  H   H1244     1.0  0.07568  0.64416  0.01444  1.0000
  H   H1245     1.0  0.07759  0.63944  0.06136  1.0000
  H   H1246     1.0  0.06740  0.61918  0.02147  1.0000
  H   H1247     1.0  0.06948  0.61438  0.06884  1.0000
  H   H1248     1.0  0.06435  0.60402  0.04881  1.0000
  H   H1249     1.0  0.07170  0.66781  0.03414  1.0000
  H   H1250     1.0  0.08978  0.65822  0.04057  1.0000
  H   H1251     1.0  0.08923  0.65998  0.02101  1.0000
  H   H1252     1.0  0.16835  0.61290  0.03873  1.0000
  C   C1269     1.0  0.08769  0.65163  0.12363  1.0000
  H   H1253     1.0  0.23587  0.70698  0.16742  1.0000
  H   H1254     1.0  0.27091  0.66731  0.16494  1.0000
  C   C1270     1.0  0.42769  0.66048  0.14530  1.0000
  S   S434      1.0  0.28956  0.95317  0.13142  1.0000
  C   C1271     1.0  0.23609  0.57433  0.98446  1.0000
  C   C1272     1.0  0.23541  0.71468  0.15616  1.0000
  C   C1273     1.0  0.34117  0.76431  0.09836  1.0000
  N   N101      1.0  0.24510  0.63575  0.08416  1.0000
  S   S435      1.0  0.02843  0.66584  0.14154  1.0000
  S   S436      1.0  0.29518  0.74041  0.14036  1.0000
  H   H1255     1.0  0.21977  0.59661  0.98273  1.0000
  H   H1256     1.0  0.25000  0.74532  0.13188  1.0000
  C   C1274     1.0  0.25893  0.57245  0.99311  1.0000
  C   C1275     1.0  0.47376  0.75558  0.02556  1.0000
  C   C1276     1.0  0.27449  0.79942  0.10356  1.0000
  H   H1257     1.0  0.37341  0.58309  0.09563  1.0000
  H   H1258     1.0  0.48193  0.75827  0.05817  1.0000
  H   H1259     1.0  0.34058  0.77657  0.09299  1.0000
  H   H1260     1.0  0.26217  0.63203  0.09729  1.0000
  H   H1261     1.0  0.08703  0.62722  0.13015  1.0000
  Fe  Fe214     1.0  0.38185  0.68572  0.10466  1.0000
  H   H1262     1.0  0.32266  0.94248  0.06865  1.0000
  H   H1263     1.0  0.30809  0.71236  0.16611  1.0000
  H   H1264     1.0  0.20831  0.64257  0.07894  1.0000
  H   H1265     1.0  0.23894  0.57651  0.10863  1.0000
  C   C1277     1.0  0.46060  0.62827  0.16417  1.0000
  Fe  Fe215     1.0  0.27590  0.77463  0.16164  1.0000
  H   H1266     1.0  0.35678  0.62245  0.08090  1.0000
  H   H1267     1.0  0.24699  0.64896  0.09916  1.0000
  H   H1268     1.0  0.22030  0.61921  0.06741  1.0000
  H   H1269     1.0  0.33557  0.73984  0.13371  1.0000
  H   H1270     1.0  0.31503  0.86372  0.97636  1.0000
  N   N102      1.0  0.25488  0.54575  0.13412  1.0000
  H   H1271     1.0  0.33137  0.98226  0.14488  1.0000
  C   C1278     1.0  0.37987  0.59746  0.10673  1.0000
  N   N103      1.0  0.24986  0.56574  0.98846  1.0000
  N   N104      1.0  0.21057  0.49764  0.09166  1.0000
  H   H1272     1.0  0.26415  0.61760  0.07718  1.0000
  C   C1279     1.0  0.31008  0.53420  0.07286  1.0000
  C   C1280     1.0  0.28761  0.50226  0.11719  1.0000
  H   H1273     1.0  0.30716  0.50436  0.12481  1.0000
  C   C1281     1.0  0.29755  0.51054  0.11914  1.0000
  N   N105      1.0  0.33583  0.90766  0.05827  1.0000
  C   C1282     1.0  0.32535  0.90904  0.04957  1.0000
  C   C1283     1.0  0.33506  0.91957  0.06492  1.0000
  C   C1284     1.0  0.31370  0.92262  0.04732  1.0000
  C   C1285     1.0  0.32363  0.93335  0.06282  1.0000
  C   C1286     1.0  0.31284  0.93482  0.05404  1.0000
  C   C1287     1.0  0.34707  0.89283  0.06143  1.0000
  H   H1274     1.0  0.32574  0.89942  0.04468  1.0000
  H   H1275     1.0  0.34282  0.91825  0.07247  1.0000
  C   C1288     1.0  0.47705  0.75768  0.99817  1.0000
  Fe  Fe216     1.0  0.30270  0.74656  0.15864  1.0000
  C   C1289     1.0  0.15251  0.57340  0.03113  1.0000
  H   H1276     1.0  0.35171  0.88774  0.05095  1.0000
  H   H1277     1.0  0.35722  0.89429  0.06491  1.0000
  H   H1278     1.0  0.34116  0.88440  0.07086  1.0000
  Fe  Fe217     1.0  0.29054  0.76613  0.13035  1.0000
  C   C1290     1.0  0.47835  0.76726  0.11367  1.0000
  H   H1279     1.0  0.09665  0.65038  0.11320  1.0000
  H   H1280     1.0  0.25772  0.56919  0.12574  1.0000
  C   C1291     1.0  0.34169  0.68506  0.15843  1.0000
  C   C1292     1.0  0.10577  0.61021  0.01922  1.0000
  H   H1281     1.0  0.19747  0.52094  0.09151  1.0000
  H   H1282     1.0  0.10202  0.59949  0.02535  1.0000
  C   C1293     1.0  0.11147  0.61794  0.02696  1.0000
  H   H1283     1.0  0.45074  0.70012  0.08758  1.0000
  H   H1284     1.0  0.15525  0.49862  0.97772  1.0000
  S   S437      1.0  0.39839  0.66552  0.09562  1.0000
  S   S438      1.0  0.48054  0.72795  0.11070  1.0000
  H   H1285     1.0  0.16254  0.50763  0.00376  1.0000
  C   C1294     1.0  0.25194  0.62323  0.07740  1.0000
  C   C1295     1.0  0.08242  0.63847  0.13327  1.0000
  H   H1286     1.0  0.05090  0.67250  0.11305  1.0000
  C   C1296     1.0  0.35484  0.63264  0.10001  1.0000
  Fe  Fe218     1.0  0.29636  0.94344  0.15449  1.0000
  C   C1297     1.0  0.25020  0.67283  0.13772  1.0000
  C   C1298     1.0  0.05074  0.66028  0.11551  1.0000
  C   C1299     1.0  0.45760  0.76049  0.02689  1.0000
  N   N106      1.0  0.16285  0.61926  0.12050  1.0000
  C   C1300     1.0  0.16932  0.63025  0.12233  1.0000
  C   C1301     1.0  0.17122  0.60426  0.12104  1.0000
  C   C1302     1.0  0.18461  0.62638  0.12462  1.0000
  C   C1303     1.0  0.18651  0.59996  0.12340  1.0000
  C   C1304     1.0  0.19323  0.61111  0.12516  1.0000
  C   C1305     1.0  0.14729  0.62376  0.11688  1.0000
  H   H1287     1.0  0.16272  0.64214  0.12191  1.0000
  H   H1288     1.0  0.16622  0.59561  0.11927  1.0000
  H   H1289     1.0  0.18975  0.63525  0.12577  1.0000
  H   H1290     1.0  0.19325  0.58814  0.12344  1.0000
  H   H1291     1.0  0.20514  0.60790  0.12684  1.0000
  H   H1292     1.0  0.14852  0.62641  0.10410  1.0000
  H   H1293     1.0  0.14083  0.61424  0.12220  1.0000
  H   H1294     1.0  0.14006  0.63430  0.12120  1.0000
  H   H1295     1.0  0.24840  0.60679  0.06650  1.0000
  N   N107      1.0  0.18406  0.51169  0.00499  1.0000
  H   H1296     1.0  0.22802  0.49557  0.10379  1.0000
  C   C1306     1.0  0.45896  0.66312  0.13428  1.0000
  H   H1297     1.0  0.45829  0.65478  0.11483  1.0000
  H   H1298     1.0  0.41523  0.69426  0.12882  1.0000
  C   C1307     1.0  0.35254  0.69353  0.15785  1.0000
  H   H1299     1.0  0.16096  0.74524  0.13962  1.0000
  C   C1308     1.0  0.30697  0.87553  0.17211  1.0000
  S   S439      1.0  0.26591  0.79488  0.17353  1.0000
  S   S440      1.0  0.26117  0.50073  0.10915  1.0000
  C   C1309     1.0  0.32048  0.70714  0.16379  1.0000
  H   H1300     1.0  0.47114  0.66350  0.13014  1.0000
  C   C1310     1.0  0.24713  0.53498  0.13398  1.0000
  H   H1301     1.0  0.38882  0.60115  0.09680  1.0000
  C   C1311     1.0  0.43611  0.65650  0.13119  1.0000
  C   C1312     1.0  0.24113  0.56480  0.11577  1.0000
  C   C1313     1.0  0.24398  0.72643  0.15076  1.0000
  C   C1314     1.0  0.16717  0.51672  0.00577  1.0000
  H   H1302     1.0  0.26189  0.64892  0.08133  1.0000
  C   C1315     1.0  0.06984  0.66767  0.14009  1.0000
  H   H1303     1.0  0.46630  0.70765  0.10139  1.0000
  C   C1316     1.0  0.25177  0.56059  0.12544  1.0000
  C   C1317     1.0  0.10441  0.61654  0.00378  1.0000
  H   H1304     1.0  0.05485  0.65626  0.16005  1.0000
  C   C1318     1.0  0.26253  0.83899  0.12090  1.0000
  N   N108      1.0  0.47445  0.62991  0.15157  1.0000
  C   C1319     1.0  0.27536  0.84536  0.11201  1.0000
  C   C1320     1.0  0.29981  0.54458  0.06397  1.0000
  H   H1305     1.0  0.46656  0.62106  0.13665  1.0000
  C   C1321     1.0  0.35588  0.58983  0.13165  1.0000
  H   H1306     1.0  0.25091  0.84524  0.11922  1.0000
  H   H1307     1.0  0.26791  0.79080  0.11071  1.0000
  H   H1308     1.0  0.27360  0.85628  0.10354  1.0000
  H   H1309     1.0  0.35189  0.57616  0.11803  1.0000
  H   H1310     1.0  0.41392  0.73280  0.99064  1.0000
  H   H1311     1.0  0.35578  0.71506  0.16033  1.0000
  C   C1322     1.0  0.44614  0.70065  0.09969  1.0000
  H   H1312     1.0  0.24797  0.69305  0.11896  1.0000
  H   H1313     1.0  0.42518  0.69789  0.08652  1.0000
  C   C1323     1.0  0.26283  0.69409  0.13317  1.0000
  C   C1324     1.0  0.18332  0.56709  0.00031  1.0000
  S   S441      1.0  0.38379  0.64314  0.12829  1.0000
  C   C1325     1.0  0.25516  0.54930  0.98758  1.0000
  H   H1314     1.0  0.23499  0.49638  0.08310  1.0000
  C   C1326     1.0  0.33527  0.83163  0.99642  1.0000
  C   C1327     1.0  0.35034  0.62379  0.09244  1.0000
  C   C1328     1.0  0.42628  0.69749  0.12266  1.0000
  H   H1315     1.0  0.22428  0.65290  0.08961  1.0000
  S   S442      1.0  0.42818  0.64813  0.12094  1.0000
  N   N109      1.0  0.43187  0.69725  0.10727  1.0000
  H   H1316     1.0  0.38614  0.73947  0.98907  1.0000
  H   H1317     1.0  0.17284  0.51530  0.09037  1.0000
  N   N110      1.0  0.28706  0.52409  0.06622  1.0000
  C   C1329     1.0  0.29715  0.51381  0.07487  1.0000
  C   C1330     1.0  0.28827  0.53932  0.06077  1.0000
  C   C1331     1.0  0.30884  0.51867  0.07825  1.0000
  H   H1318     1.0  0.23086  0.53000  0.12385  1.0000
  H   H1319     1.0  0.33386  0.76784  0.12176  1.0000
  C   C1332     1.0  0.27428  0.51891  0.06372  1.0000
  H   H1320     1.0  0.29586  0.50188  0.07965  1.0000
  H   H1321     1.0  0.31650  0.51060  0.08553  1.0000
  H   H1322     1.0  0.26489  0.70538  0.12639  1.0000
  H   H1323     1.0  0.45486  0.84452  0.99010  1.0000
  H   H1324     1.0  0.19069  0.54910  0.01928  1.0000
  C   C1333     1.0  0.48609  0.63551  0.15342  1.0000
  N   N111      1.0  0.34247  0.73293  0.11208  1.0000
  C   C1334     1.0  0.34616  0.73762  0.09626  1.0000
  C   C1335     1.0  0.34557  0.75336  0.08916  1.0000
  C   C1336     1.0  0.18265  0.58266  0.99253  1.0000
  H   H1325     1.0  0.34987  0.72913  0.08903  1.0000
  C   C1337     1.0  0.44224  0.83568  0.97915  1.0000
  H   H1326     1.0  0.49177  0.85395  0.06244  1.0000
  H   H1327     1.0  0.33385  0.71457  0.12955  1.0000
  H   H1328     1.0  0.10847  0.63526  0.98395  1.0000
  H   H1329     1.0  0.15715  0.60254  0.05611  1.0000
  C   C1338     1.0  0.47586  0.62539  0.13817  1.0000
  H   H1330     1.0  0.32125  0.82378  0.97798  1.0000
  H   H1331     1.0  0.17770  0.73131  0.13188  1.0000
  C   C1339     1.0  0.22732  0.62401  0.07190  1.0000
  H   H1332     1.0  0.30345  0.94512  0.05293  1.0000
  H   H1333     1.0  0.14230  0.57825  0.01132  1.0000
  H   H1334     1.0  0.34875  0.75702  0.07661  1.0000
  H   H1335     1.0  0.24552  0.54456  0.98672  1.0000
  H   H1336     1.0  0.20184  0.72571  0.17240  1.0000
  H   H1337     1.0  0.46649  0.77412  0.11411  1.0000
  H   H1338     1.0  0.26466  0.54807  0.97709  1.0000
  C   C1340     1.0  0.22970  0.64285  0.08444  1.0000
  H   H1339     1.0  0.34256  0.75432  0.98165  1.0000
  H   H1340     1.0  0.11224  0.61303  0.03888  1.0000
  Fe  Fe219     1.0  0.16328  0.49184  0.04973  1.0000
  H   H1341     1.0  0.26085  0.59300  0.99892  1.0000
  H   H1342     1.0  0.35493  0.71163  0.12351  1.0000
  Fe  Fe220     1.0  0.36811  0.66528  0.13446  1.0000
  H   H1343     1.0  0.27089  0.89777  0.16898  1.0000
  S   S443      1.0  0.38750  0.67803  0.12820  1.0000
  S   S444      1.0  0.35059  0.95162  0.14816  1.0000
  H   H1344     1.0  0.48495  0.63922  0.16399  1.0000
  C   C1341     1.0  0.18325  0.50603  0.09103  1.0000
  C   C1342     1.0  0.07064  0.64009  0.14655  1.0000
  C   C1343     1.0  0.06440  0.65475  0.15007  1.0000
  H   H1345     1.0  0.32830  0.87905  0.15543  1.0000
  C   C1344     1.0  0.31566  0.88286  0.15832  1.0000
  S   S445      1.0  0.36104  0.67490  0.11164  1.0000
  C   C1345     1.0  0.16559  0.60137  0.04496  1.0000
  S   S446      1.0  0.48397  0.70399  0.14974  1.0000
  H   H1346     1.0  0.27582  0.54806  0.13857  1.0000
  C   C1346     1.0  0.23351  0.55379  0.11521  1.0000
  C   C1347     1.0  0.08697  0.67958  0.11660  1.0000
  C   C1348     1.0  0.27938  0.81703  0.13310  1.0000
  C   C1349     1.0  0.45581  0.83846  0.98118  1.0000
  H   H1347     1.0  0.22898  0.56914  0.98051  1.0000
  C   C1350     1.0  0.33009  0.85332  0.00850  1.0000
  H   H1348     1.0  0.47380  0.75547  0.13777  1.0000
  C   C1351     1.0  0.32565  0.69184  0.16152  1.0000
  N   N112      1.0  0.17168  0.72802  0.15657  1.0000
  C   C1352     1.0  0.26603  0.67293  0.15476  1.0000
  H   H1349     1.0  0.34605  0.58723  0.14106  1.0000
  H   H1350     1.0  0.19398  0.73399  0.14717  1.0000
  H   H1351     1.0  0.15253  0.56106  0.03413  1.0000
  H   H1352     1.0  0.23537  0.60858  0.99245  1.0000
  H   H1353     1.0  0.25401  0.65459  0.15777  1.0000
  H   H1354     1.0  0.14247  0.60643  0.00456  1.0000
  C   C1353     1.0  0.36040  0.60684  0.14564  1.0000
  H   H1355     1.0  0.09822  0.67990  0.11889  1.0000
  C   C1354     1.0  0.44932  0.70535  0.12305  1.0000
  H   H1356     1.0  0.24970  0.52315  0.14073  1.0000
  S   S447      1.0  0.30029  0.77180  0.14731  1.0000
  H   H1357     1.0  0.27690  0.90952  0.13650  1.0000
  H   H1358     1.0  0.38270  0.61190  0.12007  1.0000
  H   H1359     1.0  0.36783  0.59972  0.15395  1.0000
  H   H1360     1.0  0.43887  0.76741  0.01484  1.0000
  C   C1355     1.0  0.11536  0.63793  0.00359  1.0000
  C   C1356     1.0  0.48107  0.74437  0.08126  1.0000
  C   C1357     1.0  0.43510  0.66534  0.15409  1.0000
  S   S448      1.0  0.14605  0.48727  0.03925  1.0000
  Fe  Fe221     1.0  0.37801  0.65371  0.10489  1.0000
  S   S449      1.0  0.26557  0.77106  0.14363  1.0000
  H   H1361     1.0  0.17740  0.58729  0.98252  1.0000
  H   H1362     1.0  0.42872  0.66789  0.16525  1.0000
  H   H1363     1.0  0.30050  0.84186  0.10650  1.0000
  C   C1358     1.0  0.29044  0.83722  0.11364  1.0000
  H   H1364     1.0  0.45618  0.70843  0.12923  1.0000
  C   C1359     1.0  0.19519  0.58637  0.01088  1.0000
  H   H1365     1.0  0.16471  0.52768  0.99703  1.0000
  H   H1366     1.0  0.27225  0.52894  0.14514  1.0000
  H   H1367     1.0  0.24773  0.82165  0.15222  1.0000
  C   C1360     1.0  0.25110  0.81856  0.14069  1.0000
  C   C1361     1.0  0.29249  0.82297  0.12428  1.0000
  Fe  Fe222     1.0  0.27090  0.74559  0.15517  1.0000
  H   H1368     1.0  0.22549  0.55689  0.10750  1.0000
  N   N113      1.0  0.15909  0.59514  0.03569  1.0000
  H   H1369     1.0  0.27919  0.70630  0.14351  1.0000
  C   C1362     1.0  0.19062  0.51724  0.01343  1.0000
  H   H1370     1.0  0.27435  0.69537  0.16284  1.0000
  H   H1371     1.0  0.24278  0.66731  0.13462  1.0000
  H   H1372     1.0  0.26458  0.51871  0.07423  1.0000
  H   H1373     1.0  0.18758  0.60448  0.99210  1.0000
  C   C1363     1.0  0.37118  0.58741  0.10606  1.0000
  H   H1374     1.0  0.29240  0.91957  0.13244  1.0000
  H   H1375     1.0  0.47874  0.75307  0.03563  1.0000
  C   C1364     1.0  0.34979  0.94477  0.16810  1.0000
  C   C1365     1.0  0.25657  0.66566  0.15076  1.0000
  C   C1366     1.0  0.26633  0.54148  0.14390  1.0000
  Fe  Fe223     1.0  0.01536  0.65385  0.16445  1.0000
  C   C1367     1.0  0.33671  0.83768  0.00823  1.0000
  C   C1368     1.0  0.48358  0.75423  0.01114  1.0000
  S   S450      1.0  0.34812  0.66611  0.15516  1.0000
  C   C1369     1.0  0.28344  0.89341  0.16575  1.0000
  C   C1370     1.0  0.18298  0.49104  0.09049  1.0000
  H   H1376     1.0  0.22458  0.51366  0.08983  1.0000
  H   H1377     1.0  0.31726  0.68529  0.16200  1.0000
  H   H1378     1.0  0.16074  0.51887  0.01746  1.0000
  C   C1371     1.0  0.25391  0.58795  0.99460  1.0000
  H   H1379     1.0  0.45815  0.63692  0.17144  1.0000
  C   C1372     1.0  0.25327  0.68716  0.12887  1.0000
  H   H1380     1.0  0.48996  0.62351  0.11530  1.0000
  H   H1381     1.0  0.48479  0.75692  0.98690  1.0000
  C   C1373     1.0  0.27896  0.69430  0.15055  1.0000
  H   H1382     1.0  0.28012  0.88692  0.97554  1.0000
  H   H1383     1.0  0.48561  0.83153  0.98646  1.0000
  H   H1384     1.0  0.36525  0.73137  0.98288  1.0000
  C   C1374     1.0  0.23969  0.59668  0.99094  1.0000
  C   C1375     1.0  0.23085  0.58992  0.98558  1.0000
  C   C1376     1.0  0.19041  0.72483  0.17177  1.0000
  N   N114      1.0  0.26900  0.68700  0.14603  1.0000
  H   H1385     1.0  0.25391  0.80565  0.14261  1.0000
  H   H1386     1.0  0.17233  0.48861  0.08953  1.0000
  H   H1387     1.0  0.24094  0.82298  0.13503  1.0000
  S   S451      1.0  0.25545  0.72809  0.16255  1.0000
  H   H1388     1.0  0.36104  0.96196  0.16953  1.0000
  C   C1377     1.0  0.48860  0.73150  0.09086  1.0000
  H   H1389     1.0  0.43328  0.71454  0.97533  1.0000
  C   C1378     1.0  0.48957  0.76853  0.09972  1.0000
  S   S452      1.0  0.49066  0.78643  0.01955  1.0000
  C   C1379     1.0  0.48778  0.74819  0.06546  1.0000
  Fe  Fe224     1.0  0.10380  0.68151  0.24160  1.0000
  S   S453      1.0  0.08392  0.70249  0.24109  1.0000
  S   S454      1.0  0.12906  0.68263  0.23157  1.0000
  Fe  Fe225     1.0  0.08261  0.65930  0.25965  1.0000
  S   S455      1.0  0.06086  0.67825  0.26079  1.0000
  S   S456      1.0  0.08166  0.63418  0.26950  1.0000
  Fe  Fe226     1.0  0.07120  0.68737  0.23586  1.0000
  S   S457      1.0  0.05784  0.69619  0.21669  1.0000
  Fe  Fe227     1.0  0.07539  0.69156  0.26606  1.0000
  S   S458      1.0  0.06481  0.70411  0.28578  1.0000
  S   S459      1.0  0.09190  0.66732  0.23421  1.0000
  S   S460      1.0  0.09629  0.67168  0.26708  1.0000
  Fe  Fe228     1.0  0.34803  0.88678  0.32931  1.0000
  S   S461      1.0  0.36503  0.89006  0.30641  1.0000
  S   S462      1.0  0.33103  0.90721  0.33775  1.0000
  Fe  Fe229     1.0  0.35730  0.87036  0.30284  1.0000
  S   S463      1.0  0.35085  0.87296  0.28010  1.0000
  Fe  Fe230     1.0  0.38232  0.87185  0.31873  1.0000
  C   C1380     1.0  0.42993  0.88138  0.32275  1.0000
  S   S464      1.0  0.33908  0.86834  0.32500  1.0000
  C   C1381     1.0  0.48839  0.94590  0.30167  1.0000
  H   H1390     1.0  0.01736  0.57292  0.33978  1.0000
  C   C1382     1.0  0.05577  0.73642  0.25591  1.0000
  C   C1383     1.0  0.11314  0.95687  0.32352  1.0000
  C   C1384     1.0  0.09842  0.95550  0.32309  1.0000
  H   H1391     1.0  0.28950  0.85071  0.28239  1.0000
  N   N115      1.0  0.25876  0.83461  0.30335  1.0000
  N   N116      1.0  0.99482  0.60171  0.33331  1.0000
  H   H1392     1.0  0.06166  0.64971  0.19970  1.0000
  H   H1393     1.0  0.29355  0.94722  0.21763  1.0000
  C   C1385     1.0  0.99745  0.54676  0.33928  1.0000
  C   C1386     1.0  0.99485  0.51185  0.28633  1.0000
  H   H1394     1.0  0.23474  0.84595  0.30479  1.0000
  S   S465      1.0  0.03182  0.60390  0.20292  1.0000
  C   C1387     1.0  0.18120  0.77900  0.34688  1.0000
  H   H1395     1.0  0.43261  0.84307  0.31277  1.0000
  H   H1396     1.0  0.46512  0.84619  0.34624  1.0000
  S   S466      1.0  0.99494  0.63541  0.20490  1.0000
  H   H1397     1.0  0.41152  0.92548  0.28631  1.0000
  S   S467      1.0  0.01393  0.60407  0.27414  1.0000
  C   C1388     1.0  0.44483  0.83910  0.34561  1.0000
  C   C1389     1.0  0.37833  0.92869  0.29465  1.0000
  H   H1398     1.0  0.01233  0.56041  0.32151  1.0000
  C   C1390     1.0  0.44010  0.84305  0.32013  1.0000
  H   H1399     1.0  0.03597  0.70405  0.24952  1.0000
  H   H1400     1.0  0.14536  0.84998  0.36843  1.0000
  H   H1401     1.0  0.19410  0.79501  0.33003  1.0000
  C   C1391     1.0  0.42870  0.94859  0.21939  1.0000
  S   S468      1.0  0.37630  0.85228  0.31288  1.0000
  H   H1402     1.0  0.05326  0.53805  0.30351  1.0000
  H   H1403     1.0  0.46251  0.95983  0.21218  1.0000
  C   C1392     1.0  0.45380  0.84874  0.31369  1.0000
  H   H1404     1.0  0.02179  0.51841  0.36810  1.0000
  H   H1405     1.0  0.39877  0.90662  0.32138  1.0000
  C   C1393     1.0  0.04063  0.87624  0.37389  1.0000
  H   H1406     1.0  0.10641  0.56957  0.37176  1.0000
  H   H1407     1.0  0.47248  0.93485  0.32093  1.0000
  H   H1408     1.0  0.42389  0.93822  0.22346  1.0000
  C   C1394     1.0  0.30375  0.74717  0.20183  1.0000
  H   H1409     1.0  0.16648  0.68215  0.18166  1.0000
  Fe  Fe231     1.0  0.18954  0.85507  0.33959  1.0000
  Fe  Fe232     1.0  0.11606  0.77005  0.33213  1.0000
  S   S469      1.0  0.10454  0.76042  0.35657  1.0000
  S   S470      1.0  0.13335  0.78578  0.32373  1.0000
  Fe  Fe233     1.0  0.09960  0.75433  0.31798  1.0000
  S   S471      1.0  0.08625  0.74365  0.34111  1.0000
  S   S472      1.0  0.10063  0.75022  0.29454  1.0000
  Fe  Fe234     1.0  0.08282  0.76656  0.34725  1.0000
  S   S473      1.0  0.06081  0.77550  0.36358  1.0000
  Fe  Fe235     1.0  0.10872  0.73819  0.34884  1.0000
  C   C1395     1.0  0.31487  0.81226  0.36885  1.0000
  S   S474      1.0  0.09387  0.77812  0.32328  1.0000
  S   S475      1.0  0.12260  0.74700  0.32522  1.0000
  S   S476      1.0  0.46525  0.97869  0.23335  1.0000
  Fe  Fe236     1.0  0.01789  0.62578  0.19077  1.0000
  H   H1410     1.0  0.17627  0.91189  0.31587  1.0000
  H   H1411     1.0  0.11843  0.85737  0.34489  1.0000
  H   H1412     1.0  0.02599  0.48828  0.27788  1.0000
  Fe  Fe237     1.0  0.46529  0.88163  0.35565  1.0000
  Fe  Fe238     1.0  0.48260  0.90749  0.34870  1.0000
  C   C1396     1.0  0.06286  0.73972  0.22808  1.0000
  C   C1397     1.0  0.08517  0.96671  0.32767  1.0000
  S   S477      1.0  0.00994  0.82577  0.33178  1.0000
  S   S478      1.0  0.10617  0.89376  0.35979  1.0000
  S   S479      1.0  0.01114  0.84712  0.36201  1.0000
  H   H1413     1.0  0.11046  0.69438  0.20828  1.0000
  S   S480      1.0  0.00131  0.66795  0.21795  1.0000
  H   H1414     1.0  0.99768  0.60023  0.30986  1.0000
  H   H1415     1.0  0.01552  0.87550  0.32062  1.0000
  S   S481      1.0  0.04345  0.58059  0.34514  1.0000
  H   H1416     1.0  0.35966  0.95257  0.19779  1.0000
  Fe  Fe239     1.0  0.06222  0.56423  0.35684  1.0000
  S   S482      1.0  0.07799  0.54581  0.34408  1.0000
  Fe  Fe240     1.0  0.04908  0.59907  0.35291  1.0000
  S   S483      1.0  0.04828  0.62392  0.34038  1.0000
  H   H1417     1.0  0.26496  0.81006  0.31236  1.0000
  C   C1398     1.0  0.11023  0.55040  0.35336  1.0000
  C   C1399     1.0  0.02771  0.87757  0.36775  1.0000
  Fe  Fe241     1.0  0.35339  0.94308  0.23070  1.0000
  S   S484      1.0  0.33600  0.96507  0.23475  1.0000
  S   S485      1.0  0.34809  0.92664  0.21986  1.0000
  Fe  Fe242     1.0  0.37568  0.94734  0.24732  1.0000
  S   S486      1.0  0.36006  0.96951  0.25329  1.0000
  S   S487      1.0  0.39960  0.93608  0.25228  1.0000
  Fe  Fe243     1.0  0.34046  0.95722  0.25877  1.0000
  S   S488      1.0  0.32056  0.96085  0.27918  1.0000
  S   S489      1.0  0.03112  0.48658  0.30792  1.0000
  H   H1418     1.0  0.30596  0.91974  0.36326  1.0000
  S   S490      1.0  0.35633  0.93434  0.25523  1.0000
  S   S491      1.0  0.37420  0.95404  0.22233  1.0000
  C   C1400     1.0  0.36201  0.85421  0.23740  1.0000
  C   C1401     1.0  0.44039  0.97543  0.20980  1.0000
  N   N117      1.0  0.08659  0.97914  0.33224  1.0000
  Fe  Fe244     1.0  0.30128  0.82231  0.22675  1.0000
  S   S492      1.0  0.28829  0.84641  0.21759  1.0000
  S   S493      1.0  0.30832  0.80292  0.21370  1.0000
  Fe  Fe245     1.0  0.30531  0.83132  0.25497  1.0000
  S   S494      1.0  0.29246  0.85589  0.24795  1.0000
  S   S495      1.0  0.31445  0.82464  0.27691  1.0000
  Fe  Fe246     1.0  0.27568  0.84540  0.24258  1.0000
  S   S496      1.0  0.25013  0.85600  0.25039  1.0000
  Fe  Fe247     1.0  0.30634  0.85424  0.22411  1.0000
  S   S497      1.0  0.32002  0.87225  0.21011  1.0000
  S   S498      1.0  0.28751  0.82068  0.25141  1.0000
  S   S499      1.0  0.32045  0.83031  0.23133  1.0000
  H   H1419     1.0  0.16678  0.76288  0.36088  1.0000
  Fe  Fe248     1.0  0.17585  0.82664  0.35482  1.0000
  S   S500      1.0  0.17936  0.84077  0.33037  1.0000
  C   C1402     1.0  0.16115  0.92565  0.37286  1.0000
  Fe  Fe249     1.0  0.20341  0.82544  0.32764  1.0000
  S   S501      1.0  0.21510  0.81301  0.30816  1.0000
  H   H1420     1.0  0.02036  0.86921  0.37275  1.0000
  S   S502      1.0  0.19939  0.81035  0.35150  1.0000
  C   C1403     1.0  0.30702  0.88914  0.36927  1.0000
  S   S503      1.0  0.07991  0.92555  0.34986  1.0000
  C   C1404     1.0  0.38897  0.91397  0.31649  1.0000
  C   C1405     1.0  0.01030  0.55733  0.21229  1.0000
  C   C1406     1.0  0.34402  0.82849  0.36970  1.0000
  Fe  Fe250     1.0  0.10580  0.91645  0.34277  1.0000
  S   S504      1.0  0.12066  0.91749  0.31886  1.0000
  Fe  Fe251     1.0  0.00327  0.55609  0.26918  1.0000
  H   H1421     1.0  0.01732  0.61730  0.34590  1.0000
  H   H1422     1.0  0.06817  0.61217  0.26085  1.0000
  C   C1407     1.0  0.42374  0.96639  0.26545  1.0000
  H   H1423     1.0  0.04806  0.61166  0.26217  1.0000
  N   N118      1.0  0.31088  0.82472  0.35728  1.0000
  C   C1408     1.0  0.13932  0.90682  0.32148  1.0000
  C   C1409     1.0  0.14135  0.89134  0.32986  1.0000
  C   C1410     1.0  0.15602  0.88320  0.33304  1.0000
  C   C1411     1.0  0.48277  0.93974  0.31740  1.0000
  H   H1424     1.0  0.13162  0.88561  0.33380  1.0000
  H   H1425     1.0  0.07372  0.96530  0.32774  1.0000
  C   C1412     1.0  0.23948  0.84382  0.26543  1.0000
  C   C1413     1.0  0.24520  0.82770  0.26878  1.0000
  C   C1414     1.0  0.23728  0.81824  0.28159  1.0000
  C   C1415     1.0  0.22370  0.82489  0.29122  1.0000
  C   C1416     1.0  0.21761  0.84094  0.28763  1.0000
  C   C1417     1.0  0.22541  0.85038  0.27461  1.0000
  H   H1426     1.0  0.25563  0.82248  0.26142  1.0000
  H   H1427     1.0  0.24190  0.80580  0.28422  1.0000
  H   H1428     1.0  0.20701  0.84612  0.29496  1.0000
  H   H1429     1.0  0.22080  0.86283  0.27193  1.0000
  H   H1430     1.0  0.48161  0.85534  0.30393  1.0000
  C   C1418     1.0  0.29073  0.88068  0.17577  1.0000
  C   C1419     1.0  0.29207  0.89206  0.20562  1.0000
  C   C1420     1.0  0.30842  0.88962  0.20200  1.0000
  H   H1431     1.0  0.02954  0.50248  0.33297  1.0000
  H   H1432     1.0  0.46557  0.93111  0.21250  1.0000
  Fe  Fe252     1.0  0.35713  0.97534  0.22879  1.0000
  H   H1433     1.0  0.28633  0.88329  0.21392  1.0000
  H   H1434     1.0  0.06239  0.52932  0.37360  1.0000
  H   H1435     1.0  0.99466  0.60466  0.35559  1.0000
  C   C1421     1.0  0.34873  0.93380  0.19998  1.0000
  H   H1436     1.0  0.31404  0.94801  0.21002  1.0000
  C   C1422     1.0  0.12697  0.69476  0.18625  1.0000
  C   C1423     1.0  0.05191  0.73118  0.22908  1.0000
  H   H1437     1.0  0.44923  0.92257  0.22378  1.0000
  H   H1438     1.0  0.04557  0.69332  0.19242  1.0000
  H   H1439     1.0  0.33792  0.91634  0.19847  1.0000
  C   C1424     1.0  0.45844  0.84486  0.33879  1.0000
  C   C1425     1.0  0.99612  0.51031  0.30150  1.0000
  C   C1426     1.0  0.40751  0.97055  0.26677  1.0000
  C   C1427     1.0  0.39999  0.96140  0.26259  1.0000
  C   C1428     1.0  0.40864  0.94788  0.25745  1.0000
  C   C1429     1.0  0.42480  0.94348  0.25660  1.0000
  H   H1440     1.0  0.18393  0.78123  0.35671  1.0000
  H   H1441     1.0  0.38751  0.96474  0.26357  1.0000
  H   H1442     1.0  0.05088  0.54842  0.32659  1.0000
  Fe  Fe253     1.0  0.02802  0.57630  0.36878  1.0000
  N   N119      1.0  0.29468  0.90203  0.36382  1.0000
  H   H1443     1.0  0.12435  0.71808  0.30196  1.0000
  S   S505      1.0  0.43308  0.97809  0.27036  1.0000
  S   S506      1.0  0.47070  0.90024  0.33445  1.0000
  Fe  Fe254     1.0  0.99730  0.84020  0.34938  1.0000
  H   H1444     1.0  0.01313  0.62952  0.24706  1.0000
  H   H1445     1.0  0.07114  0.83892  0.34362  1.0000
  H   H1446     1.0  0.09375  0.52883  0.36998  1.0000
  H   H1447     1.0  0.03850  0.72280  0.26774  1.0000
  C   C1430     1.0  0.35510  0.94677  0.19185  1.0000
  C   C1431     1.0  0.28314  0.90568  0.19797  1.0000
  C   C1432     1.0  0.25519  0.82027  0.31416  1.0000
  C   C1433     1.0  0.04504  0.72781  0.25650  1.0000
  H   H1448     1.0  0.02171  0.57217  0.21766  1.0000
  C   C1434     1.0  0.41728  0.87141  0.35421  1.0000
  C   C1435     1.0  0.06476  0.74236  0.24161  1.0000
  H   H1449     1.0  0.03752  0.53589  0.35241  1.0000
  C   C1436     1.0  0.07364  0.52714  0.35016  1.0000
  C   C1437     1.0  0.07824  0.51725  0.33971  1.0000
  C   C1438     1.0  0.07491  0.50230  0.34443  1.0000
  C   C1439     1.0  0.06753  0.49698  0.35981  1.0000
  C   C1440     1.0  0.49032  0.94013  0.32857  1.0000
  C   C1441     1.0  0.29062  0.91681  0.18688  1.0000
  H   H1450     1.0  0.08431  0.52117  0.32791  1.0000
  C   C1442     1.0  0.11447  0.96946  0.32842  1.0000
  H   H1451     1.0  0.43499  0.88510  0.31057  1.0000
  Fe  Fe255     1.0  0.48413  0.95718  0.23682  1.0000
  C   C1443     1.0  0.02418  0.88987  0.35537  1.0000
  H   H1452     1.0  0.02807  0.87032  0.30291  1.0000
  C   C1444     1.0  0.16786  0.76627  0.33649  1.0000
  C   C1445     1.0  0.29669  0.83490  0.35972  1.0000
  C   C1446     1.0  0.04649  0.89963  0.35549  1.0000
  C   C1447     1.0  0.03360  0.90090  0.34926  1.0000
  C   C1448     1.0  0.00709  0.55753  0.33375  1.0000
  H   H1453     1.0  0.07854  0.49471  0.33634  1.0000
  H   H1454     1.0  0.05367  0.90819  0.35074  1.0000
  H   H1455     1.0  0.03093  0.91045  0.33969  1.0000
  C   C1449     1.0  0.27398  0.83594  0.29730  1.0000
  C   C1450     1.0  0.13751  0.79531  0.33584  1.0000
  C   C1451     1.0  0.14729  0.80592  0.32904  1.0000
  C   C1452     1.0  0.15240  0.81252  0.33826  1.0000
  C   C1453     1.0  0.14756  0.80878  0.35440  1.0000
  C   C1454     1.0  0.13727  0.79862  0.36124  1.0000
  C   C1455     1.0  0.13233  0.79179  0.35199  1.0000
  H   H1456     1.0  0.15124  0.80878  0.31655  1.0000
  H   H1457     1.0  0.16015  0.82043  0.33281  1.0000
  C   C1456     1.0  0.26526  0.86207  0.28317  1.0000
  H   H1458     1.0  0.12482  0.78357  0.35736  1.0000
  C   C1457     1.0  0.04631  0.78841  0.35442  1.0000
  C   C1458     1.0  0.03273  0.79573  0.36351  1.0000
  C   C1459     1.0  0.02143  0.80697  0.35646  1.0000
  C   C1460     1.0  0.02347  0.81062  0.34036  1.0000
  C   C1461     1.0  0.03676  0.80287  0.33124  1.0000
  C   C1462     1.0  0.04829  0.79182  0.33829  1.0000
  Fe  Fe256     1.0  0.00282  0.58355  0.28151  1.0000
  H   H1459     1.0  0.01108  0.81282  0.36347  1.0000
  H   H1460     1.0  0.03829  0.80565  0.31875  1.0000
  H   H1461     1.0  0.05868  0.78600  0.33124  1.0000
  C   C1463     1.0  0.47659  0.85637  0.31618  1.0000
  C   C1464     1.0  0.27218  0.80905  0.19317  1.0000
  C   C1465     1.0  0.28153  0.81117  0.20197  1.0000
  C   C1466     1.0  0.29691  0.80245  0.20123  1.0000
  C   C1467     1.0  0.30298  0.79200  0.19131  1.0000
  C   C1468     1.0  0.00413  0.53348  0.24648  1.0000
  H   H1462     1.0  0.26021  0.81564  0.19398  1.0000
  H   H1463     1.0  0.27670  0.81923  0.20964  1.0000
  S   S507      1.0  0.06963  0.58333  0.36224  1.0000
  Fe  Fe257     1.0  0.00340  0.65756  0.19777  1.0000
  C   C1469     1.0  0.43562  0.83821  0.33620  1.0000
  H   H1464     1.0  0.01478  0.66890  0.24238  1.0000
  H   H1465     1.0  0.13770  0.84707  0.34743  1.0000
  S   S508      1.0  0.47501  0.89061  0.37064  1.0000
  C   C1470     1.0  0.27810  0.79813  0.18371  1.0000
  S   S509      1.0  0.11459  0.71405  0.36322  1.0000
  H   H1466     1.0  0.00468  0.50301  0.23194  1.0000
  H   H1467     1.0  0.48537  0.97001  0.20440  1.0000
  H   H1468     1.0  0.24022  0.87012  0.28634  1.0000
  H   H1469     1.0  0.15996  0.75871  0.33818  1.0000
  H   H1470     1.0  0.30213  0.74086  0.19424  1.0000
  N   N120      1.0  0.39067  0.91921  0.30077  1.0000
  H   H1471     1.0  0.44490  0.94951  0.25943  1.0000
  C   C1471     1.0  0.02866  0.60448  0.22252  1.0000
  C   C1472     1.0  0.43162  0.87607  0.34970  1.0000
  C   C1473     1.0  0.10100  0.98064  0.33264  1.0000
  H   H1472     1.0  0.03047  0.57992  0.25765  1.0000
  S   S510      1.0  0.35635  0.82873  0.35123  1.0000
  C   C1474     1.0  0.01015  0.52024  0.24016  1.0000
  C   C1475     1.0  0.27088  0.92622  0.35393  1.0000
  C   C1476     1.0  0.27743  0.84974  0.28725  1.0000
  C   C1477     1.0  0.30771  0.76336  0.22129  1.0000
  Fe  Fe258     1.0  0.45866  0.97374  0.25928  1.0000
  C   C1478     1.0  0.15806  0.91496  0.36650  1.0000
  H   H1473     1.0  0.45689  0.85301  0.30123  1.0000
  C   C1479     1.0  0.36020  0.88494  0.22144  1.0000
  H   H1474     1.0  0.05733  0.73814  0.26654  1.0000
  C   C1480     1.0  0.02039  0.61573  0.32227  1.0000
  H   H1475     1.0  0.15753  0.87128  0.33957  1.0000
  C   C1481     1.0  0.24677  0.84690  0.29990  1.0000
  H   H1476     1.0  0.37497  0.89988  0.23162  1.0000
  Fe  Fe259     1.0  0.08659  0.93524  0.36659  1.0000
  H   H1477     1.0  0.35039  0.87905  0.20556  1.0000
  H   H1478     1.0  0.06707  0.66097  0.21879  1.0000
  H   H1479     1.0  0.12642  0.97178  0.36716  1.0000
  S   S511      1.0  0.18397  0.84243  0.36446  1.0000
  H   H1480     1.0  0.05077  0.72888  0.21853  1.0000
  C   C1482     1.0  0.02163  0.67405  0.23146  1.0000
  C   C1483     1.0  0.03402  0.51268  0.33160  1.0000
  C   C1484     1.0  0.29092  0.75652  0.20987  1.0000
  H   H1481     1.0  0.36235  0.84232  0.24402  1.0000
  C   C1485     1.0  0.27942  0.77436  0.22757  1.0000
  H   H1482     1.0  0.02994  0.71689  0.23257  1.0000
  H   H1483     1.0  0.09727  0.94565  0.31946  1.0000
  N   N121      1.0  0.03250  0.51862  0.34416  1.0000
  C   C1486     1.0  0.02827  0.59077  0.24926  1.0000
  S   S512      1.0  0.18677  0.88097  0.33262  1.0000
  H   H1484     1.0  0.02016  0.72099  0.25133  1.0000
  C   C1487     1.0  0.28194  0.89875  0.36134  1.0000
  N   N122      1.0  0.29304  0.76462  0.21929  1.0000
  S   S513      1.0  0.01658  0.54180  0.25150  1.0000
  C   C1488     1.0  0.00194  0.60388  0.31787  1.0000
  N   N123      1.0  0.36590  0.87983  0.23468  1.0000
  C   C1489     1.0  0.24981  0.86071  0.28961  1.0000
  H   H1485     1.0  0.40077  0.98099  0.27078  1.0000
  H   H1486     1.0  0.43148  0.93282  0.25301  1.0000
  C   C1490     1.0  0.34005  0.85979  0.27998  1.0000
  C   C1491     1.0  0.33384  0.86202  0.26702  1.0000
  C   C1492     1.0  0.32611  0.85121  0.26599  1.0000
  C   C1493     1.0  0.32422  0.83822  0.27810  1.0000
  C   C1494     1.0  0.33010  0.83614  0.29129  1.0000
  C   C1495     1.0  0.33805  0.84689  0.29222  1.0000
  H   H1487     1.0  0.33534  0.87194  0.25756  1.0000
  H   H1488     1.0  0.32187  0.85281  0.25568  1.0000
  H   H1489     1.0  0.32875  0.82606  0.30065  1.0000
  H   H1490     1.0  0.34290  0.84503  0.30223  1.0000
  C   C1496     1.0  0.32595  0.92161  0.32175  1.0000
  C   C1497     1.0  0.32998  0.91820  0.30705  1.0000
  C   C1498     1.0  0.32817  0.93020  0.29391  1.0000
  C   C1499     1.0  0.32181  0.94556  0.29552  1.0000
  C   C1500     1.0  0.31681  0.94884  0.31034  1.0000
  C   C1501     1.0  0.31901  0.93689  0.32344  1.0000
  H   H1491     1.0  0.33459  0.90634  0.30574  1.0000
  H   H1492     1.0  0.33166  0.92752  0.28257  1.0000
  H   H1493     1.0  0.45855  0.93167  0.23271  1.0000
  H   H1494     1.0  0.31586  0.93960  0.33478  1.0000
  C   C1502     1.0  0.40935  0.87159  0.34302  1.0000
  H   H1495     1.0  0.39850  0.86764  0.34661  1.0000
  C   C1503     1.0  0.28399  0.92945  0.35635  1.0000
  C   C1504     1.0  0.45018  0.96072  0.21319  1.0000
  S   S514      1.0  0.21404  0.84111  0.33435  1.0000
  C   C1505     1.0  0.15428  0.68486  0.18742  1.0000
  C   C1506     1.0  0.34280  0.92638  0.19220  1.0000
  C   C1507     1.0  0.07501  0.71669  0.28824  1.0000
  C   C1508     1.0  0.08696  0.72202  0.27635  1.0000
  C   C1509     1.0  0.09452  0.73251  0.27837  1.0000
  C   C1510     1.0  0.09051  0.73738  0.29243  1.0000
  C   C1511     1.0  0.07877  0.73180  0.30443  1.0000
  C   C1512     1.0  0.07091  0.72162  0.30226  1.0000
  H   H1496     1.0  0.09024  0.71825  0.26551  1.0000
  H   H1497     1.0  0.10365  0.73675  0.26907  1.0000
  H   H1498     1.0  0.07558  0.73553  0.31528  1.0000
  H   H1499     1.0  0.06165  0.71755  0.31148  1.0000
  C   C1513     1.0  0.07291  0.63118  0.28933  1.0000
  C   C1514     1.0  0.06679  0.64381  0.29654  1.0000
  C   C1515     1.0  0.05938  0.64144  0.31229  1.0000
  C   C1516     1.0  0.05827  0.62642  0.32091  1.0000
  C   C1517     1.0  0.06453  0.61372  0.31376  1.0000
  C   C1518     1.0  0.07178  0.61613  0.29793  1.0000
  H   H1500     1.0  0.06769  0.65544  0.29000  1.0000
  H   H1501     1.0  0.05451  0.65127  0.31779  1.0000
  H   H1502     1.0  0.06373  0.60209  0.32039  1.0000
  H   H1503     1.0  0.07659  0.60633  0.29237  1.0000
  C   C1519     1.0  0.04276  0.68731  0.21727  1.0000
  C   C1520     1.0  0.03425  0.68012  0.23134  1.0000
  H   H1504     1.0  0.03711  0.67953  0.24214  1.0000
  C   C1521     1.0  0.15000  0.68214  0.20370  1.0000
  C   C1522     1.0  0.13419  0.68556  0.21126  1.0000
  H   H1505     1.0  0.15892  0.67728  0.21045  1.0000
  Fe  Fe260     1.0  0.99653  0.87101  0.35574  1.0000
  C   C1523     1.0  0.31878  0.74619  0.20342  1.0000
  C   C1524     1.0  0.43240  0.95288  0.26029  1.0000
  H   H1506     1.0  0.24467  0.81767  0.31238  1.0000
  S   S515      1.0  0.36592  0.87026  0.34214  1.0000
  H   H1507     1.0  0.32882  0.73925  0.19690  1.0000
  C   C1525     1.0  0.15196  0.91416  0.31629  1.0000
  C   C1526     1.0  0.03170  0.71645  0.24420  1.0000
  H   H1508     1.0  0.35064  0.93073  0.32801  1.0000
  H   H1509     1.0  0.16661  0.89290  0.35996  1.0000
  H   H1510     1.0  0.35939  0.89693  0.21510  1.0000
  C   C1527     1.0  0.01302  0.61358  0.33795  1.0000
  H   H1511     1.0  0.37311  0.91340  0.33892  1.0000
  C   C1528     1.0  0.40594  0.91530  0.29040  1.0000
  H   H1512     1.0  0.37805  0.88512  0.24876  1.0000
  H   H1513     1.0  0.05954  0.86739  0.34108  1.0000
  H   H1514     1.0  0.37111  0.86064  0.25332  1.0000
  N   N124      1.0  0.04307  0.72549  0.24317  1.0000
  C   C1529     1.0  0.02116  0.60469  0.25425  1.0000
  H   H1515     1.0  0.27098  0.78065  0.21997  1.0000
  C   C1530     1.0  0.36968  0.89100  0.24104  1.0000
  C   C1531     1.0  0.11392  0.97620  0.36830  1.0000
  C   C1532     1.0  0.06587  0.52193  0.36540  1.0000
  C   C1533     1.0  0.04139  0.51962  0.31679  1.0000
  H   H1516     1.0  0.40613  0.96387  0.21768  1.0000
  H   H1517     1.0  0.03750  0.57981  0.22975  1.0000
  H   H1518     1.0  0.35397  0.94047  0.29943  1.0000
  H   H1519     1.0  0.02261  0.51525  0.23813  1.0000
  H   H1520     1.0  0.37969  0.93293  0.28221  1.0000
  H   H1521     1.0  0.41244  0.86735  0.36640  1.0000
  H   H1522     1.0  0.31280  0.86608  0.18013  1.0000
  H   H1523     1.0  0.28358  0.82628  0.30003  1.0000
  H   H1524     1.0  0.05226  0.62761  0.26670  1.0000
  C   C1534     1.0  0.06140  0.84436  0.33792  1.0000
  H   H1525     1.0  0.26142  0.93565  0.35043  1.0000
  H   H1526     1.0  0.28288  0.78349  0.23093  1.0000
  C   C1535     1.0  0.41583  0.87631  0.32724  1.0000
  H   H1527     1.0  0.32837  0.89935  0.18888  1.0000
  H   H1528     1.0  0.20115  0.79012  0.30021  1.0000
  N   N125      1.0  0.05808  0.62762  0.24256  1.0000
  C   C1536     1.0  0.06214  0.64177  0.23793  1.0000
  C   C1537     1.0  0.05615  0.62084  0.23193  1.0000
  C   C1538     1.0  0.06377  0.64978  0.22241  1.0000
  C   C1539     1.0  0.05723  0.62871  0.21638  1.0000
  C   C1540     1.0  0.06094  0.64335  0.21166  1.0000
  C   C1541     1.0  0.05656  0.61931  0.25885  1.0000
  C   C1542     1.0  0.03902  0.68779  0.20334  1.0000
  H   H1529     1.0  0.05346  0.60939  0.23549  1.0000
  C   C1543     1.0  0.16859  0.89064  0.32804  1.0000
  H   H1530     1.0  0.05507  0.62351  0.20813  1.0000
  H   H1531     1.0  0.32589  0.83844  0.34075  1.0000
  C   C1544     1.0  0.12267  0.69172  0.20252  1.0000
  H   H1532     1.0  0.02016  0.62941  0.21909  1.0000
  N   N126      1.0  0.44431  0.94757  0.21790  1.0000
  S   S516      1.0  0.47609  0.95095  0.26262  1.0000
  H   H1533     1.0  0.06412  0.64699  0.24625  1.0000
  N   N127      1.0  0.18272  0.78477  0.31942  1.0000
  Fe  Fe261     1.0  0.20803  0.82742  0.35860  1.0000
  C   C1545     1.0  0.37451  0.91789  0.32650  1.0000
  C   C1546     1.0  0.01850  0.61868  0.24331  1.0000
  H   H1534     1.0  0.09669  0.85679  0.37036  1.0000
  H   H1535     1.0  0.44875  0.88497  0.33031  1.0000
  C   C1547     1.0  0.04739  0.53264  0.31491  1.0000
  H   H1536     1.0  0.27351  0.76707  0.23816  1.0000
  S   S517      1.0  0.40711  0.87543  0.31272  1.0000
  C   C1548     1.0  0.36189  0.92757  0.32035  1.0000
  C   C1549     1.0  0.14277  0.69135  0.17869  1.0000
  C   C1550     1.0  0.30681  0.91481  0.18426  1.0000
  H   H1537     1.0  0.35880  0.89708  0.24797  1.0000
  H   H1538     1.0  0.26776  0.87258  0.27487  1.0000
  C   C1551     1.0  0.00035  0.58497  0.21015  1.0000
  C   C1552     1.0  0.03217  0.59068  0.23344  1.0000
  S   S518      1.0  0.48388  0.93163  0.34810  1.0000
  C   C1553     1.0  0.35590  0.85944  0.22407  1.0000
  H   H1539     1.0  0.42470  0.83436  0.34135  1.0000
  H   H1540     1.0  0.06029  0.82310  0.33277  1.0000
  C   C1554     1.0  0.35516  0.87485  0.21593  1.0000
  N   N128      1.0  0.03646  0.85831  0.32330  1.0000
  C   C1555     1.0  0.04291  0.84276  0.32439  1.0000
  C   C1556     1.0  0.04258  0.86714  0.32886  1.0000
  C   C1557     1.0  0.05536  0.83550  0.33184  1.0000
  C   C1558     1.0  0.05499  0.86030  0.33643  1.0000
  H   H1541     1.0  0.48609  0.85053  0.32261  1.0000
  C   C1559     1.0  0.02346  0.86574  0.31539  1.0000
  H   H1542     1.0  0.03843  0.83588  0.31947  1.0000
  H   H1543     1.0  0.03782  0.87958  0.32750  1.0000
  H   H1544     1.0  0.33083  0.85208  0.36435  1.0000
  H   H1545     1.0  0.02381  0.68187  0.19262  1.0000
  H   H1546     1.0  0.00281  0.51732  0.30362  1.0000
  H   H1547     1.0  0.01622  0.85734  0.31652  1.0000
  N   N129      1.0  0.18308  0.89816  0.36924  1.0000
  H   H1548     1.0  0.14692  0.91706  0.36334  1.0000
  H   H1549     1.0  0.07339  0.74871  0.24108  1.0000
  H   H1550     1.0  0.00166  0.59598  0.21131  1.0000
  S   S519      1.0  0.44220  0.87405  0.36382  1.0000
  C   C1560     1.0  0.04597  0.53851  0.32781  1.0000
  H   H1551     1.0  0.48244  0.94565  0.29314  1.0000
  C   C1561     1.0  0.02675  0.68125  0.20343  1.0000
  C   C1562     1.0  0.01780  0.67466  0.21751  1.0000
  H   H1552     1.0  0.33262  0.81804  0.34151  1.0000
  H   H1553     1.0  0.33247  0.75376  0.21446  1.0000
  H   H1554     1.0  0.01902  0.54684  0.21528  1.0000
  H   H1555     1.0  0.30943  0.76987  0.22867  1.0000
  C   C1563     1.0  0.43776  0.88132  0.33393  1.0000
  C   C1564     1.0  0.02499  0.51090  0.35957  1.0000
  H   H1556     1.0  0.18349  0.71512  0.19624  1.0000
  H   H1557     1.0  0.27930  0.75752  0.20824  1.0000
  H   H1558     1.0  0.31180  0.96072  0.31161  1.0000
  H   H1559     1.0  0.18529  0.80641  0.30396  1.0000
  C   C1565     1.0  0.36376  0.93303  0.30433  1.0000
  S   S520      1.0  0.48748  0.86408  0.34957  1.0000
  C   C1566     1.0  0.03847  0.53130  0.34244  1.0000
  H   H1560     1.0  0.12192  0.55260  0.35221  1.0000
  C   C1567     1.0  0.16655  0.90612  0.31972  1.0000
  H   H1561     1.0  0.32627  0.80439  0.36709  1.0000
  C   C1568     1.0  0.16541  0.71804  0.18413  1.0000
  C   C1569     1.0  0.06304  0.50684  0.37025  1.0000
  C   C1570     1.0  0.36698  0.86464  0.24259  1.0000
  H   H1562     1.0  0.31295  0.88229  0.36020  1.0000
  Fe  Fe262     1.0  0.35861  0.85198  0.33554  1.0000
  S   S521      1.0  0.01543  0.55851  0.28617  1.0000
  S   S522      1.0  0.11240  0.92779  0.35782  1.0000
  H   H1563     1.0  0.35151  0.85165  0.22016  1.0000
  C   C1571     1.0  0.18681  0.78687  0.33179  1.0000
  H   H1564     1.0  0.07005  0.74395  0.21692  1.0000
  C   C1572     1.0  0.32082  0.75428  0.21326  1.0000
  H   H1565     1.0  0.40456  0.91193  0.28023  1.0000
  H   H1566     1.0  0.05527  0.74421  0.36375  1.0000
  C   C1573     1.0  0.17352  0.77448  0.32158  1.0000
  C   C1574     1.0  0.17161  0.76869  0.34921  1.0000
  H   H1567     1.0  0.16988  0.77307  0.31188  1.0000
  N   N130      1.0  0.10241  0.69096  0.31228  1.0000
  C   C1575     1.0  0.11162  0.70100  0.30296  1.0000
  C   C1576     1.0  0.09919  0.68900  0.32807  1.0000
  C   C1577     1.0  0.11754  0.70968  0.30940  1.0000
  C   C1578     1.0  0.10509  0.69737  0.33491  1.0000
  C   C1579     1.0  0.11428  0.70779  0.32547  1.0000
  C   C1580     1.0  0.09617  0.68193  0.30547  1.0000
  H   H1568     1.0  0.11418  0.70262  0.29044  1.0000
  H   H1569     1.0  0.09201  0.68094  0.33546  1.0000
  S   S523      1.0  0.02690  0.64745  0.18465  1.0000
  H   H1570     1.0  0.10258  0.69586  0.34743  1.0000
  H   H1571     1.0  0.11884  0.71439  0.33063  1.0000
  H   H1572     1.0  0.08334  0.68319  0.31014  1.0000
  H   H1573     1.0  0.09785  0.68608  0.29267  1.0000
  H   H1574     1.0  0.10207  0.66943  0.30802  1.0000
  S   S524      1.0  0.00422  0.57165  0.37263  1.0000
  H   H1575     1.0  0.31244  0.92383  0.17654  1.0000
  H   H1576     1.0  0.25281  0.82154  0.32633  1.0000
  H   H1577     1.0  0.28088  0.88680  0.36365  1.0000
  C   C1581     1.0  0.01178  0.57156  0.21372  1.0000
  C   C1582     1.0  0.26986  0.91078  0.35635  1.0000
  S   S525      1.0  0.15417  0.81677  0.36615  1.0000
  H   H1578     1.0  0.31490  0.78533  0.19055  1.0000
  C   C1583     1.0  0.01488  0.61081  0.31215  1.0000
  C   C1584     1.0  0.02221  0.61855  0.22745  1.0000
  S   S526      1.0  0.00869  0.89113  0.34672  1.0000
  H   H1579     1.0  0.15042  0.92614  0.30990  1.0000
  H   H1580     1.0  0.41394  0.90528  0.29625  1.0000
  C   C1585     1.0  0.12503  0.84835  0.35303  1.0000
  H   H1581     1.0  0.31638  0.82864  0.33261  1.0000
  S   S527      1.0  0.07606  0.95997  0.36987  1.0000
  N   N131      1.0  0.30967  0.92862  0.22836  1.0000
  C   C1586     1.0  0.31109  0.91312  0.22938  1.0000
  C   C1587     1.0  0.31191  0.93348  0.24021  1.0000
  C   C1588     1.0  0.31537  0.90198  0.24225  1.0000
  C   C1589     1.0  0.31625  0.92266  0.25325  1.0000
  C   C1590     1.0  0.31811  0.90679  0.25420  1.0000
  C   C1591     1.0  0.30561  0.94020  0.21463  1.0000
  H   H1582     1.0  0.30906  0.90927  0.22015  1.0000
  H   H1583     1.0  0.31082  0.94576  0.23939  1.0000
  H   H1584     1.0  0.31660  0.88971  0.24283  1.0000
  H   H1585     1.0  0.31840  0.92658  0.26241  1.0000
  H   H1586     1.0  0.32169  0.89829  0.26418  1.0000
  H   H1587     1.0  0.02056  0.61240  0.29992  1.0000
  H   H1588     1.0  0.25953  0.90818  0.35487  1.0000
  H   H1589     1.0  0.29357  0.84481  0.35058  1.0000
  C   C1592     1.0  0.31575  0.90112  0.19155  1.0000
  C   C1593     1.0  0.19480  0.88388  0.36690  1.0000
  H   H1590     1.0  0.27054  0.90733  0.20024  1.0000
  H   H1591     1.0  0.30621  0.93467  0.20507  1.0000
  H   H1592     1.0  0.12200  0.83695  0.35483  1.0000
  H   H1593     1.0  0.00232  0.50098  0.32906  1.0000
  C   C1594     1.0  0.32192  0.82757  0.34229  1.0000
  H   H1594     1.0  0.18271  0.79242  0.29512  1.0000
  H   H1595     1.0  0.04572  0.83085  0.37183  1.0000
  H   H1596     1.0  0.11203  0.53961  0.34918  1.0000
  C   C1595     1.0  0.16921  0.90120  0.36477  1.0000
  C   C1596     1.0  0.45485  0.93244  0.22192  1.0000
  H   H1597     1.0  0.10367  0.56009  0.34564  1.0000
  C   C1597     1.0  0.00276  0.56127  0.35988  1.0000
  H   H1598     1.0  0.44110  0.83605  0.35815  1.0000
  H   H1599     1.0  0.12345  0.94803  0.32030  1.0000
  C   C1598     1.0  0.01004  0.56452  0.34412  1.0000
  H   H1600     1.0  0.04252  0.51483  0.30689  1.0000
  C   C1599     1.0  0.18011  0.71895  0.18513  1.0000
  H   H1601     1.0  0.03310  0.49992  0.36384  1.0000
  C   C1600     1.0  0.35585  0.95210  0.17585  1.0000
  H   H1602     1.0  0.47331  0.86893  0.31648  1.0000
  H   H1603     1.0  0.03037  0.62121  0.31798  1.0000
  H   H1604     1.0  0.31611  0.89340  0.37183  1.0000
  H   H1605     1.0  0.15726  0.71349  0.19443  1.0000
  N   N132      1.0  0.46284  0.84945  0.32301  1.0000
  C   C1601     1.0  0.08820  0.97170  0.37061  1.0000
  H   H1606     1.0  0.13341  0.79573  0.37374  1.0000
  C   C1602     1.0  0.05003  0.88727  0.36783  1.0000
  H   H1607     1.0  0.00071  0.51978  0.27691  1.0000
  C   C1603     1.0  0.10435  0.96612  0.36934  1.0000
  H   H1608     1.0  0.20223  0.88588  0.35498  1.0000
  C   C1604     1.0  0.29358  0.78972  0.18272  1.0000
  S   S528      1.0  0.22801  0.81961  0.37097  1.0000
  C   C1605     1.0  0.42447  0.97659  0.21130  1.0000
  C   C1606     1.0  0.18822  0.79379  0.30387  1.0000
  Fe  Fe263     1.0  0.08065  0.90338  0.36835  1.0000
  C   C1607     1.0  0.00018  0.60648  0.34332  1.0000
  H   H1609     1.0  0.10952  0.95407  0.36906  1.0000
  H   H1610     1.0  0.28390  0.87522  0.18659  1.0000
  N   N133      1.0  0.12141  0.85286  0.36795  1.0000
  C   C1608     1.0  0.33203  0.84132  0.37302  1.0000
  C   C1609     1.0  0.99743  0.55662  0.20732  1.0000
  C   C1610     1.0  0.41855  0.96311  0.21616  1.0000
  H   H1611     1.0  0.01403  0.50816  0.35910  1.0000
  H   H1612     1.0  0.12581  0.97046  0.32914  1.0000
  C   C1611     1.0  0.34317  0.93197  0.17630  1.0000
  H   H1613     1.0  0.11804  0.69979  0.17953  1.0000
  H   H1614     1.0  0.18911  0.87417  0.36823  1.0000
  H   H1615     1.0  0.28491  0.94140  0.35454  1.0000
  C   C1612     1.0  0.29584  0.91714  0.36133  1.0000
  N   N134      1.0  0.10128  0.54909  0.36944  1.0000
  C   C1613     1.0  0.00000  0.51322  0.23682  1.0000
  H   H1616     1.0  0.99597  0.54550  0.20660  1.0000
  C   C1614     1.0  0.99315  0.55049  0.36534  1.0000
  Fe  Fe264     1.0  0.99321  0.55497  0.30345  1.0000
  S   S529      1.0  0.99326  0.53828  0.32648  1.0000
  Fe  Fe265     1.0  0.49221  0.96552  0.26258  1.0000
  S   S530      1.0  0.49185  0.93885  0.22291  1.0000
  C   C1615     1.0  0.28609  0.83277  0.37407  1.0000
  H   H1617     1.0  0.15237  0.93613  0.37475  1.0000
  C   C1616     1.0  0.18636  0.90874  0.37515  1.0000
  C   C1617     1.0  0.13321  0.85322  0.37426  1.0000
  S   S531      1.0  0.28002  0.93253  0.17540  1.0000
  H   H1618     1.0  0.29831  0.78127  0.17552  1.0000
  C   C1618     1.0  0.29015  0.82019  0.38596  1.0000
  Fe  Fe266     1.0  0.26973  0.85889  0.44610  1.0000
  S   S532      1.0  0.29234  0.86230  0.42935  1.0000
  S   S533      1.0  0.26293  0.85884  0.47173  1.0000
  Fe  Fe267     1.0  0.25480  0.85685  0.42068  1.0000
  S   S534      1.0  0.27636  0.85948  0.40192  1.0000
  S   S535      1.0  0.23106  0.85879  0.41651  1.0000
  Fe  Fe268     1.0  0.28919  0.84350  0.41997  1.0000
  S   S536      1.0  0.30888  0.82306  0.41612  1.0000
  Fe  Fe269     1.0  0.27738  0.87802  0.41298  1.0000
  S   S537      1.0  0.27787  0.90258  0.40018  1.0000
  S   S538      1.0  0.26746  0.83894  0.43783  1.0000
  S   S539      1.0  0.25520  0.87632  0.43052  1.0000
  Fe  Fe270     1.0  0.29883  0.87552  0.55270  1.0000
  H   H1619     1.0  0.07728  0.52764  0.39648  1.0000
  C   C1619     1.0  0.12978  0.85799  0.38823  1.0000
  S   S540      1.0  0.31681  0.85204  0.50584  1.0000
  S   S541      1.0  0.21283  0.90538  0.57042  1.0000
  H   H1620     1.0  0.15257  0.91411  0.49936  1.0000
  H   H1621     1.0  0.48377  0.85862  0.39711  1.0000
  C   C1620     1.0  0.00565  0.82498  0.56936  1.0000
  H   H1622     1.0  0.23747  0.91144  0.45413  1.0000
  Fe  Fe271     1.0  0.19123  0.96183  0.54915  1.0000
  H   H1623     1.0  0.07036  0.60288  0.38435  1.0000
  H   H1624     1.0  0.15271  0.96518  0.55473  1.0000
  H   H1625     1.0  0.28483  0.81617  0.51118  1.0000
  C   C1621     1.0  0.10609  0.85679  0.37546  1.0000
  C   C1622     1.0  0.23298  0.90372  0.56714  1.0000
  C   C1623     1.0  0.22888  0.83104  0.38312  1.0000
  C   C1624     1.0  0.05427  0.72427  0.38290  1.0000
  H   H1626     1.0  0.20788  0.92022  0.50484  1.0000
  C   C1625     1.0  0.09981  0.69666  0.38977  1.0000
  C   C1626     1.0  0.47807  0.86217  0.40835  1.0000
  S   S542      1.0  0.06626  0.70530  0.42784  1.0000
  S   S543      1.0  0.11891  0.63388  0.56801  1.0000
  S   S544      1.0  0.02162  0.77685  0.56087  1.0000
  S   S545      1.0  0.07891  0.69939  0.56378  1.0000
  Fe  Fe272     1.0  0.10399  0.65783  0.56823  1.0000
  H   H1627     1.0  0.02747  0.70985  0.42454  1.0000
  Fe  Fe273     1.0  0.08766  0.68439  0.54625  1.0000
  S   S546      1.0  0.08016  0.66346  0.56297  1.0000
  S   S547      1.0  0.08010  0.69348  0.52330  1.0000
  H   H1628     1.0  0.03518  0.79677  0.42394  1.0000
  H   H1629     1.0  0.01431  0.75579  0.50044  1.0000
  H   H1630     1.0  0.08102  0.62427  0.38622  1.0000
  H   H1631     1.0  0.00018  0.78721  0.44652  1.0000
  H   H1632     1.0  0.03223  0.76113  0.37714  1.0000
  S   S548      1.0  0.11213  0.67789  0.55013  1.0000
  Fe  Fe274     1.0  0.04093  0.65939  0.45254  1.0000
  S   S549      1.0  0.05048  0.67378  0.46220  1.0000
  S   S550      1.0  0.01673  0.65508  0.45883  1.0000
  Fe  Fe275     1.0  0.07171  0.64779  0.43196  1.0000
  S   S551      1.0  0.08467  0.66076  0.43984  1.0000
  S   S552      1.0  0.08185  0.63556  0.41195  1.0000
  Fe  Fe276     1.0  0.07068  0.65322  0.46386  1.0000
  S   S553      1.0  0.08186  0.64531  0.48466  1.0000
  S   S554      1.0  0.05995  0.63800  0.45623  1.0000
  Fe  Fe277     1.0  0.18050  0.96670  0.41827  1.0000
  S   S555      1.0  0.16484  0.95353  0.43748  1.0000
  S   S556      1.0  0.32187  0.87127  0.53582  1.0000
  Fe  Fe278     1.0  0.19520  0.93955  0.40262  1.0000
  S   S557      1.0  0.18071  0.92391  0.42043  1.0000
  H   H1633     1.0  0.31189  0.84976  0.38999  1.0000
  Fe  Fe279     1.0  0.16095  0.94483  0.41879  1.0000
  S   S558      1.0  0.13633  0.94661  0.41769  1.0000
  Fe  Fe280     1.0  0.18604  0.93398  0.43743  1.0000
  S   S559      1.0  0.19079  0.91823  0.45988  1.0000
  S   S560      1.0  0.17490  0.95962  0.39939  1.0000
  S   S561      1.0  0.20235  0.94799  0.41971  1.0000
  H   H1634     1.0  0.21037  0.88561  0.43229  1.0000
  C   C1627     1.0  0.26543  0.90095  0.56055  1.0000
  Fe  Fe281     1.0  0.05191  0.57950  0.38470  1.0000
  H   H1635     1.0  0.02061  0.60526  0.42838  1.0000
  C   C1628     1.0  0.16034  0.92858  0.50924  1.0000
  H   H1636     1.0  0.09293  0.73619  0.38063  1.0000
  H   H1637     1.0  0.19747  0.90652  0.37844  1.0000
  H   H1638     1.0  0.25622  0.88842  0.39432  1.0000
  C   C1629     1.0  0.06235  0.59776  0.42362  1.0000
  H   H1639     1.0  0.02458  0.60626  0.45286  1.0000
  C   C1630     1.0  0.13406  0.93176  0.41057  1.0000
  C   C1631     1.0  0.12162  0.93457  0.40337  1.0000
  C   C1632     1.0  0.11983  0.92303  0.39717  1.0000
  C   C1633     1.0  0.13035  0.90857  0.39834  1.0000
  C   C1634     1.0  0.14265  0.90562  0.40580  1.0000
  C   C1635     1.0  0.14457  0.91728  0.41183  1.0000
  C   C1636     1.0  0.09324  0.53745  0.37626  1.0000
  C   C1637     1.0  0.04964  0.80735  0.38566  1.0000
  H   H1640     1.0  0.15080  0.89444  0.40672  1.0000
  H   H1641     1.0  0.15402  0.91496  0.41764  1.0000
  H   H1642     1.0  0.12071  0.97657  0.39875  1.0000
  C   C1638     1.0  0.03807  0.80423  0.41257  1.0000
  H   H1643     1.0  0.16515  0.95557  0.46853  1.0000
  C   C1639     1.0  0.24301  0.88902  0.56818  1.0000
  H   H1644     1.0  0.23146  0.92340  0.42804  1.0000
  C   C1640     1.0  0.02422  0.61895  0.44896  1.0000
  H   H1645     1.0  0.23080  0.89929  0.38680  1.0000
  H   H1646     1.0  0.21725  0.91062  0.41748  1.0000
  H   H1647     1.0  0.25233  0.81890  0.38539  1.0000
  C   C1641     1.0  0.99849  0.81489  0.41314  1.0000
  C   C1642     1.0  0.19905  0.92658  0.46974  1.0000
  C   C1643     1.0  0.20076  0.91912  0.48485  1.0000
  C   C1644     1.0  0.20655  0.92607  0.49321  1.0000
  C   C1645     1.0  0.21081  0.94039  0.48641  1.0000
  C   C1646     1.0  0.20960  0.94759  0.47110  1.0000
  C   C1647     1.0  0.20352  0.94079  0.46284  1.0000
  H   H1648     1.0  0.19736  0.90809  0.49020  1.0000
  H   H1649     1.0  0.21294  0.95866  0.46578  1.0000
  H   H1650     1.0  0.20220  0.94663  0.45120  1.0000
  H   H1651     1.0  0.10691  0.68660  0.38525  1.0000
  C   C1648     1.0  0.06797  0.61018  0.42468  1.0000
  H   H1652     1.0  0.03672  0.64303  0.43232  1.0000
  H   H1653     1.0  0.06730  0.61219  0.43591  1.0000
  S   S562      1.0  0.32187  0.83402  0.54924  1.0000
  H   H1654     1.0  0.03265  0.72527  0.42934  1.0000
  H   H1655     1.0  0.35483  0.80469  0.37840  1.0000
  H   H1656     1.0  0.26007  0.92595  0.55714  1.0000
  C   C1649     1.0  0.10129  0.71165  0.38126  1.0000
  N   N135      1.0  0.02829  0.62370  0.43200  1.0000
  C   C1650     1.0  0.23848  0.93267  0.38931  1.0000
  H   H1657     1.0  0.23024  0.88641  0.46877  1.0000
  C   C1651     1.0  0.07912  0.67967  0.51374  1.0000
  C   C1652     1.0  0.07212  0.68476  0.50089  1.0000
  C   C1653     1.0  0.07237  0.67423  0.49221  1.0000
  C   C1654     1.0  0.07954  0.65849  0.49639  1.0000
  C   C1655     1.0  0.08604  0.65333  0.50958  1.0000
  C   C1656     1.0  0.08588  0.66387  0.51821  1.0000
  H   H1658     1.0  0.06691  0.69698  0.49733  1.0000
  H   H1659     1.0  0.06749  0.67841  0.48200  1.0000
  H   H1660     1.0  0.09161  0.64117  0.51289  1.0000
  H   H1661     1.0  0.09137  0.65982  0.52807  1.0000
  C   C1657     1.0  0.06978  0.60475  0.39561  1.0000
  S   S563      1.0  0.18035  0.94227  0.56453  1.0000
  H   H1662     1.0  0.28100  0.82054  0.48456  1.0000
  H   H1663     1.0  0.11343  0.94574  0.40241  1.0000
  Fe  Fe282     1.0  0.10260  0.69079  0.56953  1.0000
  C   C1658     1.0  0.12550  0.98205  0.42804  1.0000
  C   C1659     1.0  0.04382  0.82348  0.38336  1.0000
  C   C1660     1.0  0.08151  0.72254  0.40162  1.0000
  C   C1661     1.0  0.00277  0.75606  0.50794  1.0000
  C   C1662     1.0  0.02930  0.62000  0.40687  1.0000
  C   C1663     1.0  0.10224  0.86170  0.38942  1.0000
  H   H1664     1.0  0.07534  0.54776  0.41080  1.0000
  S   S564      1.0  0.28569  0.89949  0.55572  1.0000
  H   H1665     1.0  0.05726  0.59030  0.43409  1.0000
  C   C1664     1.0  0.00395  0.68650  0.45655  1.0000
  H   H1666     1.0  0.00445  0.81171  0.51159  1.0000
  C   C1665     1.0  0.48773  0.86864  0.42764  1.0000
  H   H1667     1.0  0.19110  0.97657  0.44245  1.0000
  H   H1668     1.0  0.01580  0.68816  0.45381  1.0000
  C   C1666     1.0  0.02126  0.81685  0.56833  1.0000
  C   C1667     1.0  0.23912  0.91701  0.56341  1.0000
  C   C1668     1.0  0.11420  0.86240  0.39575  1.0000
  C   C1669     1.0  0.23047  0.92287  0.38685  1.0000
  H   H1669     1.0  0.31096  0.81542  0.51513  1.0000
  H   H1670     1.0  0.33307  0.81853  0.49242  1.0000
  H   H1671     1.0  0.05255  0.68672  0.54491  1.0000
  N   N136      1.0  0.16757  0.95165  0.49176  1.0000
  H   H1672     1.0  0.31145  0.82959  0.44906  1.0000
  S   S565      1.0  0.30744  0.85833  0.57269  1.0000
  H   H1673     1.0  0.30800  0.80026  0.39268  1.0000
  S   S566      1.0  0.21186  0.93017  0.38266  1.0000
  H   H1674     1.0  0.07443  0.73260  0.40614  1.0000
  H   H1675     1.0  0.29087  0.83270  0.45702  1.0000
  C   C1670     1.0  0.23053  0.84827  0.40340  1.0000
  C   C1671     1.0  0.24340  0.83675  0.39872  1.0000
  C   C1672     1.0  0.23159  0.90580  0.44925  1.0000
  C   C1673     1.0  0.32132  0.84000  0.38749  1.0000
  C   C1674     1.0  0.34557  0.81460  0.38093  1.0000
  C   C1675     1.0  0.21692  0.85129  0.39779  1.0000
  H   H1676     1.0  0.25380  0.83425  0.40321  1.0000
  C   C1676     1.0  0.13716  0.94961  0.55997  1.0000
  H   H1677     1.0  0.00979  0.78151  0.39971  1.0000
  H   H1678     1.0  0.20690  0.86008  0.40153  1.0000
  C   C1677     1.0  0.25965  0.91052  0.39502  1.0000
  C   C1678     1.0  0.25322  0.92653  0.39312  1.0000
  H   H1679     1.0  0.05739  0.50274  0.38217  1.0000
  C   C1679     1.0  0.00102  0.79221  0.43425  1.0000
  H   H1680     1.0  0.00357  0.81029  0.39038  1.0000
  C   C1680     1.0  0.25146  0.90076  0.39281  1.0000
  H   H1681     1.0  0.25948  0.93411  0.39490  1.0000
  C   C1681     1.0  0.99994  0.80418  0.52280  1.0000
  H   H1682     1.0  0.23333  0.94499  0.38820  1.0000
  C   C1682     1.0  0.03609  0.63285  0.39984  1.0000
  C   C1683     1.0  0.32278  0.82591  0.39858  1.0000
  C   C1684     1.0  0.33506  0.81335  0.39534  1.0000
  C   C1685     1.0  0.30457  0.80981  0.38334  1.0000
  H   H1683     1.0  0.01234  0.62559  0.45346  1.0000
  C   C1686     1.0  0.15661  0.92473  0.49728  1.0000
  C   C1687     1.0  0.00541  0.78252  0.42373  1.0000
  H   H1684     1.0  0.33624  0.80246  0.40387  1.0000
  H   H1685     1.0  0.06341  0.77773  0.39436  1.0000
  Fe  Fe283     1.0  0.00810  0.76422  0.55340  1.0000
  C   C1688     1.0  0.24252  0.82808  0.38869  1.0000
  C   C1689     1.0  0.27767  0.85801  0.48111  1.0000
  C   C1690     1.0  0.27429  0.85573  0.49734  1.0000
  C   C1691     1.0  0.28609  0.85426  0.50511  1.0000
  C   C1692     1.0  0.30132  0.85506  0.49665  1.0000
  C   C1693     1.0  0.30457  0.85767  0.48043  1.0000
  C   C1694     1.0  0.29279  0.85918  0.47268  1.0000
  H   H1686     1.0  0.26260  0.85481  0.50394  1.0000
  H   H1687     1.0  0.31631  0.85838  0.47383  1.0000
  H   H1688     1.0  0.29549  0.86112  0.46019  1.0000
  C   C1695     1.0  0.25534  0.91563  0.56011  1.0000
  C   C1696     1.0  0.21621  0.86947  0.45983  1.0000
  H   H1689     1.0  0.05274  0.77510  0.41415  1.0000
  C   C1697     1.0  0.07577  0.61690  0.39669  1.0000
  N   N137      1.0  0.22011  0.88447  0.45126  1.0000
  C   C1698     1.0  0.02659  0.72264  0.42173  1.0000
  Fe  Fe284     1.0  0.20254  0.92701  0.55477  1.0000
  C   C1699     1.0  0.02543  0.61556  0.42306  1.0000
  H   H1690     1.0  0.32898  0.82237  0.46597  1.0000
  C   C1700     1.0  0.03515  0.82998  0.39601  1.0000
  C   C1701     1.0  0.17303  0.96600  0.48905  1.0000
  C   C1702     1.0  0.21614  0.84279  0.38756  1.0000
  C   C1703     1.0  0.29258  0.81961  0.48625  1.0000
  Fe  Fe285     1.0  0.31220  0.85348  0.53094  1.0000
  H   H1691     1.0  0.15897  0.92115  0.52081  1.0000
  Fe  Fe286     1.0  0.06384  0.68052  0.43774  1.0000
  C   C1704     1.0  0.11228  0.98204  0.40809  1.0000
  S   S567      1.0  0.35267  0.84524  0.56270  1.0000
  S   S568      1.0  0.05200  0.66843  0.42784  1.0000
  H   H1692     1.0  0.11952  0.93592  0.56794  1.0000
  S   S569      1.0  0.03178  0.59632  0.37561  1.0000
  H   H1693     1.0  0.04159  0.67242  0.57104  1.0000
  H   H1694     1.0  0.15563  0.93154  0.47310  1.0000
  H   H1695     1.0  0.47272  0.87482  0.40542  1.0000
  H   H1696     1.0  0.03098  0.79289  0.37600  1.0000
  C   C1705     1.0  0.31931  0.82075  0.47585  1.0000
  H   H1697     1.0  0.23137  0.92833  0.56336  1.0000
  H   H1698     1.0  0.13913  0.85879  0.39294  1.0000
  C   C1706     1.0  0.32177  0.81839  0.49077  1.0000
  H   H1699     1.0  0.13514  0.60255  0.57179  1.0000
  H   H1700     1.0  0.17754  0.97046  0.47650  1.0000
  C   C1707     1.0  0.99773  0.80839  0.42894  1.0000
  H   H1701     1.0  0.01882  0.75082  0.40393  1.0000
  H   H1702     1.0  0.00201  0.69412  0.49359  1.0000
  C   C1708     1.0  0.21624  0.89127  0.43718  1.0000
  H   H1703     1.0  0.26683  0.87622  0.56611  1.0000
  C   C1709     1.0  0.03453  0.63658  0.42521  1.0000
  H   H1704     1.0  0.28226  0.81859  0.39730  1.0000
  H   H1705     1.0  0.08309  0.75697  0.57033  1.0000
  H   H1706     1.0  0.30207  0.81329  0.45546  1.0000
  C   C1710     1.0  0.30934  0.81662  0.50357  1.0000
  C   C1711     1.0  0.06303  0.59515  0.40908  1.0000
  C   C1712     1.0  0.23706  0.90695  0.38843  1.0000
  H   H1707     1.0  0.01398  0.72839  0.42451  1.0000
  H   H1708     1.0  0.22475  0.86266  0.46717  1.0000
  C   C1713     1.0  0.03869  0.64125  0.40906  1.0000
  S   S570      1.0  0.99429  0.83514  0.40690  1.0000
  H   H1709     1.0  0.04319  0.77641  0.39896  1.0000
  Fe  Fe287     1.0  0.17273  0.94228  0.54342  1.0000
  N   N138      1.0  0.11051  0.67231  0.47492  1.0000
  C   C1714     1.0  0.10543  0.67330  0.46194  1.0000
  C   C1715     1.0  0.10797  0.68529  0.48064  1.0000
  C   C1716     1.0  0.09729  0.68752  0.45450  1.0000
  C   C1717     1.0  0.09980  0.69967  0.47355  1.0000
  C   C1718     1.0  0.09440  0.70074  0.46042  1.0000
  C   C1719     1.0  0.11926  0.65735  0.48233  1.0000
  H   H1710     1.0  0.10737  0.66298  0.45747  1.0000
  H   H1711     1.0  0.11182  0.68450  0.49105  1.0000
  H   H1712     1.0  0.09309  0.68829  0.44430  1.0000
  H   H1713     1.0  0.09742  0.70980  0.47843  1.0000
  H   H1714     1.0  0.08787  0.71174  0.45486  1.0000
  H   H1715     1.0  0.13181  0.65562  0.47635  1.0000
  H   H1716     1.0  0.11821  0.65675  0.49481  1.0000
  H   H1717     1.0  0.11451  0.64756  0.48191  1.0000
  N   N139      1.0  0.26104  0.90985  0.51481  1.0000
  C   C1720     1.0  0.26309  0.90173  0.50370  1.0000
  C   C1721     1.0  0.27349  0.90974  0.52042  1.0000
  C   C1722     1.0  0.27798  0.89345  0.49774  1.0000
  C   C1723     1.0  0.28845  0.90125  0.51502  1.0000
  C   C1724     1.0  0.29070  0.89306  0.50360  1.0000
  C   C1725     1.0  0.24528  0.91795  0.52141  1.0000
  H   H1718     1.0  0.25320  0.90161  0.49940  1.0000
  H   H1719     1.0  0.27192  0.91615  0.52920  1.0000
  H   H1720     1.0  0.27962  0.88717  0.48881  1.0000
  H   H1721     1.0  0.29819  0.90091  0.51983  1.0000
  H   H1722     1.0  0.30224  0.88633  0.49939  1.0000
  H   H1723     1.0  0.23775  0.92217  0.51277  1.0000
  H   H1724     1.0  0.23972  0.90996  0.53168  1.0000
  H   H1725     1.0  0.24572  0.92834  0.52513  1.0000
  H   H1726     1.0  0.46868  0.85569  0.41457  1.0000
  C   C1726     1.0  0.08001  0.70756  0.41010  1.0000
  C   C1727     1.0  0.22811  0.91257  0.43466  1.0000
  C   C1728     1.0  0.16366  0.94812  0.48003  1.0000
  S   S571      1.0  0.05500  0.58008  0.40811  1.0000
  C   C1729     1.0  0.22022  0.90538  0.42867  1.0000
  C   C1730     1.0  0.22736  0.89171  0.45751  1.0000
  H   H1727     1.0  0.02547  0.80672  0.56329  1.0000
  S   S572      1.0  0.11328  0.70872  0.57307  1.0000
  H   H1728     1.0  0.11023  0.92536  0.39153  1.0000
  N   N140      1.0  0.30479  0.82157  0.47375  1.0000
  H   H1729     1.0  0.00898  0.70396  0.51290  1.0000
  H   H1730     1.0  0.04437  0.65100  0.40377  1.0000
  Fe  Fe288     1.0  0.29901  0.84147  0.56525  1.0000
  S   S573      1.0  0.21435  0.94662  0.54103  1.0000
  S   S574      1.0  0.01629  0.75651  0.53080  1.0000
  N   N141      1.0  0.04665  0.79794  0.40012  1.0000
  C   C1731     1.0  0.03620  0.74914  0.38291  1.0000
  C   C1732     1.0  0.16579  0.94219  0.50625  1.0000
  C   C1733     1.0  0.14259  0.96128  0.56256  1.0000
  H   H1731     1.0  0.27485  0.84086  0.37603  1.0000
  C   C1734     1.0  0.03244  0.82035  0.41074  1.0000
  C   C1735     1.0  0.99319  0.70177  0.50040  1.0000
  C   C1736     1.0  0.04913  0.73960  0.37535  1.0000
  C   C1737     1.0  0.15818  0.93460  0.48258  1.0000
  C   C1738     1.0  0.00293  0.80523  0.40258  1.0000
  H   H1732     1.0  0.10709  0.97276  0.41699  1.0000
  C   C1739     1.0  0.04640  0.71871  0.39802  1.0000
  C   C1740     1.0  0.02870  0.74325  0.39807  1.0000
  C   C1741     1.0  0.10037  0.56011  0.37728  1.0000
  C   C1742     1.0  0.00056  0.75595  0.52366  1.0000
  C   C1743     1.0  0.08903  0.69462  0.40407  1.0000
  C   C1744     1.0  0.29466  0.81712  0.50133  1.0000
  H   H1733     1.0  0.21673  0.86224  0.45169  1.0000
  H   H1734     1.0  0.05068  0.70688  0.40394  1.0000
  S   S575      1.0  0.19398  0.92506  0.53496  1.0000
  H   H1735     1.0  0.20424  0.87148  0.46726  1.0000
  H   H1736     1.0  0.47813  0.87878  0.42802  1.0000
  H   H1737     1.0  0.28349  0.85217  0.51764  1.0000
  Fe  Fe289     1.0  0.11026  0.90585  0.37573  1.0000
  C   C1745     1.0  0.08286  0.54792  0.39930  1.0000
  S   S576      1.0  0.28850  0.85922  0.54635  1.0000
  C   C1746     1.0  0.25923  0.88763  0.56489  1.0000
  H   H1738     1.0  0.03264  0.62140  0.45422  1.0000
  S   S577      1.0  0.00832  0.76237  0.43067  1.0000
  H   H1739     1.0  0.02527  0.82530  0.42053  1.0000
  S   S578      1.0  0.06631  0.88487  0.37574  1.0000
  H   H1740     1.0  0.20555  0.84504  0.38344  1.0000
  C   C1747     1.0  0.05174  0.78098  0.40203  1.0000
  S   S579      1.0  0.04638  0.55888  0.38023  1.0000
  S   S580      1.0  0.21686  0.94979  0.49715  1.0000
  Fe  Fe290     1.0  0.32960  0.85229  0.55539  1.0000
  C   C1748     1.0  0.17542  0.92258  0.37717  1.0000
  C   C1749     1.0  0.07470  0.61981  0.41119  1.0000
  N   N142      1.0  0.03460  0.70736  0.54620  1.0000
  C   C1750     1.0  0.02131  0.71461  0.55506  1.0000
  C   C1751     1.0  0.04181  0.69236  0.55176  1.0000
  C   C1752     1.0  0.01478  0.70673  0.56982  1.0000
  C   C1753     1.0  0.03562  0.68416  0.56648  1.0000
  C   C1754     1.0  0.99708  0.70728  0.51123  1.0000
  C   C1755     1.0  0.04176  0.71596  0.53109  1.0000
  H   H1741     1.0  0.01578  0.72661  0.55084  1.0000
  C   C1756     1.0  0.00130  0.67149  0.45944  1.0000
  H   H1742     1.0  0.05628  0.80235  0.37575  1.0000
  C   C1757     1.0  0.34864  0.87358  0.56975  1.0000
  C   C1758     1.0  0.00656  0.78900  0.40786  1.0000
  H   H1743     1.0  0.04699  0.70825  0.52269  1.0000
  H   H1744     1.0  0.03307  0.72582  0.52600  1.0000
  H   H1745     1.0  0.05122  0.72066  0.53241  1.0000
  Fe  Fe291     1.0  0.99818  0.79233  0.56777  1.0000
  Fe  Fe292     1.0  0.20375  0.94615  0.52200  1.0000
  N   N143      1.0  0.03383  0.72821  0.40544  1.0000
  S   S581      1.0  0.12867  0.89459  0.38963  1.0000
  S   S582      1.0  0.18158  0.96338  0.52880  1.0000
  C   C1759     1.0  0.09196  0.72459  0.38713  1.0000
  H   H1746     1.0  0.16860  0.94511  0.51561  1.0000
  H   H1747     1.0  0.00650  0.79191  0.52297  1.0000
  S   S583      1.0  0.18922  0.98244  0.55853  1.0000
  H   H1748     1.0  0.99442  0.81587  0.43710  1.0000
  H   H1749     1.0  0.11143  0.86679  0.40623  1.0000
  S   S584      1.0  0.14858  0.93949  0.54567  1.0000
  S   S585      1.0  0.08481  0.91388  0.38586  1.0000
  C   C1760     1.0  0.03157  0.82196  0.57365  1.0000
  H   H1750     1.0  0.08777  0.68302  0.41036  1.0000
  C   C1761     1.0  0.30221  0.82437  0.45807  1.0000
  H   H1751     1.0  0.09006  0.86551  0.39494  1.0000
  H   H1752     1.0  0.26413  0.84452  0.56974  1.0000
  H   H1753     1.0  0.23824  0.87871  0.57139  1.0000
  H   H1754     1.0  0.07606  0.73245  0.57088  1.0000
  H   H1755     1.0  0.03013  0.84241  0.39437  1.0000
  C   C1762     1.0  0.08391  0.53669  0.39126  1.0000
  H   H1756     1.0  0.30194  0.88154  0.38016  1.0000
  H   H1757     1.0  0.04324  0.86676  0.38353  1.0000
  N   N144      1.0  0.48952  0.85907  0.41791  1.0000
  H   H1758     1.0  0.04363  0.81567  0.57288  1.0000
  H   H1759     1.0  0.12326  0.97064  0.43412  1.0000
  H   H1760     1.0  0.06459  0.71686  0.37728  1.0000
  C   C1763     1.0  0.35679  0.85804  0.57136  1.0000
  C   C1764     1.0  0.09119  0.55967  0.39232  1.0000
  H   H1761     1.0  0.09013  0.56866  0.39839  1.0000
  H   H1762     1.0  0.16330  0.97508  0.49364  1.0000
  H   H1763     1.0  0.00244  0.80767  0.53237  1.0000
  H   H1764     1.0  0.18287  0.96381  0.49484  1.0000
  H   H1765     1.0  0.17798  0.93079  0.38212  1.0000
  H   H1766     1.0  0.02760  0.61313  0.39986  1.0000
  C   C1765     1.0  0.12379  0.94492  0.56995  1.0000
  H   H1767     1.0  0.34003  0.87803  0.56261  1.0000
  H   H1768     1.0  0.03971  0.63602  0.38729  1.0000
  H   H1769     1.0  0.20237  0.88003  0.37547  1.0000
  H   H1770     1.0  0.99318  0.71094  0.45501  1.0000
  H   H1771     1.0  0.44158  0.91893  0.66160  1.0000
  C   C1766     1.0  0.36797  0.85237  0.58058  1.0000
  Fe  Fe293     1.0  0.01209  0.82966  0.64322  1.0000
  S   S586      1.0  0.03305  0.83993  0.63176  1.0000
  S   S587      1.0  0.01762  0.80552  0.65754  1.0000
  Fe  Fe294     1.0  0.01766  0.86210  0.63755  1.0000
  S   S588      1.0  0.02726  0.87437  0.64966  1.0000
  Fe  Fe295     1.0  0.02337  0.84690  0.61051  1.0000
  Fe  Fe296     1.0  0.09817  0.63799  0.76449  1.0000
  H   H1772     1.0  0.30559  0.91667  0.72023  1.0000
  H   H1773     1.0  0.07360  0.49131  0.65777  1.0000
  H   H1774     1.0  0.07700  0.81315  0.63272  1.0000
  C   C1767     1.0  0.12884  0.60446  0.58320  1.0000
  C   C1768     1.0  0.07109  0.61025  0.62002  1.0000
  Fe  Fe297     1.0  0.10621  0.66988  0.75114  1.0000
  S   S589      1.0  0.12953  0.66063  0.73696  1.0000
  S   S590      1.0  0.09741  0.69468  0.75352  1.0000
  C   C1769     1.0  0.49058  0.94580  0.68341  1.0000
  S   S591      1.0  0.12105  0.62597  0.75166  1.0000
  C   C1770     1.0  0.18377  0.88212  0.60592  1.0000
  Fe  Fe298     1.0  0.13164  0.64183  0.75854  1.0000
  C   C1771     1.0  0.43708  0.88929  0.69325  1.0000
  Fe  Fe299     1.0  0.11658  0.64579  0.73149  1.0000
  S   S592      1.0  0.11691  0.64396  0.70737  1.0000
  C   C1772     1.0  0.25856  0.88336  0.68751  1.0000
  S   S593      1.0  0.09296  0.65684  0.74398  1.0000
  Fe  Fe300     1.0  0.10219  0.76579  0.63757  1.0000
  S   S594      1.0  0.12587  0.75327  0.62677  1.0000
  S   S595      1.0  0.08611  0.78066  0.62195  1.0000
  Fe  Fe301     1.0  0.10642  0.75005  0.67037  1.0000
  S   S596      1.0  0.13015  0.73580  0.66225  1.0000
  S   S597      1.0  0.09424  0.75073  0.69507  1.0000
  Fe  Fe302     1.0  0.13406  0.75836  0.64549  1.0000
  S   S598      1.0  0.15668  0.76627  0.64119  1.0000
  Fe  Fe303     1.0  0.11949  0.73230  0.64444  1.0000
  S   S599      1.0  0.11077  0.77277  0.65465  1.0000
  S   S600      1.0  0.09534  0.74466  0.65425  1.0000
  Fe  Fe304     1.0  0.18103  0.83215  0.66201  1.0000
  S   S601      1.0  0.17992  0.85142  0.64083  1.0000
  S   S602      1.0  0.16215  0.81806  0.67151  1.0000
  Fe  Fe305     1.0  0.20957  0.83926  0.66746  1.0000
  S   S603      1.0  0.21109  0.85882  0.64646  1.0000
  S   S604      1.0  0.22737  0.83182  0.68267  1.0000
  Fe  Fe306     1.0  0.18505  0.86571  0.65410  1.0000
  S   S605      1.0  0.17528  0.89152  0.64951  1.0000
  Fe  Fe307     1.0  0.20596  0.84327  0.63450  1.0000
  S   S606      1.0  0.21526  0.84634  0.60877  1.0000
  S   S607      1.0  0.18371  0.84739  0.67624  1.0000
  S   S608      1.0  0.20689  0.82265  0.65470  1.0000
  C   C1773     1.0  0.15094  0.77510  0.69351  1.0000
  Fe  Fe308     1.0  0.09676  0.95672  0.61978  1.0000
  S   S609      1.0  0.09509  0.95492  0.64494  1.0000
  S   S610      1.0  0.11503  0.96897  0.60336  1.0000
  Fe  Fe309     1.0  0.06931  0.94160  0.62598  1.0000
  S   S611      1.0  0.06496  0.93905  0.65173  1.0000
  S   S612      1.0  0.05535  0.93375  0.61387  1.0000
  Fe  Fe310     1.0  0.06939  0.96317  0.64596  1.0000
  C   C1774     1.0  0.33673  0.82777  0.60024  1.0000
  Fe  Fe311     1.0  0.09107  0.93110  0.64823  1.0000
  S   S613      1.0  0.10138  0.90969  0.66431  1.0000
  S   S614      1.0  0.07125  0.96664  0.62050  1.0000
  S   S615      1.0  0.09527  0.93196  0.62288  1.0000
  H   H1775     1.0  0.02016  0.50378  0.66897  1.0000
  C   C1775     1.0  0.39193  0.95643  0.75985  1.0000
  H   H1776     1.0  0.02871  0.78386  0.60189  1.0000
  C   C1776     1.0  0.29058  0.87487  0.67627  1.0000
  C   C1777     1.0  0.11237  0.60903  0.61276  1.0000
  H   H1777     1.0  0.24112  0.86082  0.61314  1.0000
  C   C1778     1.0  0.07906  0.50096  0.65561  1.0000
  H   H1778     1.0  0.06703  0.50696  0.67761  1.0000
  C   C1779     1.0  0.08230  0.52247  0.66426  1.0000
  S   S616      1.0  0.44986  0.96680  0.72699  1.0000
  H   H1779     1.0  0.30315  0.87171  0.67191  1.0000
  C   C1780     1.0  0.09716  0.51690  0.63928  1.0000
  C   C1781     1.0  0.07908  0.93493  0.68867  1.0000
  H   H1780     1.0  0.03948  0.51017  0.71150  1.0000
  C   C1782     1.0  0.42087  0.86994  0.70025  1.0000
  C   C1783     1.0  0.46180  0.93004  0.75885  1.0000
  H   H1781     1.0  0.08382  0.58818  0.61414  1.0000
  C   C1784     1.0  0.07763  0.73450  0.58135  1.0000
  C   C1785     1.0  0.00675  0.79813  0.61078  1.0000
  H   H1782     1.0  0.08369  0.83163  0.59170  1.0000
  C   C1786     1.0  0.26454  0.87113  0.67971  1.0000
  H   H1783     1.0  0.27037  0.90438  0.70457  1.0000
  C   C1787     1.0  0.09011  0.50434  0.64184  1.0000
  H   H1784     1.0  0.18235  0.87042  0.60604  1.0000
  H   H1785     1.0  0.12557  0.73049  0.61005  1.0000
  C   C1788     1.0  0.26321  0.86761  0.60423  1.0000
  C   C1789     1.0  0.08496  0.60727  0.59416  1.0000
  C   C1790     1.0  0.04269  0.61997  0.77314  1.0000
  H   H1786     1.0  0.04154  0.76647  0.63771  1.0000
  H   H1787     1.0  0.29192  0.89331  0.68568  1.0000
  C   C1791     1.0  0.35175  0.88343  0.57726  1.0000
  Fe  Fe312     1.0  0.02066  0.55434  0.74809  1.0000
  H   H1788     1.0  0.42192  0.86872  0.71231  1.0000
  S   S617      1.0  0.03049  0.53301  0.73828  1.0000
  H   H1789     1.0  0.04486  0.53426  0.69694  1.0000
  H   H1790     1.0  0.34850  0.82360  0.59319  1.0000
  N   N145      1.0  0.42638  0.88359  0.68982  1.0000
  S   S618      1.0  0.03097  0.57537  0.74208  1.0000
  S   S619      1.0  0.25213  0.85518  0.76045  1.0000
  Fe  Fe313     1.0  0.40873  0.90486  0.73992  1.0000
  S   S620      1.0  0.38954  0.92101  0.72876  1.0000
  S   S621      1.0  0.43364  0.90437  0.72689  1.0000
  C   C1792     1.0  0.03904  0.72604  0.58677  1.0000
  S   S622      1.0  0.36511  0.90761  0.76021  1.0000
  Fe  Fe314     1.0  0.37774  0.90081  0.73761  1.0000
  S   S623      1.0  0.36439  0.89359  0.72456  1.0000
  Fe  Fe315     1.0  0.37882  0.92630  0.75221  1.0000
  S   S624      1.0  0.39789  0.88408  0.74694  1.0000
  S   S625      1.0  0.03054  0.75029  0.60121  1.0000
  S   S626      1.0  0.99655  0.56785  0.74586  1.0000
  C   C1793     1.0  0.08422  0.60617  0.74529  1.0000
  H   H1791     1.0  0.13601  0.62246  0.61898  1.0000
  H   H1792     1.0  0.25669  0.86502  0.67807  1.0000
  H   H1793     1.0  0.02716  0.54437  0.69024  1.0000
  Fe  Fe316     1.0  0.48198  0.90324  0.65587  1.0000
  C   C1794     1.0  0.24685  0.87054  0.60851  1.0000
  S   S627      1.0  0.39899  0.91185  0.76285  1.0000
  S   S628      1.0  0.46045  0.85487  0.67660  1.0000
  S   S629      1.0  0.47069  0.92683  0.66116  1.0000
  C   C1795     1.0  0.03082  0.49494  0.70350  1.0000
  Fe  Fe317     1.0  0.36727  0.86255  0.65077  1.0000
  S   S630      1.0  0.36178  0.88774  0.63900  1.0000
  S   S631      1.0  0.34904  0.84986  0.66699  1.0000
  Fe  Fe318     1.0  0.40141  0.85819  0.63424  1.0000
  S   S632      1.0  0.39885  0.88284  0.62055  1.0000
  S   S633      1.0  0.42433  0.84099  0.63420  1.0000
  Fe  Fe319     1.0  0.38459  0.88861  0.64320  1.0000
  S   S634      1.0  0.38929  0.90705  0.65198  1.0000
  Fe  Fe320     1.0  0.37637  0.87958  0.61751  1.0000
  S   S635      1.0  0.36576  0.89019  0.59651  1.0000
  S   S636      1.0  0.38868  0.86409  0.65712  1.0000
  S   S637      1.0  0.38039  0.85421  0.62903  1.0000
  Fe  Fe321     1.0  0.09778  0.57842  0.68221  1.0000
  S   S638      1.0  0.09479  0.59730  0.66099  1.0000
  S   S639      1.0  0.10736  0.58000  0.70173  1.0000
  Fe  Fe322     1.0  0.08479  0.55625  0.67203  1.0000
  S   S640      1.0  0.08049  0.57343  0.65013  1.0000
  H   H1794     1.0  0.42166  0.95601  0.73783  1.0000
  Fe  Fe323     1.0  0.10393  0.57791  0.64830  1.0000
  S   S641      1.0  0.12224  0.57791  0.62630  1.0000
  Fe  Fe324     1.0  0.07159  0.59110  0.66495  1.0000
  S   S642      1.0  0.05051  0.61044  0.66182  1.0000
  S   S643      1.0  0.10908  0.55930  0.66916  1.0000
  S   S644      1.0  0.07387  0.57364  0.68720  1.0000
  Fe  Fe325     1.0  0.28375  0.87551  0.73087  1.0000
  S   S645      1.0  0.25968  0.88880  0.73965  1.0000
  S   S646      1.0  0.30202  0.88816  0.71487  1.0000
  S   S647      1.0  0.48804  0.97934  0.70089  1.0000
  Fe  Fe326     1.0  0.25163  0.86916  0.73612  1.0000
  S   S648      1.0  0.23150  0.87484  0.72411  1.0000
  S   S649      1.0  0.27558  0.85706  0.72551  1.0000
  H   H1795     1.0  0.40832  0.87098  0.70063  1.0000
  C   C1796     1.0  0.45163  0.88748  0.60435  1.0000
  H   H1796     1.0  0.12761  0.74786  0.68934  1.0000
  H   H1797     1.0  0.26737  0.90511  0.59230  1.0000
  C   C1797     1.0  0.12158  0.72104  0.60864  1.0000
  C   C1798     1.0  0.12248  0.96238  0.58608  1.0000
  H   H1798     1.0  0.10803  0.68681  0.60301  1.0000
  H   H1799     1.0  0.03135  0.48582  0.71393  1.0000
  C   C1799     1.0  0.11177  0.69637  0.60450  1.0000
  H   H1800     1.0  0.06962  0.82731  0.65390  1.0000
  S   S650      1.0  0.10903  0.65207  0.77312  1.0000
  C   C1800     1.0  0.40008  0.96614  0.76233  1.0000
  H   H1801     1.0  0.41424  0.93732  0.69849  1.0000
  H   H1802     1.0  0.04637  0.63242  0.63142  1.0000
  H   H1803     1.0  0.06126  0.87064  0.62082  1.0000
  H   H1804     1.0  0.06417  0.63411  0.63509  1.0000
  C   C1801     1.0  0.45601  0.85531  0.61173  1.0000
  H   H1805     1.0  0.10614  0.97242  0.66939  1.0000
  C   C1802     1.0  0.13527  0.96766  0.57558  1.0000
  H   H1806     1.0  0.06859  0.64517  0.59527  1.0000
  C   C1803     1.0  0.08061  0.62336  0.58886  1.0000
  C   C1804     1.0  0.06676  0.59261  0.72040  1.0000
  S   S651      1.0  0.09650  0.67009  0.58788  1.0000
  C   C1805     1.0  0.01601  0.52894  0.73187  1.0000
  S   S652      1.0  0.47180  0.89061  0.64473  1.0000
  H   H1807     1.0  0.10598  0.61076  0.62420  1.0000
  C   C1806     1.0  0.33617  0.86053  0.68033  1.0000
  C   C1807     1.0  0.33717  0.87564  0.67968  1.0000
  C   C1808     1.0  0.32681  0.88403  0.69048  1.0000
  C   C1809     1.0  0.31549  0.87724  0.70201  1.0000
  C   C1810     1.0  0.31468  0.86201  0.70283  1.0000
  C   C1811     1.0  0.32485  0.85375  0.69187  1.0000
  H   H1808     1.0  0.34584  0.88094  0.67079  1.0000
  H   H1809     1.0  0.32754  0.89580  0.68978  1.0000
  H   H1810     1.0  0.30637  0.85649  0.71194  1.0000
  H   H1811     1.0  0.32410  0.84200  0.69248  1.0000
  C   C1812     1.0  0.45094  0.85123  0.66424  1.0000
  C   C1813     1.0  0.45084  0.83587  0.66469  1.0000
  C   C1814     1.0  0.44288  0.83276  0.65525  1.0000
  C   C1815     1.0  0.43430  0.84503  0.64593  1.0000
  C   C1816     1.0  0.43417  0.86044  0.64565  1.0000
  C   C1817     1.0  0.44290  0.86351  0.65442  1.0000
  H   H1812     1.0  0.45704  0.82634  0.67227  1.0000
  H   H1813     1.0  0.44303  0.82085  0.65549  1.0000
  H   H1814     1.0  0.42762  0.86998  0.63839  1.0000
  H   H1815     1.0  0.44312  0.87537  0.65385  1.0000
  H   H1816     1.0  0.28467  0.89062  0.76426  1.0000
  C   C1818     1.0  0.47961  0.94111  0.67867  1.0000
  H   H1817     1.0  0.41162  0.96137  0.76483  1.0000
  H   H1818     1.0  0.46749  0.94314  0.68470  1.0000
  C   C1819     1.0  0.07672  0.58198  0.75940  1.0000
  C   C1820     1.0  0.37065  0.89834  0.70428  1.0000
  C   C1821     1.0  0.38097  0.90834  0.69710  1.0000
  C   C1822     1.0  0.38604  0.91171  0.68091  1.0000
  C   C1823     1.0  0.38131  0.90457  0.67193  1.0000
  C   C1824     1.0  0.37082  0.89479  0.67906  1.0000
  C   C1825     1.0  0.36528  0.89190  0.69518  1.0000
  H   H1819     1.0  0.38504  0.91352  0.70391  1.0000
  H   H1820     1.0  0.39396  0.91951  0.67538  1.0000
  H   H1821     1.0  0.36698  0.88947  0.67211  1.0000
  H   H1822     1.0  0.35700  0.88453  0.70054  1.0000
  C   C1826     1.0  0.43823  0.92189  0.72615  1.0000
  C   C1827     1.0  0.45338  0.92436  0.71935  1.0000
  C   C1828     1.0  0.45713  0.93813  0.71958  1.0000
  C   C1829     1.0  0.44568  0.94951  0.72634  1.0000
  C   C1830     1.0  0.43054  0.94713  0.73282  1.0000
  C   C1831     1.0  0.42682  0.93334  0.73279  1.0000
  H   H1823     1.0  0.46223  0.91559  0.71403  1.0000
  H   H1824     1.0  0.46880  0.93997  0.71434  1.0000
  H   H1825     1.0  0.06600  0.57212  0.74755  1.0000
  H   H1826     1.0  0.41503  0.93172  0.73773  1.0000
  H   H1827     1.0  0.99933  0.49894  0.73566  1.0000
  H   H1828     1.0  0.44676  0.96739  0.68444  1.0000
  C   C1832     1.0  0.02521  0.62394  0.68157  1.0000
  C   C1833     1.0  0.03575  0.61009  0.67885  1.0000
  C   C1834     1.0  0.03454  0.59615  0.68983  1.0000
  C   C1835     1.0  0.02330  0.59618  0.70381  1.0000
  C   C1836     1.0  0.16781  0.90541  0.59215  1.0000
  H   H1829     1.0  0.02599  0.63472  0.67305  1.0000
  H   H1830     1.0  0.04208  0.58531  0.68746  1.0000
  H   H1831     1.0  0.02240  0.58535  0.71218  1.0000
  C   C1837     1.0  0.03610  0.73050  0.60082  1.0000
  H   H1832     1.0  0.04904  0.62808  0.76377  1.0000
  H   H1833     1.0  0.07514  0.74984  0.62725  1.0000
  C   C1838     1.0  0.05781  0.63577  0.62583  1.0000
  H   H1834     1.0  0.23842  0.90965  0.59960  1.0000
  Fe  Fe327     1.0  0.00625  0.58875  0.74221  1.0000
  H   H1835     1.0  0.33201  0.81763  0.60792  1.0000
  S   S653      1.0  0.00975  0.87030  0.61499  1.0000
  C   C1839     1.0  0.11327  0.69663  0.61925  1.0000
  C   C1840     1.0  0.01300  0.51399  0.73680  1.0000
  C   C1841     1.0  0.42129  0.89010  0.67630  1.0000
  C   C1842     1.0  0.07531  0.50987  0.66685  1.0000
  C   C1843     1.0  0.06965  0.83372  0.64203  1.0000
  C   C1844     1.0  0.07163  0.63264  0.59940  1.0000
  C   C1845     1.0  0.08016  0.60064  0.60983  1.0000
  C   C1846     1.0  0.15953  0.67357  0.77405  1.0000
  C   C1847     1.0  0.43544  0.96484  0.69070  1.0000
  H   H1836     1.0  0.13208  0.90199  0.62636  1.0000
  C   C1848     1.0  0.14206  0.90303  0.61666  1.0000
  C   C1849     1.0  0.99803  0.79270  0.63862  1.0000
  S   S654      1.0  0.28829  0.82464  0.58561  1.0000
  H   H1837     1.0  0.19430  0.63570  0.76400  1.0000
  S   S655      1.0  0.36626  0.95078  0.75385  1.0000
  H   H1838     1.0  0.44960  0.93065  0.75828  1.0000
  H   H1839     1.0  0.24600  0.88676  0.69170  1.0000
  C   C1850     1.0  0.33218  0.92441  0.73499  1.0000
  C   C1851     1.0  0.08165  0.74822  0.58104  1.0000
  Fe  Fe328     1.0  0.07345  0.67783  0.58080  1.0000
  H   H1840     1.0  0.05406  0.94188  0.69629  1.0000
  H   H1841     1.0  0.37941  0.85767  0.59550  1.0000
  C   C1852     1.0  0.01321  0.61014  0.70680  1.0000
  C   C1853     1.0  0.15370  0.91637  0.59129  1.0000
  H   H1842     1.0  0.14243  0.59479  0.62858  1.0000
  N   N146      1.0  0.02250  0.77804  0.62665  1.0000
  H   H1843     1.0  0.48870  0.85066  0.61649  1.0000
  H   H1844     1.0  0.45734  0.84276  0.61487  1.0000
  H   H1845     1.0  0.45529  0.90737  0.75003  1.0000
  H   H1846     1.0  0.17743  0.75888  0.66626  1.0000
  C   C1854     1.0  0.06896  0.84973  0.61173  1.0000
  S   S656      1.0  0.48334  0.97555  0.73840  1.0000
  H   H1847     1.0  0.07339  0.59844  0.70921  1.0000
  N   N147      1.0  0.41057  0.97156  0.70790  1.0000
  H   H1848     1.0  0.18190  0.75329  0.68532  1.0000
  H   H1849     1.0  0.28550  0.85720  0.66828  1.0000
  H   H1850     1.0  0.25646  0.82122  0.76346  1.0000
  H   H1851     1.0  0.03373  0.75417  0.63071  1.0000
  C   C1855     1.0  0.06515  0.94544  0.69294  1.0000
  Fe  Fe329     1.0  0.01492  0.76171  0.58438  1.0000
  H   H1852     1.0  0.05547  0.64838  0.62024  1.0000
  H   H1853     1.0  0.21644  0.88924  0.62272  1.0000
  H   H1854     1.0  0.07994  0.97729  0.68668  1.0000
  C   C1856     1.0  0.46726  0.90495  0.75137  1.0000
  H   H1855     1.0  0.11985  0.68788  0.67046  1.0000
  C   C1857     1.0  0.22940  0.84473  0.69272  1.0000
  C   C1858     1.0  0.24125  0.84004  0.70114  1.0000
  C   C1859     1.0  0.24225  0.84933  0.71053  1.0000
  C   C1860     1.0  0.23133  0.86336  0.71163  1.0000
  C   C1861     1.0  0.21980  0.86830  0.70281  1.0000
  C   C1862     1.0  0.21888  0.85906  0.69332  1.0000
  H   H1856     1.0  0.24945  0.82897  0.70069  1.0000
  H   H1857     1.0  0.25121  0.84542  0.71723  1.0000
  H   H1858     1.0  0.21139  0.87921  0.70349  1.0000
  H   H1859     1.0  0.20978  0.86284  0.68677  1.0000
  C   C1863     1.0  0.23537  0.83931  0.60236  1.0000
  C   C1864     1.0  0.24453  0.82936  0.61264  1.0000
  C   C1865     1.0  0.26077  0.82465  0.60733  1.0000
  C   C1866     1.0  0.26791  0.83023  0.59188  1.0000
  C   C1867     1.0  0.03804  0.53533  0.68821  1.0000
  C   C1868     1.0  0.24248  0.84465  0.58688  1.0000
  H   H1860     1.0  0.23908  0.82522  0.62462  1.0000
  H   H1861     1.0  0.26783  0.81680  0.61523  1.0000
  H   H1862     1.0  0.45107  0.90665  0.68604  1.0000
  Fe  Fe330     1.0  0.02406  0.57426  0.76768  1.0000
  C   C1869     1.0  0.15476  0.89658  0.65388  1.0000
  C   C1870     1.0  0.14605  0.88534  0.66223  1.0000
  C   C1871     1.0  0.12964  0.88951  0.66552  1.0000
  C   C1872     1.0  0.12190  0.90480  0.66013  1.0000
  C   C1873     1.0  0.13060  0.91601  0.65158  1.0000
  C   C1874     1.0  0.14703  0.91192  0.64860  1.0000
  H   H1863     1.0  0.15195  0.87346  0.66627  1.0000
  H   H1864     1.0  0.12292  0.88081  0.67209  1.0000
  H   H1865     1.0  0.12470  0.92781  0.64731  1.0000
  H   H1866     1.0  0.15376  0.92060  0.64201  1.0000
  C   C1875     1.0  0.15710  0.78280  0.64734  1.0000
  C   C1876     1.0  0.17116  0.78794  0.64334  1.0000
  C   C1877     1.0  0.17258  0.79954  0.64988  1.0000
  C   C1878     1.0  0.15995  0.80600  0.66058  1.0000
  C   C1879     1.0  0.14566  0.80146  0.66394  1.0000
  C   C1880     1.0  0.14421  0.78994  0.65735  1.0000
  H   H1867     1.0  0.18117  0.78256  0.63553  1.0000
  H   H1868     1.0  0.18365  0.80299  0.64713  1.0000
  H   H1869     1.0  0.13579  0.80652  0.67210  1.0000
  H   H1870     1.0  0.13333  0.78614  0.66055  1.0000
  C   C1881     1.0  0.28068  0.86678  0.67420  1.0000
  C   C1882     1.0  0.09789  0.70989  0.73687  1.0000
  C   C1883     1.0  0.10774  0.70804  0.72243  1.0000
  C   C1884     1.0  0.10719  0.72062  0.70939  1.0000
  C   C1885     1.0  0.09666  0.73487  0.71087  1.0000
  C   C1886     1.0  0.08721  0.73667  0.72537  1.0000
  C   C1887     1.0  0.08787  0.72430  0.73829  1.0000
  H   H1871     1.0  0.11567  0.69697  0.72132  1.0000
  H   H1872     1.0  0.11464  0.71920  0.69822  1.0000
  H   H1873     1.0  0.07913  0.74766  0.72661  1.0000
  H   H1874     1.0  0.08034  0.72584  0.74941  1.0000
  C   C1888     1.0  0.11377  0.62628  0.70610  1.0000
  C   C1889     1.0  0.11828  0.61242  0.71654  1.0000
  C   C1890     1.0  0.11622  0.59833  0.71505  1.0000
  C   C1891     1.0  0.10941  0.59801  0.70327  1.0000
  C   C1892     1.0  0.10459  0.61192  0.69298  1.0000
  C   C1893     1.0  0.10696  0.62599  0.69427  1.0000
  H   H1875     1.0  0.12377  0.61245  0.72552  1.0000
  H   H1876     1.0  0.11998  0.58761  0.72305  1.0000
  H   H1877     1.0  0.09924  0.61182  0.68392  1.0000
  H   H1878     1.0  0.10342  0.63669  0.68616  1.0000
  H   H1879     1.0  0.06163  0.85629  0.64794  1.0000
  H   H1880     1.0  0.43645  0.85879  0.60133  1.0000
  H   H1881     1.0  0.31997  0.84639  0.74627  1.0000
  H   H1882     1.0  0.13774  0.57715  0.67768  1.0000
  C   C1894     1.0  0.11196  0.62166  0.59980  1.0000
  S   S657      1.0  0.99712  0.85131  0.65088  1.0000
  C   C1895     1.0  0.06521  0.84996  0.63870  1.0000
  H   H1883     1.0  0.32007  0.94771  0.76046  1.0000
  H   H1884     1.0  0.10579  0.51955  0.62869  1.0000
  H   H1885     1.0  0.34552  0.89549  0.57587  1.0000
  C   C1896     1.0  0.09313  0.52607  0.65037  1.0000
  C   C1897     1.0  0.26168  0.89532  0.59719  1.0000
  H   H1886     1.0  0.08929  0.61582  0.74463  1.0000
  C   C1898     1.0  0.12945  0.59202  0.59605  1.0000
  H   H1887     1.0  0.11288  0.96043  0.68661  1.0000
  C   C1899     1.0  0.07713  0.82540  0.60266  1.0000
  C   C1900     1.0  0.11814  0.70898  0.62138  1.0000
  H   H1888     1.0  0.13629  0.58061  0.59450  1.0000
  C   C1901     1.0  0.03582  0.89026  0.63914  1.0000
  C   C1902     1.0  0.03517  0.89689  0.62361  1.0000
  C   C1903     1.0  0.04132  0.91019  0.61588  1.0000
  C   C1904     1.0  0.04834  0.91672  0.62357  1.0000
  C   C1905     1.0  0.04932  0.90981  0.63896  1.0000
  C   C1906     1.0  0.04297  0.89669  0.64675  1.0000
  H   H1889     1.0  0.02970  0.89197  0.61765  1.0000
  H   H1890     1.0  0.04062  0.91547  0.60393  1.0000
  H   H1891     1.0  0.05479  0.91467  0.64495  1.0000
  H   H1892     1.0  0.04354  0.89157  0.65876  1.0000
  C   C1907     1.0  0.03635  0.79740  0.64787  1.0000
  C   C1908     1.0  0.04734  0.78726  0.65616  1.0000
  C   C1909     1.0  0.06269  0.78188  0.64826  1.0000
  C   C1910     1.0  0.06686  0.78634  0.63207  1.0000
  C   C1911     1.0  0.05568  0.79591  0.62378  1.0000
  C   C1912     1.0  0.04052  0.80160  0.63167  1.0000
  H   H1893     1.0  0.04417  0.78410  0.66870  1.0000
  H   H1894     1.0  0.07133  0.77462  0.65476  1.0000
  H   H1895     1.0  0.05878  0.79920  0.61125  1.0000
  H   H1896     1.0  0.03206  0.80929  0.62516  1.0000
  S   S658      1.0  0.00007  0.58934  0.76739  1.0000
  H   H1897     1.0  0.13980  0.97641  0.57766  1.0000
  C   C1913     1.0  0.01395  0.62396  0.69554  1.0000
  H   H1898     1.0  0.15734  0.88299  0.62742  1.0000
  H   H1899     1.0  0.01946  0.50510  0.74463  1.0000
  H   H1900     1.0  0.06748  0.60506  0.63220  1.0000
  H   H1901     1.0  0.08444  0.81351  0.60569  1.0000
  Fe  Fe331     1.0  0.47723  0.87049  0.66424  1.0000
  N   N148      1.0  0.33784  0.83810  0.60934  1.0000
  C   C1914     1.0  0.33233  0.85385  0.60523  1.0000
  C   C1915     1.0  0.34508  0.83189  0.62157  1.0000
  C   C1916     1.0  0.33403  0.86381  0.61345  1.0000
  C   C1917     1.0  0.34678  0.84149  0.63017  1.0000
  C   C1918     1.0  0.34130  0.85756  0.62600  1.0000
  H   H1902     1.0  0.12301  0.73003  0.58407  1.0000
  H   H1903     1.0  0.47329  0.88289  0.74460  1.0000
  H   H1904     1.0  0.34976  0.81945  0.62461  1.0000
  H   H1905     1.0  0.33036  0.87635  0.60971  1.0000
  H   H1906     1.0  0.35263  0.83658  0.63981  1.0000
  H   H1907     1.0  0.34301  0.86518  0.63227  1.0000
  H   H1908     1.0  0.12981  0.92368  0.60318  1.0000
  C   C1919     1.0  0.99711  0.90489  0.64767  1.0000
  C   C1920     1.0  0.30633  0.93536  0.74710  1.0000
  N   N149      1.0  0.03419  0.52054  0.68920  1.0000
  C   C1921     1.0  0.03530  0.50878  0.70210  1.0000
  C   C1922     1.0  0.02885  0.51884  0.67739  1.0000
  H   H1909     1.0  0.11062  0.68724  0.62902  1.0000
  H   H1910     1.0  0.42230  0.90815  0.65539  1.0000
  H   H1911     1.0  0.07322  0.71239  0.59537  1.0000
  C   C1923     1.0  0.36273  0.87770  0.58670  1.0000
  C   C1924     1.0  0.04348  0.71025  0.58632  1.0000
  H   H1912     1.0  0.11691  0.95286  0.66936  1.0000
  H   H1913     1.0  0.33436  0.91204  0.71737  1.0000
  S   S659      1.0  0.00350  0.83487  0.62145  1.0000
  S   S660      1.0  0.05485  0.98084  0.65999  1.0000
  C   C1925     1.0  0.25875  0.84031  0.58169  1.0000
  H   H1914     1.0  0.08750  0.59470  0.76841  1.0000
  C   C1926     1.0  0.13411  0.75556  0.69053  1.0000
  C   C1927     1.0  0.04156  0.70327  0.61406  1.0000
  C   C1928     1.0  0.07604  0.72322  0.59511  1.0000
  N   N150      1.0  0.07264  0.59312  0.73351  1.0000
  H   H1915     1.0  0.17781  0.90644  0.58247  1.0000
  H   H1916     1.0  0.41314  0.88531  0.67334  1.0000
  C   C1929     1.0  0.11528  0.70840  0.59174  1.0000
  H   H1917     1.0  0.10626  0.94755  0.59091  1.0000
  C   C1930     1.0  0.43164  0.95128  0.69018  1.0000
  C   C1931     1.0  0.02441  0.50510  0.67834  1.0000
  H   H1918     1.0  0.05413  0.59835  0.72179  1.0000
  H   H1919     1.0  0.05471  0.96905  0.69545  1.0000
  C   C1932     1.0  0.07378  0.82579  0.63000  1.0000
  H   H1920     1.0  0.44147  0.88388  0.70376  1.0000
  N   N151      1.0  0.33861  0.85382  0.72813  1.0000
  C   C1933     1.0  0.35027  0.85022  0.71574  1.0000
  C   C1934     1.0  0.32905  0.84372  0.73630  1.0000
  C   C1935     1.0  0.35231  0.83642  0.71098  1.0000
  C   C1936     1.0  0.33071  0.82985  0.73184  1.0000
  C   C1937     1.0  0.34240  0.82623  0.71906  1.0000
  H   H1921     1.0  0.02798  0.52816  0.66716  1.0000
  H   H1922     1.0  0.35791  0.85814  0.70929  1.0000
  H   H1923     1.0  0.46582  0.94000  0.75002  1.0000
  N   N152      1.0  0.07350  0.83383  0.61506  1.0000
  H   H1924     1.0  0.32283  0.82207  0.73818  1.0000
  H   H1925     1.0  0.34367  0.81564  0.71529  1.0000
  H   H1926     1.0  0.32713  0.85885  0.59518  1.0000
  C   C1938     1.0  0.13863  0.61386  0.65619  1.0000
  H   H1927     1.0  0.09864  0.53572  0.64831  1.0000
  H   H1928     1.0  0.17864  0.77348  0.67498  1.0000
  H   H1929     1.0  0.25109  0.90151  0.70719  1.0000
  H   H1930     1.0  0.06817  0.85606  0.59998  1.0000
  H   H1931     1.0  0.48676  0.95167  0.69288  1.0000
  C   C1939     1.0  0.37081  0.86213  0.58838  1.0000
  H   H1932     1.0  0.07755  0.71681  0.61897  1.0000
  H   H1933     1.0  0.15267  0.62587  0.62349  1.0000
  N   N153      1.0  0.46512  0.86224  0.61606  1.0000
  H   H1934     1.0  0.04261  0.69448  0.62460  1.0000
  N   N154      1.0  0.06703  0.62603  0.61476  1.0000
  C   C1940     1.0  0.00168  0.51044  0.73157  1.0000
  H   H1935     1.0  0.12919  0.78595  0.70699  1.0000
  H   H1936     1.0  0.11413  0.76820  0.70436  1.0000
  S   S661      1.0  0.15230  0.63325  0.77005  1.0000
  H   H1937     1.0  0.15562  0.74574  0.67627  1.0000
  N   N155      1.0  0.32218  0.93272  0.74548  1.0000
  C   C1941     1.0  0.14079  0.91518  0.60366  1.0000
  H   H1938     1.0  0.32545  0.87112  0.74127  1.0000
  C   C1942     1.0  0.15484  0.66281  0.76897  1.0000
  C   C1943     1.0  0.44259  0.90217  0.68324  1.0000
  H   H1939     1.0  0.15734  0.78307  0.69442  1.0000
  H   H1940     1.0  0.00671  0.92344  0.63095  1.0000
  C   C1944     1.0  0.32853  0.93794  0.75567  1.0000
  H   H1941     1.0  0.38871  0.97826  0.72349  1.0000
  C   C1945     1.0  0.15636  0.89230  0.61718  1.0000
  H   H1942     1.0  0.01357  0.77470  0.65112  1.0000
  H   H1943     1.0  0.27001  0.85571  0.60507  1.0000
  C   C1946     1.0  0.43725  0.90905  0.66955  1.0000
  H   H1944     1.0  0.34653  0.86796  0.73779  1.0000
  C   C1947     1.0  0.01156  0.78097  0.63971  1.0000
  H   H1945     1.0  0.00511  0.80491  0.59941  1.0000
  C   C1948     1.0  0.40668  0.95835  0.70738  1.0000
  C   C1949     1.0  0.07982  0.96530  0.68738  1.0000
  H   H1946     1.0  0.13802  0.62538  0.65766  1.0000
  H   H1947     1.0  0.32889  0.83382  0.59201  1.0000
  H   H1948     1.0  0.21707  0.87855  0.60863  1.0000
  S   S662      1.0  0.05125  0.67914  0.59898  1.0000
  H   H1949     1.0  0.43249  0.88766  0.59474  1.0000
  N   N156      1.0  0.13973  0.61146  0.64185  1.0000
  S   S663      1.0  0.01618  0.55175  0.77383  1.0000
  S   S664      1.0  0.07752  0.53321  0.67875  1.0000
  H   H1950     1.0  0.00903  0.52145  0.76698  1.0000
  H   H1951     1.0  0.00604  0.63475  0.69776  1.0000
  N   N157      1.0  0.26840  0.89083  0.69001  1.0000
  C   C1950     1.0  0.04468  0.69883  0.59993  1.0000
  C   C1951     1.0  0.32637  0.91866  0.72565  1.0000
  C   C1952     1.0  0.12020  0.72071  0.59389  1.0000
  C   C1953     1.0  0.12104  0.59416  0.61078  1.0000
  H   H1952     1.0  0.06830  0.58037  0.71957  1.0000
  H   H1953     1.0  0.34475  0.92205  0.73390  1.0000
  H   H1954     1.0  0.25904  0.91477  0.69000  1.0000
  H   H1955     1.0  0.09934  0.67399  0.71114  1.0000
  S   S665      1.0  0.99971  0.61043  0.72459  1.0000
  C   C1954     1.0  0.99564  0.80130  0.62405  1.0000
  N   N158      1.0  0.16900  0.89361  0.60504  1.0000
  C   C1955     1.0  0.48442  0.93336  0.66647  1.0000
  H   H1956     1.0  0.08477  0.62860  0.57677  1.0000
  C   C1956     1.0  0.06552  0.96065  0.69254  1.0000
  C   C1957     1.0  0.07855  0.72578  0.60841  1.0000
  H   H1957     1.0  0.01031  0.55182  0.71751  1.0000
  C   C1958     1.0  0.22101  0.88824  0.61043  1.0000
  C   C1959     1.0  0.09320  0.93994  0.68364  1.0000
  H   H1958     1.0  0.04590  0.76685  0.61740  1.0000
  C   C1960     1.0  0.28418  0.88702  0.68416  1.0000
  H   H1959     1.0  0.42798  0.85927  0.69611  1.0000
  H   H1960     1.0  0.47802  0.85857  0.63331  1.0000
  H   H1961     1.0  0.36121  0.83392  0.70079  1.0000
  N   N159      1.0  0.09335  0.95509  0.68264  1.0000
  H   H1962     1.0  0.11002  0.67198  0.67973  1.0000
  H   H1963     1.0  0.39720  0.94423  0.76052  1.0000
  H   H1964     1.0  0.14052  0.57284  0.65135  1.0000
  H   H1965     1.0  0.30205  0.90632  0.76575  1.0000
  H   H1966     1.0  0.03515  0.72258  0.62537  1.0000
  C   C1961     1.0  0.08412  0.75041  0.59456  1.0000
  H   H1967     1.0  0.18740  0.88147  0.61669  1.0000
  N   N160      1.0  0.23814  0.88547  0.60652  1.0000
  C   C1962     1.0  0.12655  0.76697  0.69908  1.0000
  C   C1963     1.0  0.26190  0.90354  0.69831  1.0000
  S   S666      1.0  0.11955  0.70917  0.64011  1.0000
  H   H1968     1.0  0.10521  0.63313  0.60120  1.0000
  H   H1969     1.0  0.45006  0.90005  0.60153  1.0000
  S   S667      1.0  0.28725  0.86202  0.75436  1.0000
  C   C1964     1.0  0.42654  0.90299  0.66602  1.0000
  N   N161      1.0  0.08275  0.73916  0.60794  1.0000
  C   C1965     1.0  0.41716  0.94800  0.69854  1.0000
  H   H1970     1.0  0.13292  0.63552  0.63132  1.0000
  H   H1971     1.0  0.13733  0.60343  0.68058  1.0000
  H   H1972     1.0  0.15277  0.92573  0.58109  1.0000
  H   H1973     1.0  0.09587  0.74695  0.61890  1.0000
  S   S668      1.0  0.28953  0.81994  0.75717  1.0000
  N   N162      1.0  0.47239  0.91534  0.75589  1.0000
  C   C1966     1.0  0.48750  0.91220  0.75754  1.0000
  C   C1967     1.0  0.13500  0.77684  0.70060  1.0000
  C   C1968     1.0  0.47713  0.85267  0.62464  1.0000
  H   H1974     1.0  0.18146  0.83173  0.72154  1.0000
  H   H1975     1.0  0.12338  0.67577  0.68872  1.0000
  Fe  Fe332     1.0  0.27690  0.84465  0.75003  1.0000
  H   H1976     1.0  0.29836  0.94147  0.75579  1.0000
  C   C1969     1.0  0.13862  0.58671  0.66756  1.0000
  H   H1977     1.0  0.23538  0.85225  0.57890  1.0000
  C   C1970     1.0  0.14997  0.75432  0.68335  1.0000
  C   C1971     1.0  0.02531  0.49314  0.69154  1.0000
  N   N163      1.0  0.15815  0.76408  0.68484  1.0000
  C   C1972     1.0  0.11642  0.95134  0.58305  1.0000
  H   H1978     1.0  0.19341  0.88505  0.59587  1.0000
  C   C1973     1.0  0.17488  0.76230  0.67756  1.0000
  H   H1979     1.0  0.28753  0.93150  0.73962  1.0000
  C   C1974     1.0  0.99894  0.91554  0.63346  1.0000
  H   H1980     1.0  0.06720  0.71801  0.71316  1.0000
  H   H1981     1.0  0.07894  0.92307  0.68882  1.0000
  C   C1975     1.0  0.37708  0.96260  0.75647  1.0000
  H   H1982     1.0  0.14979  0.66656  0.75884  1.0000
  H   H1983     1.0  0.07961  0.61466  0.72241  1.0000
  C   C1976     1.0  0.03748  0.71914  0.61447  1.0000
  Fe  Fe333     1.0  0.47543  0.96595  0.72279  1.0000
  C   C1977     1.0  0.14013  0.58430  0.65285  1.0000
  H   H1984     1.0  0.49161  0.92048  0.76102  1.0000
  C   C1978     1.0  0.08328  0.59429  0.75863  1.0000
  C   C1979     1.0  0.14096  0.59683  0.64002  1.0000
  C   C1980     1.0  0.00784  0.54029  0.72148  1.0000
  H   H1985     1.0  0.44001  0.94323  0.68349  1.0000
  H   H1986     1.0  0.08738  0.76104  0.59426  1.0000
  H   H1987     1.0  0.04539  0.53924  0.67661  1.0000
  H   H1988     1.0  0.10393  0.93174  0.68006  1.0000
  C   C1981     1.0  0.39364  0.98210  0.76087  1.0000
  C   C1982     1.0  0.02016  0.78630  0.61228  1.0000
  C   C1983     1.0  0.07871  0.60545  0.73280  1.0000
  H   H1989     1.0  0.37434  0.84036  0.58181  1.0000
  S   S669      1.0  0.09630  0.49228  0.62829  1.0000
  N   N164      1.0  0.20304  0.83375  0.72452  1.0000
  C   C1984     1.0  0.20089  0.84480  0.73276  1.0000
  C   C1985     1.0  0.21487  0.82074  0.72590  1.0000
  C   C1986     1.0  0.21093  0.84315  0.74245  1.0000
  C   C1987     1.0  0.22508  0.81867  0.73556  1.0000
  C   C1988     1.0  0.22310  0.82999  0.74384  1.0000
  C   C1989     1.0  0.19228  0.83569  0.71454  1.0000
  H   H1990     1.0  0.19166  0.85523  0.73150  1.0000
  H   H1991     1.0  0.21677  0.81214  0.71911  1.0000
  H   H1992     1.0  0.20962  0.85229  0.74841  1.0000
  H   H1993     1.0  0.23471  0.80855  0.73630  1.0000
  H   H1994     1.0  0.23119  0.82876  0.75103  1.0000
  C   C1990     1.0  0.30011  0.92971  0.73800  1.0000
  C   C1991     1.0  0.14040  0.62446  0.62826  1.0000
  H   H1995     1.0  0.19777  0.82894  0.70530  1.0000
  H   H1996     1.0  0.07868  0.72805  0.68551  1.0000
  C   C1992     1.0  0.46334  0.87808  0.61211  1.0000
  C   C1993     1.0  0.03663  0.76575  0.62821  1.0000
  H   H1997     1.0  0.47420  0.84130  0.63126  1.0000
  C   C1994     1.0  0.31023  0.92130  0.72722  1.0000
  H   H1998     1.0  0.21577  0.89904  0.60279  1.0000
  C   C1995     1.0  0.27064  0.88012  0.59845  1.0000
  Fe  Fe334     1.0  0.38622  0.89257  0.76892  1.0000
  H   H1999     1.0  0.47091  0.88354  0.61508  1.0000
  H   H2000     1.0  0.18912  0.84808  0.70848  1.0000
  H   H2001     1.0  0.07759  0.69077  0.72605  1.0000
  C   C1996     1.0  0.06493  0.85804  0.62345  1.0000
  H   H2002     1.0  0.28328  0.87809  0.59457  1.0000
  C   C1997     1.0  0.07133  0.58162  0.74671  1.0000
  C   C1998     1.0  0.24533  0.89781  0.60125  1.0000
  H   H2003     1.0  0.02921  0.48474  0.61448  1.0000
  Fe  Fe335     1.0  0.26253  0.87371  0.76297  1.0000
  C   C1999     1.0  0.13820  0.60151  0.66922  1.0000
  N   N165      1.0  0.10114  0.69145  0.69025  1.0000
  C   C2000     1.0  0.09530  0.70633  0.68298  1.0000
  C   C2001     1.0  0.09468  0.68576  0.70542  1.0000
  C   C2002     1.0  0.08289  0.71604  0.69106  1.0000
  C   C2003     1.0  0.08225  0.69513  0.71384  1.0000
  C   C2004     1.0  0.07639  0.71039  0.70660  1.0000
  C   C2005     1.0  0.11422  0.68133  0.68182  1.0000
  H   H2004     1.0  0.10041  0.71083  0.67096  1.0000
  H   H2005     1.0  0.00349  0.90444  0.65620  1.0000
  S   S670      1.0  0.48532  0.88375  0.67650  1.0000
  C   C2006     1.0  0.10808  0.96043  0.67676  1.0000
  S   S671      1.0  0.03844  0.84054  0.58849  1.0000
  H   H2006     1.0  0.09248  0.60004  0.58623  1.0000
  H   H2007     1.0  0.06606  0.82435  0.60059  1.0000
  C   C2007     1.0  0.44415  0.86435  0.60400  1.0000
  H   H2008     1.0  0.08792  0.73065  0.63052  1.0000
  C   C2008     1.0  0.33662  0.86847  0.73271  1.0000
  H   H2009     1.0  0.46154  0.93142  0.77055  1.0000
  C   C2009     1.0  0.99697  0.53650  0.71572  1.0000
  H   H2010     1.0  0.33625  0.87837  0.72247  1.0000
  C   C2010     1.0  0.08545  0.74175  0.62189  1.0000
  C   C2011     1.0  0.44187  0.88054  0.60043  1.0000
  H   H2011     1.0  0.39557  0.95556  0.71409  1.0000
  H   H2012     1.0  0.03624  0.61492  0.76782  1.0000
  C   C2012     1.0  0.12001  0.61924  0.58495  1.0000
  H   H2013     1.0  0.33107  0.92817  0.76561  1.0000
  H   H2014     1.0  0.33945  0.94203  0.74930  1.0000
  H   H2015     1.0  0.02594  0.49206  0.59518  1.0000
  H   H2016     1.0  0.15797  0.68562  0.76784  1.0000
  H   H2017     1.0  0.00631  0.85311  0.58663  1.0000
  C   C2013     1.0  0.02203  0.69143  0.57556  1.0000
  C   C2014     1.0  0.01054  0.84304  0.58144  1.0000
  C   C2015     1.0  0.02616  0.83499  0.58035  1.0000
  C   C2016     1.0  0.28205  0.89581  0.77413  1.0000
  C   C2017     1.0  0.42472  0.97489  0.69969  1.0000
  H   H2018     1.0  0.16342  0.98051  0.58483  1.0000
  H   H2019     1.0  0.19508  0.66345  0.76006  1.0000
  C   C2018     1.0  0.39981  0.98215  0.71752  1.0000
  S   S672      1.0  0.00359  0.74755  0.57626  1.0000
  C   C2019     1.0  0.29179  0.90493  0.77489  1.0000
  H   H2020     1.0  0.01535  0.50061  0.77331  1.0000
  H   H2021     1.0  0.07552  0.57289  0.76989  1.0000
  H   H2022     1.0  0.01745  0.68536  0.58721  1.0000
  H   H2023     1.0  0.99596  0.48969  0.67089  1.0000
  C   C2020     1.0  0.37042  0.97845  0.75561  1.0000
  C   C2021     1.0  0.99380  0.52158  0.72084  1.0000
  C   C2022     1.0  0.26131  0.81237  0.77246  1.0000
  C   C2023     1.0  0.27736  0.80912  0.77191  1.0000
  C   C2024     1.0  0.20116  0.65455  0.76826  1.0000
  C   C2025     1.0  0.47737  0.89100  0.74835  1.0000
  C   C2026     1.0  0.20073  0.63897  0.77049  1.0000
  H   H2024     1.0  0.00439  0.71259  0.57691  1.0000
  H   H2025     1.0  0.03821  0.73479  0.57617  1.0000
  Fe  Fe336     1.0  0.99276  0.56693  0.77114  1.0000
  H   H2026     1.0  0.99309  0.92347  0.61112  1.0000
  C   C2027     1.0  0.00036  0.83817  0.57579  1.0000
  H   H2027     1.0  0.40539  0.98286  0.72654  1.0000
  H   H2028     1.0  0.04597  0.70695  0.57537  1.0000
  H   H2029     1.0  0.35353  0.89583  0.79329  1.0000
  Fe  Fe337     1.0  0.02277  0.62647  0.85446  1.0000
  S   S673      1.0  0.03598  0.60166  0.85993  1.0000
  S   S674      1.0  0.28078  0.95313  0.81725  1.0000
  C   C2028     1.0  0.17889  0.48969  0.92937  1.0000
  H   H2030     1.0  0.05153  0.61038  0.77835  1.0000
  Fe  Fe338     1.0  0.02489  0.60332  0.88467  1.0000
  S   S675      1.0  0.03800  0.59271  0.90402  1.0000
  H   H2031     1.0  0.38088  0.79670  0.92183  1.0000
  C   C2029     1.0  0.25157  0.80395  0.78450  1.0000
  Fe  Fe339     1.0  0.10505  0.60292  0.94019  1.0000
  S   S676      1.0  0.11834  0.61201  0.95166  1.0000
  S   S677      1.0  0.11412  0.58338  0.92755  1.0000
  Fe  Fe340     1.0  0.07579  0.62813  0.94512  1.0000
  S   S678      1.0  0.08612  0.63979  0.95724  1.0000
  S   S679      1.0  0.05288  0.63699  0.93736  1.0000
  Fe  Fe341     1.0  0.10790  0.63553  0.93866  1.0000
  S   S680      1.0  0.12212  0.65362  0.92602  1.0000
  H   H2032     1.0  0.11555  0.69616  0.78189  1.0000
  C   C2030     1.0  0.14416  0.48622  0.96117  1.0000
  S   S681      1.0  0.09671  0.62615  0.92559  1.0000
  S   S682      1.0  0.08335  0.60414  0.95903  1.0000
  H   H2033     1.0  0.20212  0.55622  0.88755  1.0000
  Fe  Fe342     1.0  0.17957  0.65686  0.84730  1.0000
  S   S683      1.0  0.16951  0.68144  0.83633  1.0000
  S   S684      1.0  0.16598  0.63924  0.86296  1.0000
  Fe  Fe343     1.0  0.21192  0.65752  0.82732  1.0000
  S   S685      1.0  0.23637  0.64361  0.82107  1.0000
  Fe  Fe344     1.0  0.19186  0.68654  0.83781  1.0000
  S   S686      1.0  0.19162  0.70935  0.84310  1.0000
  S   S687      1.0  0.20066  0.66235  0.85099  1.0000
  S   S688      1.0  0.19175  0.64991  0.82471  1.0000
  H   H2034     1.0  0.03681  0.58858  0.83007  1.0000
  H   H2035     1.0  0.01491  0.51320  0.78527  1.0000
  S   S689      1.0  0.30080  0.54171  0.89614  1.0000
  H   H2036     1.0  0.36993  0.72116  0.96763  1.0000
  Fe  Fe345     1.0  0.28855  0.83840  0.94613  1.0000
  S   S690      1.0  0.47488  0.78329  0.94812  1.0000
  C   C2031     1.0  0.30997  0.77964  0.86036  1.0000
  S   S691      1.0  0.46506  0.77992  0.91764  1.0000
  H   H2037     1.0  0.25947  0.52810  0.90197  1.0000
  Fe  Fe346     1.0  0.46265  0.76810  0.94268  1.0000
  H   H2038     1.0  0.24938  0.96267  0.87529  1.0000
  S   S692      1.0  0.16572  0.48554  0.92106  1.0000
  Fe  Fe347     1.0  0.39163  0.73961  0.91746  1.0000
  S   S693      1.0  0.37013  0.73000  0.92323  1.0000
  S   S694      1.0  0.41400  0.72632  0.92491  1.0000
  Fe  Fe348     1.0  0.37673  0.77098  0.89993  1.0000
  S   S695      1.0  0.35353  0.76467  0.90458  1.0000
  S   S696      1.0  0.38398  0.79322  0.88648  1.0000
  S   S697      1.0  0.28362  0.57196  0.86261  1.0000
  Fe  Fe349     1.0  0.36803  0.74200  0.89876  1.0000
  S   S698      1.0  0.36120  0.73388  0.88119  1.0000
  S   S699      1.0  0.37921  0.76208  0.92449  1.0000
  S   S700      1.0  0.39098  0.74916  0.89239  1.0000
  Fe  Fe350     1.0  0.45662  0.68456  0.86119  1.0000
  H   H2039     1.0  0.22221  0.70787  0.81441  1.0000
  S   S701      1.0  0.43058  0.68860  0.86375  1.0000
  H   H2040     1.0  0.30677  0.51323  0.78694  1.0000
  S   S702      1.0  0.31697  0.58436  0.82828  1.0000
  Fe  Fe351     1.0  0.37993  0.64573  0.84945  1.0000
  S   S703      1.0  0.37111  0.63320  0.87369  1.0000
  S   S704      1.0  0.40570  0.64421  0.83920  1.0000
  Fe  Fe352     1.0  0.34721  0.66272  0.84494  1.0000
  S   S705      1.0  0.33574  0.65197  0.86892  1.0000
  S   S706      1.0  0.33205  0.67926  0.82911  1.0000
  Fe  Fe353     1.0  0.35526  0.65633  0.87628  1.0000
  S   S707      1.0  0.35195  0.66500  0.89780  1.0000
  Fe  Fe354     1.0  0.35247  0.62989  0.86400  1.0000
  S   S708      1.0  0.34278  0.60817  0.87252  1.0000
  S   S709      1.0  0.36535  0.66912  0.85264  1.0000
  S   S710      1.0  0.36271  0.64033  0.83932  1.0000
  C   C2032     1.0  0.25283  0.61379  0.82883  1.0000
  C   C2033     1.0  0.43098  0.63216  0.87656  1.0000
  Fe  Fe355     1.0  0.31660  0.92738  0.83326  1.0000
  H   H2041     1.0  0.31072  0.65522  0.83967  1.0000
  Fe  Fe356     1.0  0.28182  0.93767  0.84088  1.0000
  S   S711      1.0  0.25989  0.93668  0.85930  1.0000
  Fe  Fe357     1.0  0.29833  0.93301  0.80859  1.0000
  H   H2042     1.0  0.47608  0.63385  0.83591  1.0000
  S   S712      1.0  0.29761  0.91699  0.83203  1.0000
  H   H2043     1.0  0.27030  0.82731  0.79602  1.0000
  Fe  Fe358     1.0  0.30122  0.96063  0.81994  1.0000
  H   H2044     1.0  0.27205  0.52218  0.83483  1.0000
  N   N166      1.0  0.30606  0.63307  0.84213  1.0000
  H   H2045     1.0  0.40950  0.81414  0.95297  1.0000
  Fe  Fe359     1.0  0.25303  0.74224  0.85902  1.0000
  S   S713      1.0  0.26950  0.74562  0.83580  1.0000
  S   S714      1.0  0.24728  0.71843  0.86631  1.0000
  Fe  Fe360     1.0  0.25453  0.77350  0.86433  1.0000
  S   S715      1.0  0.27108  0.77899  0.84144  1.0000
  S   S716      1.0  0.24692  0.79254  0.87777  1.0000
  Fe  Fe361     1.0  0.25561  0.77019  0.83228  1.0000
  S   S717      1.0  0.24528  0.78261  0.81148  1.0000
  Fe  Fe362     1.0  0.28313  0.75388  0.84750  1.0000
  S   S718      1.0  0.30884  0.74515  0.84666  1.0000
  S   S719      1.0  0.23802  0.76639  0.85471  1.0000
  S   S720      1.0  0.26769  0.74893  0.87112  1.0000
  Fe  Fe363     1.0  0.31067  0.84637  0.91509  1.0000
  S   S721      1.0  0.33395  0.85250  0.90359  1.0000
  Fe  Fe364     1.0  0.27599  0.85657  0.91742  1.0000
  S   S722      1.0  0.25524  0.87415  0.91009  1.0000
  Fe  Fe365     1.0  0.29174  0.82253  0.91941  1.0000
  S   S723      1.0  0.29475  0.79981  0.91246  1.0000
  S   S724      1.0  0.29524  0.84403  0.90109  1.0000
  H   H2046     1.0  0.36760  0.89207  0.84275  1.0000
  Fe  Fe366     1.0  0.19624  0.55874  0.93614  1.0000
  S   S725      1.0  0.20081  0.57015  0.95258  1.0000
  S   S726      1.0  0.18764  0.57028  0.91432  1.0000
  Fe  Fe367     1.0  0.20724  0.52610  0.95327  1.0000
  H   H2047     1.0  0.12080  0.65360  0.80027  1.0000
  S   S727      1.0  0.21065  0.50078  0.95362  1.0000
  C   C2034     1.0  0.11630  0.68339  0.78565  1.0000
  H   H2048     1.0  0.47233  0.61580  0.83519  1.0000
  Fe  Fe368     1.0  0.22311  0.55189  0.95170  1.0000
  S   S728      1.0  0.24555  0.55678  0.95258  1.0000
  S   S729      1.0  0.18357  0.54200  0.95466  1.0000
  S   S730      1.0  0.21953  0.54210  0.93356  1.0000
  H   H2049     1.0  0.32575  0.64273  0.82840  1.0000
  C   C2035     1.0  0.15715  0.64715  0.77671  1.0000
  C   C2036     1.0  0.06929  0.62893  0.79558  1.0000
  H   H2050     1.0  0.28990  0.61822  0.82208  1.0000
  C   C2037     1.0  0.41603  0.71075  0.96562  1.0000
  C   C2038     1.0  0.34762  0.78209  0.94837  1.0000
  S   S731      1.0  0.25671  0.88186  0.78536  1.0000
  H   H2051     1.0  0.01037  0.64670  0.93650  1.0000
  H   H2052     1.0  0.28246  0.61287  0.87130  1.0000
  H   H2053     1.0  0.48298  0.84958  0.97189  1.0000
  C   C2039     1.0  0.19843  0.49673  0.94414  1.0000
  C   C2040     1.0  0.18891  0.50874  0.93550  1.0000
  C   C2041     1.0  0.17927  0.50521  0.92801  1.0000
  H   H2054     1.0  0.41540  0.79380  0.96200  1.0000
  H   H2055     1.0  0.43302  0.82513  0.96643  1.0000
  S   S732      1.0  0.00395  0.59494  0.88490  1.0000
  H   H2056     1.0  0.18905  0.52074  0.93446  1.0000
  H   H2057     1.0  0.17191  0.51453  0.92136  1.0000
  H   H2058     1.0  0.12307  0.67819  0.77556  1.0000
  C   C2042     1.0  0.34888  0.94943  0.82733  1.0000
  H   H2059     1.0  0.31051  0.51101  0.80582  1.0000
  H   H2060     1.0  0.30800  0.75677  0.94786  1.0000
  H   H2061     1.0  0.34672  0.78473  0.93637  1.0000
  C   C2043     1.0  0.48208  0.83053  0.91989  1.0000
  C   C2044     1.0  0.00666  0.63760  0.93392  1.0000
  C   C2045     1.0  0.32435  0.87541  0.84083  1.0000
  H   H2062     1.0  0.24908  0.70179  0.81907  1.0000
  C   C2046     1.0  0.01109  0.62718  0.80801  1.0000
  H   H2063     1.0  0.22171  0.65057  0.79523  1.0000
  C   C2047     1.0  0.26260  0.97887  0.84752  1.0000
  S   S733      1.0  0.01306  0.62853  0.87928  1.0000
  S   S734      1.0  0.31879  0.94188  0.80908  1.0000
  H   H2064     1.0  0.29552  0.81215  0.84762  1.0000
  S   S735      1.0  0.29180  0.86113  0.92974  1.0000
  H   H2065     1.0  0.44283  0.68708  0.90574  1.0000
  C   C2048     1.0  0.25977  0.79404  0.88823  1.0000
  C   C2049     1.0  0.27274  0.78204  0.89100  1.0000
  C   C2050     1.0  0.28313  0.78379  0.89886  1.0000
  C   C2051     1.0  0.28081  0.79765  0.90371  1.0000
  C   C2052     1.0  0.26781  0.80961  0.90103  1.0000
  C   C2053     1.0  0.25726  0.80776  0.89341  1.0000
  H   H2066     1.0  0.27474  0.77141  0.88711  1.0000
  C   C2054     1.0  0.35668  0.89511  0.80400  1.0000
  H   H2067     1.0  0.26589  0.82033  0.90478  1.0000
  H   H2068     1.0  0.24721  0.81707  0.89137  1.0000
  H   H2069     1.0  0.36383  0.92734  0.82434  1.0000
  H   H2070     1.0  0.37862  0.93492  0.78500  1.0000
  C   C2055     1.0  0.27386  0.78924  0.79569  1.0000
  C   C2056     1.0  0.25782  0.79245  0.79616  1.0000
  H   H2071     1.0  0.25768  0.80135  0.95607  1.0000
  S   S736      1.0  0.47594  0.68120  0.84029  1.0000
  C   C2057     1.0  0.25992  0.96665  0.87511  1.0000
  H   H2072     1.0  0.27875  0.78031  0.80464  1.0000
  C   C2058     1.0  0.47375  0.84550  0.92164  1.0000
  H   H2073     1.0  0.32622  0.48543  0.80917  1.0000
  C   C2059     1.0  0.25943  0.91906  0.87323  1.0000
  C   C2060     1.0  0.27300  0.90741  0.87498  1.0000
  C   C2061     1.0  0.27203  0.89353  0.88642  1.0000
  C   C2062     1.0  0.25746  0.89133  0.89593  1.0000
  C   C2063     1.0  0.24403  0.90300  0.89407  1.0000
  C   C2064     1.0  0.24503  0.91683  0.88287  1.0000
  H   H2074     1.0  0.28417  0.90919  0.86765  1.0000
  H   H2075     1.0  0.28239  0.88449  0.88782  1.0000
  H   H2076     1.0  0.23277  0.90135  0.90137  1.0000
  H   H2077     1.0  0.23452  0.92575  0.88159  1.0000
  C   C2065     1.0  0.28841  0.91210  0.78742  1.0000
  C   C2066     1.0  0.34142  0.96397  0.81994  1.0000
  C   C2067     1.0  0.02051  0.62080  0.79545  1.0000
  H   H2078     1.0  0.34725  0.94635  0.83987  1.0000
  H   H2079     1.0  0.37060  0.68940  0.80999  1.0000
  C   C2068     1.0  0.27546  0.90962  0.79953  1.0000
  C   C2069     1.0  0.99389  0.60148  0.92286  1.0000
  N   N167      1.0  0.14537  0.50246  0.95815  1.0000
  H   H2080     1.0  0.24722  0.50579  0.91702  1.0000
  H   H2081     1.0  0.27273  0.91510  0.80926  1.0000
  H   H2082     1.0  0.06128  0.60749  0.80449  1.0000
  H   H2083     1.0  0.16570  0.63024  0.79572  1.0000
  C   C2070     1.0  0.34604  0.90283  0.81518  1.0000
  C   C2071     1.0  0.35003  0.90188  0.82909  1.0000
  C   C2072     1.0  0.36450  0.89288  0.83198  1.0000
  C   C2073     1.0  0.35197  0.56623  0.87991  1.0000
  C   C2074     1.0  0.26581  0.90026  0.79890  1.0000
  H   H2084     1.0  0.33474  0.90946  0.81301  1.0000
  C   C2075     1.0  0.32517  0.69753  0.83406  1.0000
  C   C2076     1.0  0.31547  0.70962  0.82567  1.0000
  C   C2077     1.0  0.31038  0.72431  0.82948  1.0000
  C   C2078     1.0  0.31529  0.72701  0.84143  1.0000
  C   C2079     1.0  0.32512  0.71496  0.84965  1.0000
  C   C2080     1.0  0.32969  0.70017  0.84622  1.0000
  H   H2085     1.0  0.31194  0.70764  0.81621  1.0000
  H   H2086     1.0  0.30297  0.73365  0.82291  1.0000
  H   H2087     1.0  0.32874  0.71694  0.85902  1.0000
  H   H2088     1.0  0.33671  0.69075  0.85295  1.0000
  C   C2081     1.0  0.42448  0.67521  0.85761  1.0000
  C   C2082     1.0  0.40964  0.67200  0.86463  1.0000
  C   C2083     1.0  0.40405  0.66213  0.85929  1.0000
  C   C2084     1.0  0.41309  0.65574  0.84661  1.0000
  C   C2085     1.0  0.42809  0.65870  0.83976  1.0000
  C   C2086     1.0  0.43384  0.66831  0.84535  1.0000
  H   H2089     1.0  0.40243  0.67714  0.87425  1.0000
  H   H2090     1.0  0.39272  0.65950  0.86503  1.0000
  Fe  Fe369     1.0  0.29347  0.54746  0.87360  1.0000
  H   H2091     1.0  0.44530  0.67079  0.83985  1.0000
  C   C2087     1.0  0.36991  0.80971  0.89084  1.0000
  C   C2088     1.0  0.37442  0.82382  0.88802  1.0000
  C   C2089     1.0  0.36333  0.83699  0.89194  1.0000
  C   C2090     1.0  0.34768  0.83611  0.89838  1.0000
  C   C2091     1.0  0.34312  0.82212  0.90068  1.0000
  C   C2092     1.0  0.35428  0.80885  0.89720  1.0000
  H   H2092     1.0  0.38653  0.82450  0.88306  1.0000
  H   H2093     1.0  0.36691  0.84779  0.89010  1.0000
  H   H2094     1.0  0.26273  0.61785  0.82067  1.0000
  H   H2095     1.0  0.35071  0.79804  0.89923  1.0000
  C   C2093     1.0  0.35897  0.71462  0.88626  1.0000
  C   C2094     1.0  0.36146  0.70469  0.90039  1.0000
  C   C2095     1.0  0.35933  0.68937  0.90399  1.0000
  C   C2096     1.0  0.35496  0.68396  0.89335  1.0000
  C   C2097     1.0  0.35239  0.69397  0.87934  1.0000
  C   C2098     1.0  0.35434  0.70925  0.87583  1.0000
  H   H2096     1.0  0.36501  0.70875  0.90853  1.0000
  H   H2097     1.0  0.36121  0.68167  0.91493  1.0000
  H   H2098     1.0  0.34842  0.69005  0.87146  1.0000
  H   H2099     1.0  0.35207  0.71704  0.86511  1.0000
  H   H2100     1.0  0.07479  0.65155  0.78967  1.0000
  Fe  Fe370     1.0  0.18318  0.67481  0.81388  1.0000
  H   H2101     1.0  0.42756  0.68976  0.89590  1.0000
  N   N168      1.0  0.38467  0.70581  0.83692  1.0000
  H   H2102     1.0  0.32398  0.63881  0.84882  1.0000
  C   C2099     1.0  0.33072  0.77270  0.87419  1.0000
  C   C2100     1.0  0.21600  0.64720  0.78816  1.0000
  H   H2103     1.0  0.27653  0.60741  0.84882  1.0000
  C   C2101     1.0  0.43215  0.75387  0.94783  1.0000
  H   H2104     1.0  0.04348  0.64667  0.77912  1.0000
  C   C2102     1.0  0.43701  0.73576  0.93132  1.0000
  C   C2103     1.0  0.42089  0.73733  0.93338  1.0000
  C   C2104     1.0  0.41043  0.74709  0.94284  1.0000
  C   C2105     1.0  0.41605  0.75523  0.95019  1.0000
  C   C2106     1.0  0.14113  0.51284  0.94529  1.0000
  C   C2107     1.0  0.43163  0.62419  0.86543  1.0000
  H   H2105     1.0  0.39804  0.74782  0.94513  1.0000
  C   C2108     1.0  0.34325  0.96752  0.80386  1.0000
  S   S737      1.0  0.28716  0.83264  0.97213  1.0000
  S   S738      1.0  0.27705  0.53709  0.86753  1.0000
  C   C2109     1.0  0.37501  0.88491  0.82093  1.0000
  H   H2106     1.0  0.42300  0.69647  0.91372  1.0000
  S   S739      1.0  0.20468  0.68201  0.81427  1.0000
  H   H2107     1.0  0.20850  0.67092  0.77607  1.0000
  C   C2110     1.0  0.33934  0.55050  0.87306  1.0000
  C   C2111     1.0  0.28799  0.61787  0.85956  1.0000
  C   C2112     1.0  0.28526  0.54650  0.91143  1.0000
  C   C2113     1.0  0.28840  0.54488  0.92590  1.0000
  C   C2114     1.0  0.27614  0.54837  0.93838  1.0000
  C   C2115     1.0  0.26067  0.55313  0.93654  1.0000
  C   C2116     1.0  0.25750  0.55490  0.92202  1.0000
  C   C2117     1.0  0.26985  0.55178  0.90938  1.0000
  H   H2108     1.0  0.30030  0.54085  0.92749  1.0000
  H   H2109     1.0  0.27864  0.54706  0.94955  1.0000
  H   H2110     1.0  0.24559  0.55898  0.92046  1.0000
  H   H2111     1.0  0.26747  0.55342  0.89809  1.0000
  C   C2118     1.0  0.32405  0.59125  0.84046  1.0000
  C   C2119     1.0  0.33452  0.60125  0.83405  1.0000
  C   C2120     1.0  0.34015  0.60684  0.84374  1.0000
  C   C2121     1.0  0.33518  0.60255  0.85987  1.0000
  C   C2122     1.0  0.32460  0.59273  0.86622  1.0000
  C   C2123     1.0  0.31922  0.58695  0.85657  1.0000
  H   H2112     1.0  0.33100  0.82149  0.90508  1.0000
  H   H2113     1.0  0.34854  0.61420  0.83875  1.0000
  H   H2114     1.0  0.32074  0.58935  0.87868  1.0000
  H   H2115     1.0  0.31147  0.57901  0.86168  1.0000
  C   C2124     1.0  0.20660  0.71128  0.85071  1.0000
  C   C2125     1.0  0.21901  0.69877  0.85401  1.0000
  C   C2126     1.0  0.23129  0.70104  0.85904  1.0000
  C   C2127     1.0  0.23145  0.71587  0.86045  1.0000
  C   C2128     1.0  0.21903  0.72835  0.85718  1.0000
  C   C2129     1.0  0.20655  0.72600  0.85255  1.0000
  H   H2116     1.0  0.21916  0.68738  0.85264  1.0000
  H   H2117     1.0  0.24081  0.69130  0.86165  1.0000
  H   H2118     1.0  0.21891  0.73976  0.85848  1.0000
  H   H2119     1.0  0.19692  0.73568  0.85016  1.0000
  N   N169      1.0  0.34160  0.55671  0.88396  1.0000
  C   C2130     1.0  0.30272  0.63024  0.82969  1.0000
  C   C2131     1.0  0.13455  0.57888  0.92421  1.0000
  C   C2132     1.0  0.14200  0.57798  0.93593  1.0000
  C   C2133     1.0  0.15838  0.57477  0.93308  1.0000
  C   C2134     1.0  0.16728  0.57298  0.91835  1.0000
  C   C2135     1.0  0.15984  0.57391  0.90662  1.0000
  C   C2136     1.0  0.14348  0.57659  0.90964  1.0000
  H   H2120     1.0  0.13510  0.57966  0.94724  1.0000
  H   H2121     1.0  0.16409  0.57424  0.94212  1.0000
  H   H2122     1.0  0.16670  0.57261  0.89520  1.0000
  H   H2123     1.0  0.13772  0.57740  0.90054  1.0000
  C   C2137     1.0  0.13296  0.65039  0.90772  1.0000
  C   C2138     1.0  0.14069  0.66170  0.89726  1.0000
  C   C2139     1.0  0.15051  0.65863  0.88316  1.0000
  C   C2140     1.0  0.15257  0.64423  0.87957  1.0000
  C   C2141     1.0  0.14454  0.63310  0.88984  1.0000
  C   C2142     1.0  0.13480  0.63615  0.90391  1.0000
  H   H2124     1.0  0.13931  0.67272  0.90020  1.0000
  H   H2125     1.0  0.15671  0.66725  0.87527  1.0000
  H   H2126     1.0  0.14620  0.62191  0.88714  1.0000
  H   H2127     1.0  0.12921  0.62722  0.91205  1.0000
  C   C2143     1.0  0.35815  0.56347  0.85340  1.0000
  C   C2144     1.0  0.30442  0.76810  0.93996  1.0000
  H   H2128     1.0  0.48298  0.61602  0.84888  1.0000
  N   N170      1.0  0.22365  0.54197  0.89332  1.0000
  C   C2145     1.0  0.37470  0.69420  0.81728  1.0000
  H   H2129     1.0  0.44299  0.75095  0.87186  1.0000
  H   H2130     1.0  0.21991  0.50671  0.91654  1.0000
  H   H2131     1.0  0.20578  0.73428  0.81407  1.0000
  S   S740      1.0  0.34031  0.75442  0.95107  1.0000
  C   C2146     1.0  0.37123  0.88624  0.80681  1.0000
  N   N171      1.0  0.30478  0.79368  0.86465  1.0000
  C   C2147     1.0  0.24069  0.51584  0.91017  1.0000
  H   H2132     1.0  0.47576  0.70469  0.92525  1.0000
  H   H2133     1.0  0.04278  0.61587  0.82752  1.0000
  C   C2148     1.0  0.28467  0.61477  0.84695  1.0000
  C   C2149     1.0  0.04267  0.60524  0.91266  1.0000
  C   C2150     1.0  0.05021  0.59882  0.92509  1.0000
  C   C2151     1.0  0.05398  0.60850  0.93230  1.0000
  C   C2152     1.0  0.04991  0.62469  0.92733  1.0000
  C   C2153     1.0  0.04256  0.63112  0.91477  1.0000
  C   C2154     1.0  0.03904  0.62142  0.90738  1.0000
  H   H2134     1.0  0.05308  0.58631  0.92924  1.0000
  H   H2135     1.0  0.05959  0.60345  0.94204  1.0000
  H   H2136     1.0  0.03949  0.64364  0.91081  1.0000
  H   H2137     1.0  0.03351  0.62652  0.89766  1.0000
  C   C2155     1.0  0.49052  0.71110  0.88631  1.0000
  C   C2156     1.0  0.48076  0.71056  0.91371  1.0000
  C   C2157     1.0  0.01824  0.57308  0.80581  1.0000
  S   S741      1.0  0.30075  0.94676  0.84428  1.0000
  C   C2158     1.0  0.29876  0.62713  0.85692  1.0000
  C   C2159     1.0  0.03162  0.58427  0.82333  1.0000
  N   N172      1.0  0.99825  0.61404  0.92656  1.0000
  C   C2160     1.0  0.38945  0.68766  0.82075  1.0000
  S   S742      1.0  0.46767  0.66435  0.87783  1.0000
  H   H2138     1.0  0.37366  0.91927  0.80089  1.0000
  Fe  Fe371     1.0  0.19053  0.55160  0.97097  1.0000
  H   H2139     1.0  0.31513  0.77223  0.93276  1.0000
  S   S743      1.0  0.28635  0.55846  0.83186  1.0000
  H   H2140     1.0  0.35322  0.57183  0.88831  1.0000
  S   S744      1.0  0.30874  0.82392  0.93234  1.0000
  H   H2141     1.0  0.36416  0.56656  0.84137  1.0000
  C   C2161     1.0  0.24162  0.59268  0.84681  1.0000
  H   H2142     1.0  0.28273  0.79890  0.85839  1.0000
  C   C2162     1.0  0.05776  0.64829  0.81131  1.0000
  C   C2163     1.0  0.26552  0.50148  0.83412  1.0000
  C   C2164     1.0  0.29142  0.80494  0.85919  1.0000
  H   H2143     1.0  0.30404  0.77660  0.85326  1.0000
  H   H2144     1.0  0.29608  0.79489  0.78303  1.0000
  Fe  Fe372     1.0  0.26906  0.56139  0.85425  1.0000
  S   S745      1.0  0.47982  0.68510  0.90423  1.0000
  H   H2145     1.0  0.99388  0.65323  0.91704  1.0000
  C   C2165     1.0  0.27911  0.78533  0.94844  1.0000
  S   S746      1.0  0.48391  0.74906  0.93883  1.0000
  H   H2146     1.0  0.40593  0.78645  0.90481  1.0000
  H   H2147     1.0  0.39506  0.80299  0.96438  1.0000
  H   H2148     1.0  0.25047  0.83478  0.79326  1.0000
  C   C2166     1.0  0.27551  0.50966  0.83613  1.0000
  H   H2149     1.0  0.19507  0.60067  0.89568  1.0000
  C   C2167     1.0  0.44428  0.63677  0.87672  1.0000
  H   H2150     1.0  0.43118  0.78443  0.91138  1.0000
  H   H2151     1.0  0.01293  0.56891  0.79908  1.0000
  C   C2168     1.0  0.36508  0.70674  0.82356  1.0000
  H   H2152     1.0  0.34535  0.54925  0.84891  1.0000
  H   H2153     1.0  0.35356  0.71185  0.82099  1.0000
  H   H2154     1.0  0.36255  0.72195  0.83849  1.0000
  C   C2169     1.0  0.32541  0.78708  0.87845  1.0000
  H   H2155     1.0  0.44575  0.61544  0.84549  1.0000
  C   C2170     1.0  0.99334  0.62924  0.91942  1.0000
  S   S747      1.0  0.17274  0.68245  0.79262  1.0000
  H   H2156     1.0  0.10419  0.68149  0.78857  1.0000
  H   H2157     1.0  0.39694  0.67768  0.81622  1.0000
  H   H2158     1.0  0.29318  0.77449  0.90090  1.0000
  C   C2171     1.0  0.03193  0.57865  0.79891  1.0000
  C   C2172     1.0  0.22708  0.60305  0.84937  1.0000
  H   H2159     1.0  0.35974  0.85668  0.84945  1.0000
  H   H2160     1.0  0.05658  0.65979  0.81308  1.0000
  C   C2173     1.0  0.06810  0.64362  0.79810  1.0000
  C   C2174     1.0  0.14218  0.52841  0.94225  1.0000
  C   C2175     1.0  0.36049  0.56964  0.86462  1.0000
  C   C2176     1.0  0.21689  0.52963  0.90141  1.0000
  H   H2161     1.0  0.30827  0.80860  0.87700  1.0000
  C   C2177     1.0  0.24753  0.52841  0.90179  1.0000
  H   H2162     1.0  0.25827  0.96944  0.88654  1.0000
  C   C2178     1.0  0.37023  0.71237  0.83349  1.0000
  H   H2163     1.0  0.47341  0.86613  0.92867  1.0000
  H   H2164     1.0  0.21423  0.62679  0.84390  1.0000
  H   H2165     1.0  0.36820  0.57771  0.86136  1.0000
  Fe  Fe373     1.0  0.29549  0.53481  0.84580  1.0000
  H   H2166     1.0  0.42375  0.74040  0.86546  1.0000
  C   C2179     1.0  0.39429  0.69372  0.83057  1.0000
  S   S748      1.0  0.47339  0.81933  0.91351  1.0000
  C   C2180     1.0  0.01146  0.57275  0.82154  1.0000
  C   C2181     1.0  0.33967  0.86656  0.83903  1.0000
  C   C2182     1.0  0.20795  0.62775  0.78168  1.0000
  H   H2167     1.0  0.33818  0.83083  0.96551  1.0000
  H   H2168     1.0  0.13711  0.50904  0.93719  1.0000
  H   H2169     1.0  0.33725  0.97868  0.79802  1.0000
  H   H2170     1.0  0.13316  0.64113  0.82278  1.0000
  C   C2183     1.0  0.30104  0.78449  0.95802  1.0000
  H   H2171     1.0  0.46227  0.84994  0.91895  1.0000
  C   C2184     1.0  0.27632  0.80154  0.96611  1.0000
  H   H2172     1.0  0.21516  0.62063  0.81375  1.0000
  C   C2185     1.0  0.16637  0.66877  0.78700  1.0000
  H   H2173     1.0  0.29731  0.79959  0.97361  1.0000
  Fe  Fe374     1.0  0.48776  0.66198  0.85731  1.0000
  N   N173      1.0  0.40626  0.79822  0.94189  1.0000
  C   C2186     1.0  0.42009  0.79327  0.93218  1.0000
  C   C2187     1.0  0.39230  0.79968  0.93819  1.0000
  C   C2188     1.0  0.42019  0.78881  0.91879  1.0000
  C   C2189     1.0  0.39196  0.79557  0.92476  1.0000
  C   C2190     1.0  0.40601  0.78992  0.91513  1.0000
  C   C2191     1.0  0.40655  0.80255  0.95598  1.0000
  H   H2174     1.0  0.43115  0.79245  0.93493  1.0000
  H   H2175     1.0  0.38135  0.80404  0.94562  1.0000
  C   C2192     1.0  0.29204  0.79550  0.96672  1.0000
  C   C2193     1.0  0.26978  0.79644  0.95692  1.0000
  H   H2176     1.0  0.44381  0.64321  0.88517  1.0000
  H   H2177     1.0  0.48030  0.73112  0.92085  1.0000
  C   C2194     1.0  0.48957  0.73332  0.89632  1.0000
  H   H2178     1.0  0.48275  0.82087  0.95454  1.0000
  C   C2195     1.0  0.03405  0.64140  0.78688  1.0000
  H   H2179     1.0  0.25431  0.50773  0.83139  1.0000
  H   H2180     1.0  0.39663  0.71029  0.95701  1.0000
  H   H2181     1.0  0.28511  0.81269  0.86742  1.0000
  N   N174      1.0  0.32572  0.87870  0.86540  1.0000
  C   C2196     1.0  0.31744  0.88122  0.85429  1.0000
  C   C2197     1.0  0.34063  0.86976  0.86388  1.0000
  C   C2198     1.0  0.45809  0.63332  0.86569  1.0000
  C   C2199     1.0  0.34780  0.86350  0.85073  1.0000
  S   S749      1.0  0.21318  0.53413  0.97136  1.0000
  C   C2200     1.0  0.31830  0.88521  0.87922  1.0000
  N   N175      1.0  0.21567  0.63192  0.79017  1.0000
  H   H2182     1.0  0.34712  0.86758  0.87279  1.0000
  H   H2183     1.0  0.34535  0.86230  0.82849  1.0000
  C   C2201     1.0  0.99752  0.64123  0.92294  1.0000
  C   C2202     1.0  0.27015  0.48533  0.83521  1.0000
  H   H2184     1.0  0.31108  0.89712  0.87614  1.0000
  H   H2185     1.0  0.31085  0.87754  0.88778  1.0000
  H   H2186     1.0  0.32719  0.88616  0.88488  1.0000
  N   N176      1.0  0.45858  0.62566  0.85470  1.0000
  C   C2203     1.0  0.44557  0.62115  0.85441  1.0000
  H   H2187     1.0  0.14876  0.54525  0.95008  1.0000
  H   H2188     1.0  0.27406  0.78176  0.94098  1.0000
  H   H2189     1.0  0.29088  0.51430  0.80391  1.0000
  H   H2190     1.0  0.01881  0.61004  0.79410  1.0000
  C   C2204     1.0  0.36873  0.93048  0.79357  1.0000
  C   C2205     1.0  0.01802  0.57852  0.83025  1.0000
  H   H2191     1.0  0.25573  0.89851  0.80822  1.0000
  C   C2206     1.0  0.02460  0.64831  0.79910  1.0000
  S   S750      1.0  0.00122  0.62079  0.85210  1.0000
  C   C2207     1.0  0.00872  0.51153  0.77721  1.0000
  H   H2192     1.0  0.38623  0.87799  0.82315  1.0000
  H   H2193     1.0  0.40791  0.76257  0.95768  1.0000
  Fe  Fe375     1.0  0.01361  0.59605  0.85955  1.0000
  N   N177      1.0  0.12375  0.67626  0.79895  1.0000
  C   C2208     1.0  0.12499  0.66067  0.80525  1.0000
  C   C2209     1.0  0.12957  0.68505  0.80489  1.0000
  C   C2210     1.0  0.13197  0.65354  0.81799  1.0000
  C   C2211     1.0  0.13662  0.67830  0.81762  1.0000
  C   C2212     1.0  0.13781  0.66245  0.82421  1.0000
  C   C2213     1.0  0.22292  0.62015  0.80210  1.0000
  H   H2194     1.0  0.02666  0.65879  0.80075  1.0000
  H   H2195     1.0  0.12911  0.69729  0.79963  1.0000
  H   H2196     1.0  0.26196  0.84786  0.79319  1.0000
  H   H2197     1.0  0.14154  0.68524  0.82204  1.0000
  S   S751      1.0  0.08055  0.62352  0.77827  1.0000
  H   H2198     1.0  0.35312  0.95894  0.78303  1.0000
  C   C2214     1.0  0.20872  0.65874  0.77724  1.0000
  S   S752      1.0  0.38492  0.87706  0.79271  1.0000
  H   H2199     1.0  0.36122  0.92802  0.78727  1.0000
  C   C2215     1.0  0.47139  0.82525  0.96136  1.0000
  N   N178      1.0  0.35957  0.94206  0.80274  1.0000
  C   C2216     1.0  0.28366  0.79744  0.78345  1.0000
  H   H2200     1.0  0.24416  0.55121  0.88681  1.0000
  C   C2217     1.0  0.16837  0.65315  0.79490  1.0000
  H   H2201     1.0  0.00246  0.62125  0.81644  1.0000
  H   H2202     1.0  0.31795  0.87801  0.83175  1.0000
  H   H2203     1.0  0.32703  0.75778  0.86172  1.0000
  C   C2218     1.0  0.35814  0.93863  0.81847  1.0000
  C   C2219     1.0  0.04861  0.63829  0.82200  1.0000
  C   C2220     1.0  0.14786  0.53323  0.95232  1.0000
  C   C2221     1.0  0.29474  0.48555  0.84049  1.0000
  S   S753      1.0  0.00893  0.57838  0.84975  1.0000
  C   C2222     1.0  0.00736  0.61037  0.93719  1.0000
  N   N179      1.0  0.17773  0.61985  0.90250  1.0000
  C   C2223     1.0  0.16805  0.61508  0.91637  1.0000
  C   C2224     1.0  0.18110  0.63428  0.89873  1.0000
  C   C2225     1.0  0.16099  0.62504  0.92665  1.0000
  C   C2226     1.0  0.17431  0.64452  0.90879  1.0000
  C   C2227     1.0  0.16410  0.63988  0.92277  1.0000
  C   C2228     1.0  0.18480  0.60924  0.89187  1.0000
  H   H2204     1.0  0.16536  0.60370  0.91932  1.0000
  H   H2205     1.0  0.18858  0.63816  0.88764  1.0000
  C   C2229     1.0  0.48329  0.72557  0.91123  1.0000
  H   H2206     1.0  0.17645  0.65620  0.90547  1.0000
  H   H2207     1.0  0.29833  0.76637  0.93187  1.0000
  H   H2208     1.0  0.17617  0.60283  0.89164  1.0000
  H   H2209     1.0  0.18856  0.61564  0.87976  1.0000
  N   N180      1.0  0.08076  0.59866  0.89510  1.0000
  C   C2230     1.0  0.07299  0.60266  0.88330  1.0000
  C   C2231     1.0  0.08505  0.60979  0.89930  1.0000
  C   C2232     1.0  0.06882  0.61825  0.87574  1.0000
  C   C2233     1.0  0.08100  0.62551  0.89205  1.0000
  C   C2234     1.0  0.07279  0.62974  0.88024  1.0000
  C   C2235     1.0  0.08490  0.58228  0.90297  1.0000
  H   H2210     1.0  0.06949  0.59383  0.88005  1.0000
  H   H2211     1.0  0.09138  0.60655  0.90852  1.0000
  H   H2212     1.0  0.06225  0.62143  0.86669  1.0000
  H   H2213     1.0  0.08400  0.63434  0.89578  1.0000
  H   H2214     1.0  0.06934  0.64190  0.87470  1.0000
  H   H2215     1.0  0.09596  0.57636  0.89619  1.0000
  H   H2216     1.0  0.08657  0.58118  0.91480  1.0000
  H   H2217     1.0  0.07536  0.57626  0.90443  1.0000
  H   H2218     1.0  0.30854  0.63486  0.81796  1.0000
  C   C2236     1.0  0.23880  0.54145  0.89332  1.0000
  C   C2237     1.0  0.33196  0.55405  0.89975  1.0000
  H   H2219     1.0  0.33086  0.54325  0.87619  1.0000
  H   H2220     1.0  0.33054  0.54179  0.90369  1.0000
  H   H2221     1.0  0.33723  0.55634  0.90819  1.0000
  H   H2222     1.0  0.32011  0.56178  0.89996  1.0000
  C   C2238     1.0  0.23834  0.62418  0.83145  1.0000
  Fe  Fe376     1.0  0.30178  0.56711  0.84142  1.0000
  S   S754      1.0  0.27116  0.83476  0.93494  1.0000
  C   C2239     1.0  0.29208  0.62095  0.83192  1.0000
  N   N181      1.0  0.25341  0.83411  0.81550  1.0000
  C   C2240     1.0  0.24965  0.82026  0.82391  1.0000
  C   C2241     1.0  0.25162  0.84592  0.82269  1.0000
  C   C2242     1.0  0.24408  0.81787  0.83999  1.0000
  C   C2243     1.0  0.24617  0.84387  0.83880  1.0000
  C   C2244     1.0  0.24245  0.82971  0.84749  1.0000
  C   C2245     1.0  0.25933  0.83614  0.79868  1.0000
  H   H2223     1.0  0.25090  0.81097  0.81819  1.0000
  H   H2224     1.0  0.25436  0.85703  0.81599  1.0000
  H   H2225     1.0  0.24102  0.80690  0.84664  1.0000
  H   H2226     1.0  0.24476  0.85325  0.84449  1.0000
  H   H2227     1.0  0.23823  0.82787  0.86001  1.0000
  H   H2228     1.0  0.42443  0.70314  0.95852  1.0000
  C   C2246     1.0  0.01322  0.64101  0.80986  1.0000
  C   C2247     1.0  0.01158  0.62208  0.94113  1.0000
  C   C2248     1.0  0.22704  0.71700  0.81547  1.0000
  S   S755      1.0  0.46632  0.70193  0.86642  1.0000
  Fe  Fe377     1.0  0.48701  0.69646  0.84739  1.0000
  H   H2229     1.0  0.33840  0.60452  0.82158  1.0000
  S   S756      1.0  0.31269  0.54322  0.85302  1.0000
  H   H2230     1.0  0.38697  0.70314  0.85986  1.0000
  C   C2249     1.0  0.32297  0.76893  0.86510  1.0000
  H   H2231     1.0  0.33120  0.79010  0.88568  1.0000
  H   H2232     1.0  0.35421  0.80352  0.94620  1.0000
  H   H2233     1.0  0.15810  0.64796  0.93033  1.0000
  H   H2234     1.0  0.30153  0.62924  0.86679  1.0000
  C   C2250     1.0  0.31242  0.79754  0.87344  1.0000
  H   H2235     1.0  0.33399  0.97238  0.82666  1.0000
  C   C2251     1.0  0.31711  0.64297  0.83963  1.0000
  C   C2252     1.0  0.35194  0.79268  0.95391  1.0000
  N   N182      1.0  0.30874  0.70621  0.89020  1.0000
  C   C2253     1.0  0.29822  0.71488  0.88130  1.0000
  C   C2254     1.0  0.31222  0.69029  0.89277  1.0000
  C   C2255     1.0  0.29094  0.70766  0.87459  1.0000
  C   C2256     1.0  0.30519  0.68270  0.88623  1.0000
  C   C2257     1.0  0.29451  0.69147  0.87705  1.0000
  C   C2258     1.0  0.31600  0.71419  0.89715  1.0000
  H   H2236     1.0  0.29569  0.72748  0.87907  1.0000
  H   H2237     1.0  0.32051  0.68335  0.89989  1.0000
  H   H2238     1.0  0.28269  0.71458  0.86740  1.0000
  H   H2239     1.0  0.30802  0.67009  0.88829  1.0000
  H   H2240     1.0  0.28898  0.68579  0.87182  1.0000
  H   H2241     1.0  0.32510  0.70597  0.90318  1.0000
  H   H2242     1.0  0.32180  0.72291  0.88801  1.0000
  H   H2243     1.0  0.30697  0.72020  0.90575  1.0000
  N   N183      1.0  0.22346  0.74343  0.81743  1.0000
  C   C2259     1.0  0.23824  0.74022  0.81997  1.0000
  C   C2260     1.0  0.21778  0.73205  0.81525  1.0000
  C   C2261     1.0  0.24774  0.72525  0.82045  1.0000
  C   C2262     1.0  0.24206  0.71358  0.81821  1.0000
  C   C2263     1.0  0.21340  0.75890  0.81821  1.0000
  H   H2244     1.0  0.24256  0.74919  0.82203  1.0000
  H   H2245     1.0  0.25923  0.72261  0.82304  1.0000
  S   S757      1.0  0.33731  0.91234  0.84269  1.0000
  H   H2246     1.0  0.21997  0.76814  0.81156  1.0000
  H   H2247     1.0  0.20296  0.76097  0.81333  1.0000
  H   H2248     1.0  0.20937  0.76001  0.83051  1.0000
  N   N184      1.0  0.43497  0.71046  0.89417  1.0000
  C   C2264     1.0  0.44530  0.71632  0.89799  1.0000
  C   C2265     1.0  0.42709  0.71905  0.88281  1.0000
  C   C2266     1.0  0.44839  0.73092  0.89001  1.0000
  C   C2267     1.0  0.42991  0.73370  0.87455  1.0000
  C   C2268     1.0  0.22532  0.51638  0.90992  1.0000
  C   C2269     1.0  0.43190  0.69517  0.90283  1.0000
  H   H2249     1.0  0.45112  0.70968  0.90732  1.0000
  H   H2250     1.0  0.41866  0.71453  0.88000  1.0000
  H   H2251     1.0  0.44521  0.72803  0.92432  1.0000
  S   S758      1.0  0.30034  0.92450  0.78712  1.0000
  C   C2270     1.0  0.05004  0.62351  0.81958  1.0000
  C   C2271     1.0  0.22546  0.61883  0.84179  1.0000
  N   N185      1.0  0.29457  0.77959  0.94900  1.0000
  H   H2252     1.0  0.23916  0.80645  0.78487  1.0000
  H   H2253     1.0  0.04942  0.58820  0.80243  1.0000
  H   H2254     1.0  0.38321  0.72306  0.84928  1.0000
  H   H2255     1.0  0.43517  0.65373  0.83000  1.0000
  H   H2256     1.0  0.40229  0.71068  0.84496  1.0000
  H   H2257     1.0  0.21681  0.56651  0.88560  1.0000
  H   H2258     1.0  0.21708  0.59891  0.85728  1.0000
  H   H2259     1.0  0.17350  0.64931  0.80493  1.0000
  C   C2272     1.0  0.38950  0.71098  0.84825  1.0000
  C   C2273     1.0  0.25451  0.59809  0.83659  1.0000
  H   H2260     1.0  0.26574  0.59013  0.83448  1.0000
  C   C2274     1.0  0.06039  0.61884  0.80642  1.0000
  H   H2261     1.0  0.21903  0.55525  0.87155  1.0000
  C   C2275     1.0  0.15137  0.50699  0.96784  1.0000
  H   H2262     1.0  0.45671  0.73542  0.89301  1.0000
  S   S759      1.0  0.43917  0.76426  0.95677  1.0000
  H   H2263     1.0  0.34083  0.76450  0.87790  1.0000
  S   S760      1.0  0.03454  0.64494  0.83754  1.0000
  C   C2276     1.0  0.34756  0.55378  0.85763  1.0000
  C   C2277     1.0  0.03876  0.58403  0.80773  1.0000
  C   C2278     1.0  0.21494  0.55560  0.88404  1.0000
  H   H2264     1.0  0.20485  0.53005  0.90150  1.0000
  C   C2279     1.0  0.29033  0.50174  0.83891  1.0000
  H   H2265     1.0  0.45506  0.74310  0.93650  1.0000
  H   H2266     1.0  0.42120  0.62101  0.86489  1.0000
  H   H2267     1.0  0.40572  0.68855  0.83325  1.0000
  Fe  Fe378     1.0  0.09577  0.61546  0.96947  1.0000
  C   C2280     1.0  0.30312  0.50834  0.79952  1.0000
  Fe  Fe379     1.0  0.35754  0.75331  0.92849  1.0000
  H   H2268     1.0  0.42006  0.63510  0.88480  1.0000
  H   H2269     1.0  0.01916  0.61914  0.94925  1.0000
  H   H2270     1.0  0.13420  0.48534  0.95697  1.0000
  S   S761      1.0  0.30436  0.51191  0.83823  1.0000
  S   S762      1.0  0.24362  0.57297  0.85635  1.0000
  Fe  Fe380     1.0  0.47930  0.79356  0.92261  1.0000
  C   C2281     1.0  0.47315  0.62263  0.84307  1.0000
  C   C2282     1.0  0.44067  0.73962  0.87817  1.0000
  C   C2283     1.0  0.44262  0.74425  0.93829  1.0000
  H   H2271     1.0  0.23437  0.62228  0.80203  1.0000
  C   C2284     1.0  0.35231  0.95631  0.79542  1.0000
  H   H2272     1.0  0.30551  0.88803  0.85568  1.0000
  N   N186      1.0  0.30440  0.49152  0.80230  1.0000
  H   H2273     1.0  0.20716  0.61573  0.78363  1.0000
  H   H2274     1.0  0.22518  0.60818  0.80023  1.0000
  Fe  Fe381     1.0  0.48745  0.76217  0.91401  1.0000
  H   H2275     1.0  0.14354  0.65702  0.83391  1.0000
  C   C2285     1.0  0.28291  0.86323  0.97389  1.0000
  N   N187      1.0  0.03195  0.62779  0.78521  1.0000
  C   C2286     1.0  0.48425  0.70334  0.90124  1.0000
  H   H2276     1.0  0.01172  0.59829  0.94241  1.0000
  C   C2287     1.0  0.16391  0.64235  0.78968  1.0000
  H   H2277     1.0  0.30384  0.97906  0.84429  1.0000
  H   H2278     1.0  0.13875  0.53669  0.93210  1.0000
  H   H2279     1.0  0.27021  0.95678  0.87376  1.0000
  H   H2280     1.0  0.26111  0.96828  0.84557  1.0000
  S   S763      1.0  0.03994  0.57999  0.77904  1.0000
  Fe  Fe382     1.0  0.47899  0.68152  0.88139  1.0000
  H   H2281     1.0  0.15271  0.62151  0.93728  1.0000
  H   H2282     1.0  0.00638  0.64588  0.81980  1.0000
  C   C2288     1.0  0.26900  0.89344  0.78613  1.0000
  C   C2289     1.0  0.48005  0.85466  0.92713  1.0000
  H   H2283     1.0  0.45912  0.81636  0.94993  1.0000
  H   H2284     1.0  0.46841  0.63693  0.86582  1.0000
  H   H2285     1.0  0.15716  0.52605  0.97294  1.0000
  H   H2286     1.0  0.31871  0.84257  0.96524  1.0000
  H   H2287     1.0  0.00107  0.56810  0.82694  1.0000
  N   N188      1.0  0.38967  0.72492  0.97330  1.0000
  H   H2288     1.0  0.28257  0.49432  0.79640  1.0000
  C   C2290     1.0  0.45806  0.82249  0.95884  1.0000
  H   H2289     1.0  0.26933  0.81041  0.97249  1.0000
  H   H2290     1.0  0.28222  0.86641  0.96183  1.0000
  C   C2291     1.0  0.35378  0.78901  0.96921  1.0000
  H   H2291     1.0  0.31329  0.78004  0.95835  1.0000
  C   C2292     1.0  0.29291  0.48622  0.79974  1.0000
  C   C2293     1.0  0.44340  0.82766  0.96788  1.0000
  N   N189      1.0  0.26218  0.98001  0.86215  1.0000
  H   H2292     1.0  0.48973  0.78717  0.87946  1.0000
  C   C2294     1.0  0.34445  0.76817  0.95832  1.0000
  H   H2293     1.0  0.00461  0.59352  0.91786  1.0000
  C   C2295     1.0  0.15255  0.52245  0.96516  1.0000
  C   C2296     1.0  0.40024  0.71482  0.96485  1.0000
  H   H2294     1.0  0.37177  0.74108  0.96298  1.0000
  H   H2295     1.0  0.49037  0.98138  0.78707  1.0000
  C   C2297     1.0  0.48405  0.83679  0.97439  1.0000
  C   C2298     1.0  0.32639  0.83425  0.97286  1.0000
  C   C2299     1.0  0.37337  0.72986  0.97162  1.0000
  Fe  Fe383     1.0  0.99292  0.62007  0.87755  1.0000
  N   N190      1.0  0.47012  0.83337  0.97224  1.0000
  C   C2300     1.0  0.34530  0.76496  0.97388  1.0000
  C   C2301     1.0  0.42101  0.71724  0.97494  1.0000
  Fe  Fe384     1.0  0.60618  0.27202  0.12886  1.0000
  S   S764      1.0  0.63010  0.25805  0.12065  1.0000
  S   S765      1.0  0.59553  0.29361  0.11347  1.0000
  Fe  Fe385     1.0  0.60133  0.25064  0.16075  1.0000
  S   S766      1.0  0.62489  0.23492  0.15537  1.0000
  C   C2302     1.0  0.54551  0.15961  0.99281  1.0000
  Fe  Fe386     1.0  0.63356  0.25709  0.14421  1.0000
  S   S767      1.0  0.65533  0.26117  0.14838  1.0000
  Fe  Fe387     1.0  0.61897  0.23752  0.13244  1.0000
  S   S768      1.0  0.62147  0.21636  0.12324  1.0000
  S   S769      1.0  0.61034  0.27252  0.15148  1.0000
  S   S770      1.0  0.59467  0.25171  0.13874  1.0000
  C   C2303     1.0  0.50429  0.36014  0.07120  1.0000
  H   H2296     1.0  0.58345  0.40039  0.14118  1.0000
  S   S771      1.0  0.61043  0.07554  0.17252  1.0000
  Fe  Fe388     1.0  0.60595  0.09433  0.15152  1.0000
  H   H2297     1.0  0.78422  0.32590  0.08865  1.0000
  S   S772      1.0  0.62497  0.10598  0.13555  1.0000
  C   C2304     1.0  0.65702  0.42634  0.01230  1.0000
  H   H2298     1.0  0.57284  0.38536  0.14581  1.0000
  S   S773      1.0  0.61294  0.46394  0.11610  1.0000
  S   S774      1.0  0.84468  0.38905  0.13789  1.0000
  S   S775      1.0  0.59190  0.08181  0.14458  1.0000
  H   H2299     1.0  0.80554  0.34151  0.98113  1.0000
  Fe  Fe389     1.0  0.59252  0.16577  0.06691  1.0000
  S   S776      1.0  0.60006  0.18430  0.04635  1.0000
  S   S777      1.0  0.60822  0.14200  0.07083  1.0000
  Fe  Fe390     1.0  0.56136  0.18633  0.07731  1.0000
  S   S778      1.0  0.56593  0.20640  0.05750  1.0000
  S   S779      1.0  0.53965  0.18800  0.09628  1.0000
  Fe  Fe391     1.0  0.57570  0.18857  0.04285  1.0000
  Fe  Fe392     1.0  0.58969  0.20039  0.06289  1.0000
  S   S780      1.0  0.60073  0.21991  0.06217  1.0000
  S   S781      1.0  0.56883  0.16893  0.06220  1.0000
  S   S782      1.0  0.58447  0.18133  0.08373  1.0000
  C   C2305     1.0  0.57731  0.41531  0.09786  1.0000
  C   C2306     1.0  0.53076  0.20534  0.00118  1.0000
  C   C2307     1.0  0.69912  0.42176  0.99033  1.0000
  C   C2308     1.0  0.69669  0.42418  0.97539  1.0000
  H   H2300     1.0  0.82222  0.47574  0.16669  1.0000
  Fe  Fe393     1.0  0.69627  0.44414  0.03576  1.0000
  H   H2301     1.0  0.74417  0.34750  0.13273  1.0000
  S   S783      1.0  0.67818  0.42982  0.04674  1.0000
  H   H2302     1.0  0.56758  0.37703  0.12481  1.0000
  H   H2303     1.0  0.89149  0.45642  0.17103  1.0000
  Fe  Fe394     1.0  0.72509  0.45108  0.03977  1.0000
  C   C2309     1.0  0.60510  0.46241  0.15921  1.0000
  H   H2304     1.0  0.50092  0.38005  0.08090  1.0000
  S   S784      1.0  0.72170  0.43318  0.02935  1.0000
  S   S785      1.0  0.74043  0.44637  0.05642  1.0000
  H   H2305     1.0  0.51503  0.32659  0.06754  1.0000
  C   C2310     1.0  0.76270  0.35900  0.99952  1.0000
  H   H2306     1.0  0.61783  0.98445  0.09699  1.0000
  C   C2311     1.0  0.58109  0.99648  0.09314  1.0000
  C   C2312     1.0  0.98834  0.44686  0.13911  1.0000
  Fe  Fe395     1.0  0.77471  0.37440  0.05411  1.0000
  S   S786      1.0  0.79118  0.38407  0.06083  1.0000
  S   S787      1.0  0.74940  0.38014  0.06618  1.0000
  Fe  Fe396     1.0  0.79974  0.36030  0.02958  1.0000
  S   S788      1.0  0.81888  0.36810  0.03441  1.0000
  S   S789      1.0  0.80554  0.34831  0.00974  1.0000
  Fe  Fe397     1.0  0.80768  0.36107  0.05956  1.0000
  S   S790      1.0  0.82146  0.34989  0.07833  1.0000
  Fe  Fe398     1.0  0.80127  0.39045  0.03544  1.0000
  S   S791      1.0  0.80755  0.41362  0.02604  1.0000
  S   S792      1.0  0.79038  0.35056  0.05481  1.0000
  S   S793      1.0  0.78292  0.38349  0.02863  1.0000
  Fe  Fe399     1.0  0.52209  0.26907  0.09239  1.0000
  S   S794      1.0  0.54261  0.26744  0.07232  1.0000
  S   S795      1.0  0.52297  0.25258  0.11542  1.0000
  H   H2307     1.0  0.64436  0.42626  0.01630  1.0000
  S   S796      1.0  0.52008  0.29426  0.05131  1.0000
  C   C2313     1.0  0.88878  0.45111  0.16319  1.0000
  Fe  Fe400     1.0  0.52514  0.26831  0.05906  1.0000
  Fe  Fe401     1.0  0.53567  0.29343  0.06664  1.0000
  S   S797      1.0  0.55410  0.30747  0.05693  1.0000
  S   S798      1.0  0.50506  0.26791  0.07954  1.0000
  S   S799      1.0  0.51652  0.29518  0.08803  1.0000
  H   H2308     1.0  0.54457  0.17973  0.01900  1.0000
  C   C2314     1.0  0.57307  0.24413  0.03083  1.0000
  H   H2309     1.0  0.57831  0.00743  0.09676  1.0000
  C   C2315     1.0  0.65238  0.44306  0.98740  1.0000
  H   H2310     1.0  0.50938  0.23833  0.00760  1.0000
  C   C2316     1.0  0.59112  0.02973  0.15925  1.0000
  Fe  Fe402     1.0  0.86119  0.39300  0.11487  1.0000
  H   H2311     1.0  0.51632  0.11727  0.15407  1.0000
  S   S800      1.0  0.85472  0.39490  0.09231  1.0000
  H   H2312     1.0  0.57967  0.42635  0.09059  1.0000
  H   H2313     1.0  0.68202  0.40588  0.09908  1.0000
  H   H2314     1.0  0.68968  0.39612  0.07492  1.0000
  S   S801      1.0  0.86494  0.41510  0.11785  1.0000
  Fe  Fe403     1.0  0.52571  0.36856  0.10490  1.0000
  H   H2315     1.0  0.97532  0.37038  0.11802  1.0000
  S   S802      1.0  0.53700  0.37032  0.07969  1.0000
  Fe  Fe404     1.0  0.52427  0.38025  0.13318  1.0000
  S   S803      1.0  0.98004  0.40846  0.14333  1.0000
  S   S804      1.0  0.53450  0.39326  0.14401  1.0000
  Fe  Fe405     1.0  0.52133  0.34724  0.13644  1.0000
  S   S805      1.0  0.52838  0.32249  0.14906  1.0000
  C   C2317     1.0  0.78065  0.39410  0.98723  1.0000
  S   S806      1.0  0.54003  0.36039  0.12298  1.0000
  S   S807      1.0  0.51157  0.38985  0.11375  1.0000
  H   H2316     1.0  0.80622  0.35193  0.17121  1.0000
  C   C2318     1.0  0.53476  0.07081  0.17298  1.0000
  H   H2317     1.0  0.60390  0.00170  0.10140  1.0000
  C   C2319     1.0  0.53818  0.43290  0.11093  1.0000
  C   C2320     1.0  0.55114  0.25176  0.14997  1.0000
  C   C2321     1.0  0.58646  0.03854  0.14556  1.0000
  C   C2322     1.0  0.54967  0.32461  0.06372  1.0000
  C   C2323     1.0  0.55471  0.33776  0.05383  1.0000
  C   C2324     1.0  0.55096  0.35169  0.05890  1.0000
  C   C2325     1.0  0.54249  0.35242  0.07401  1.0000
  C   C2326     1.0  0.53778  0.33913  0.08404  1.0000
  C   C2327     1.0  0.54128  0.32525  0.07888  1.0000
  H   H2318     1.0  0.56130  0.33727  0.04213  1.0000
  H   H2319     1.0  0.55463  0.36193  0.05109  1.0000
  H   H2320     1.0  0.53137  0.33953  0.09572  1.0000
  H   H2321     1.0  0.53770  0.31502  0.08672  1.0000
  H   H2322     1.0  0.76779  0.37966  0.09640  1.0000
  Fe  Fe406     1.0  0.68591  0.36676  0.14468  1.0000
  C   C2328     1.0  0.84334  0.38267  0.09120  1.0000
  C   C2329     1.0  0.84619  0.36675  0.09807  1.0000
  C   C2330     1.0  0.83906  0.35679  0.09446  1.0000
  C   C2331     1.0  0.82912  0.36269  0.08393  1.0000
  C   C2332     1.0  0.82587  0.37869  0.07757  1.0000
  C   C2333     1.0  0.83283  0.38862  0.08129  1.0000
  H   H2323     1.0  0.85439  0.36202  0.10564  1.0000
  H   H2324     1.0  0.84163  0.34443  0.09946  1.0000
  H   H2325     1.0  0.81838  0.38342  0.06939  1.0000
  H   H2326     1.0  0.83049  0.40093  0.07603  1.0000
  H   H2327     1.0  0.64872  0.10298  0.16119  1.0000
  H   H2328     1.0  0.50556  0.43957  0.13359  1.0000
  C   C2334     1.0  0.77471  0.35693  0.00720  1.0000
  C   C2335     1.0  0.79020  0.35066  0.00057  1.0000
  C   C2336     1.0  0.89213  0.42929  0.15252  1.0000
  S   S808      1.0  0.50911  0.27017  0.98478  1.0000
  H   H2329     1.0  0.56447  0.23885  0.04061  1.0000
  H   H2330     1.0  0.77197  0.36006  0.01830  1.0000
  H   H2331     1.0  0.52816  0.28846  0.16573  1.0000
  S   S809      1.0  0.65248  0.32825  0.15712  1.0000
  C   C2337     1.0  0.73236  0.34094  0.10459  1.0000
  C   C2338     1.0  0.74506  0.33736  0.09248  1.0000
  C   C2339     1.0  0.75023  0.34934  0.08046  1.0000
  C   C2340     1.0  0.74264  0.36488  0.08050  1.0000
  C   C2341     1.0  0.72961  0.36839  0.09233  1.0000
  C   C2342     1.0  0.72451  0.35645  0.10440  1.0000
  H   H2332     1.0  0.75106  0.32537  0.09252  1.0000
  H   H2333     1.0  0.75998  0.34653  0.07113  1.0000
  H   H2334     1.0  0.72374  0.38037  0.09246  1.0000
  C   C2343     1.0  0.53468  0.41839  0.11905  1.0000
  C   C2344     1.0  0.53885  0.41127  0.13332  1.0000
  C   C2345     1.0  0.54661  0.41862  0.13937  1.0000
  C   C2346     1.0  0.55050  0.43288  0.13106  1.0000
  H   H2335     1.0  0.52869  0.41279  0.11429  1.0000
  H   H2336     1.0  0.54977  0.41322  0.15046  1.0000
  H   H2337     1.0  0.55656  0.43841  0.13579  1.0000
  C   C2347     1.0  0.75963  0.43913  0.04724  1.0000
  C   C2348     1.0  0.77163  0.43455  0.05536  1.0000
  C   C2349     1.0  0.78680  0.42769  0.04837  1.0000
  C   C2350     1.0  0.78996  0.42561  0.03321  1.0000
  C   C2351     1.0  0.77803  0.43054  0.02497  1.0000
  C   C2352     1.0  0.76287  0.43737  0.03196  1.0000
  H   H2338     1.0  0.76909  0.43576  0.06723  1.0000
  H   H2339     1.0  0.79587  0.42336  0.05495  1.0000
  H   H2340     1.0  0.78037  0.42850  0.01342  1.0000
  H   H2341     1.0  0.75364  0.44081  0.02567  1.0000
  C   C2353     1.0  0.66113  0.44294  0.05333  1.0000
  C   C2354     1.0  0.64994  0.43804  0.06642  1.0000
  C   C2355     1.0  0.63684  0.44897  0.07207  1.0000
  H   H2342     1.0  0.49966  0.30031  0.02559  1.0000
  H   H2343     1.0  0.79068  0.39178  0.99236  1.0000
  C   C2356     1.0  0.65902  0.45863  0.04570  1.0000
  H   H2344     1.0  0.65161  0.42593  0.07244  1.0000
  H   H2345     1.0  0.62840  0.44526  0.08239  1.0000
  H   H2346     1.0  0.73010  0.40188  0.97745  1.0000
  C   C2357     1.0  0.52271  0.28891  0.13851  1.0000
  H   H2347     1.0  0.51352  0.29617  0.14598  1.0000
  C   C2358     1.0  0.59083  0.01383  0.16379  1.0000
  S   S810      1.0  0.57804  0.45713  0.13406  1.0000
  C   C2359     1.0  0.57034  0.23394  0.98947  1.0000
  S   S811      1.0  0.60830  0.41905  0.13604  1.0000
  S   S812      1.0  0.55103  0.45798  0.10631  1.0000
  S   S813      1.0  0.69578  0.46197  0.01348  1.0000
  Fe  Fe407     1.0  0.58913  0.47791  0.12472  1.0000
  Fe  Fe408     1.0  0.85022  0.40972  0.14176  1.0000
  H   H2348     1.0  0.62550  0.38893  0.14818  1.0000
  C   C2360     1.0  0.64580  0.46944  0.05108  1.0000
  H   H2349     1.0  0.63532  0.43249  0.11957  1.0000
  C   C2361     1.0  0.70946  0.42908  0.99291  1.0000
  Fe  Fe409     1.0  0.67410  0.33665  0.15550  1.0000
  H   H2350     1.0  0.78844  0.31619  0.10753  1.0000
  C   C2362     1.0  0.62129  0.43736  0.15774  1.0000
  H   H2351     1.0  0.69273  0.41449  0.99999  1.0000
  H   H2352     1.0  0.71097  0.42740  0.00454  1.0000
  H   H2353     1.0  0.94291  0.38695  0.09787  1.0000
  H   H2354     1.0  0.59008  0.21499  0.99331  1.0000
  C   C2363     1.0  0.53615  0.20505  0.10307  1.0000
  C   C2364     1.0  0.52335  0.20835  0.11522  1.0000
  C   C2365     1.0  0.51975  0.22265  0.11967  1.0000
  C   C2366     1.0  0.52876  0.23377  0.11175  1.0000
  C   C2367     1.0  0.54177  0.23025  0.09994  1.0000
  C   C2368     1.0  0.54561  0.21585  0.09579  1.0000
  H   H2355     1.0  0.51604  0.19999  0.12097  1.0000
  H   H2356     1.0  0.50965  0.22532  0.12881  1.0000
  H   H2357     1.0  0.54891  0.23865  0.09397  1.0000
  H   H2358     1.0  0.55579  0.21324  0.08680  1.0000
  C   C2369     1.0  0.62017  0.11653  0.11776  1.0000
  C   C2370     1.0  0.62871  0.11153  0.10420  1.0000
  C   C2371     1.0  0.62500  0.11962  0.08990  1.0000
  C   C2372     1.0  0.61295  0.13298  0.08897  1.0000
  C   C2373     1.0  0.60465  0.13836  0.10246  1.0000
  C   C2374     1.0  0.60816  0.13002  0.11691  1.0000
  H   H2359     1.0  0.63807  0.10120  0.10478  1.0000
  H   H2360     1.0  0.63146  0.11543  0.07951  1.0000
  H   H2361     1.0  0.59525  0.14862  0.10184  1.0000
  H   H2362     1.0  0.60161  0.13399  0.12738  1.0000
  C   C2375     1.0  0.66968  0.44841  0.99933  1.0000
  C   C2376     1.0  0.65534  0.41477  0.12542  1.0000
  H   H2363     1.0  0.58656  0.05080  0.14198  1.0000
  C   C2377     1.0  0.65477  0.27995  0.15037  1.0000
  C   C2378     1.0  0.66765  0.28286  0.15376  1.0000
  C   C2379     1.0  0.64160  0.29202  0.14874  1.0000
  C   C2380     1.0  0.63380  0.39615  0.14171  1.0000
  H   H2364     1.0  0.63181  0.29016  0.14569  1.0000
  C   C2381     1.0  0.54714  0.31464  0.13926  1.0000
  C   C2382     1.0  0.55227  0.32055  0.12342  1.0000
  C   C2383     1.0  0.56729  0.31432  0.11559  1.0000
  C   C2384     1.0  0.57705  0.30184  0.12349  1.0000
  C   C2385     1.0  0.57182  0.29572  0.13927  1.0000
  C   C2386     1.0  0.55700  0.30232  0.14721  1.0000
  H   H2365     1.0  0.54464  0.32992  0.11716  1.0000
  H   H2366     1.0  0.57132  0.31922  0.10343  1.0000
  H   H2367     1.0  0.57925  0.28608  0.14547  1.0000
  H   H2368     1.0  0.54987  0.05600  0.15766  1.0000
  C   C2387     1.0  0.61337  0.21961  0.10706  1.0000
  C   C2388     1.0  0.60389  0.20988  0.10720  1.0000
  C   C2389     1.0  0.59953  0.21032  0.09360  1.0000
  C   C2390     1.0  0.60484  0.22027  0.07968  1.0000
  C   C2391     1.0  0.61382  0.23047  0.07966  1.0000
  C   C2392     1.0  0.61801  0.23022  0.09336  1.0000
  H   H2369     1.0  0.60014  0.20176  0.11779  1.0000
  H   H2370     1.0  0.59217  0.20283  0.09394  1.0000
  H   H2371     1.0  0.61789  0.23831  0.06897  1.0000
  H   H2372     1.0  0.62546  0.23767  0.09314  1.0000
  Fe  Fe410     1.0  0.72150  0.45210  0.00781  1.0000
  S   S814      1.0  0.69707  0.32209  0.16060  1.0000
  C   C2393     1.0  0.76639  0.40328  0.99322  1.0000
  C   C2394     1.0  0.67309  0.46054  0.98662  1.0000
  Fe  Fe411     1.0  0.50139  0.29394  0.07311  1.0000
  H   H2373     1.0  0.56611  0.41112  0.08211  1.0000
  C   C2395     1.0  0.96915  0.37347  0.10834  1.0000
  H   H2374     1.0  0.58669  0.16250  0.02551  1.0000
  C   C2396     1.0  0.69721  0.40219  0.07713  1.0000
  H   H2375     1.0  0.57014  0.25688  0.03013  1.0000
  S   S815      1.0  0.87058  0.39652  0.15252  1.0000
  H   H2376     1.0  0.73295  0.47918  0.04303  1.0000
  H   H2377     1.0  0.55225  0.25907  0.01328  1.0000
  C   C2397     1.0  0.66729  0.29772  0.15561  1.0000
  C   C2398     1.0  0.57056  0.38768  0.11718  1.0000
  N   N191      1.0  0.63404  0.17831  0.10167  1.0000
  C   C2399     1.0  0.62838  0.16812  0.09744  1.0000
  C   C2400     1.0  0.63852  0.19090  0.09093  1.0000
  C   C2401     1.0  0.62713  0.17039  0.08211  1.0000
  C   C2402     1.0  0.63736  0.19355  0.07551  1.0000
  C   C2403     1.0  0.63154  0.18326  0.07113  1.0000
  C   C2404     1.0  0.63449  0.17612  0.11796  1.0000
  H   H2378     1.0  0.62469  0.15819  0.10596  1.0000
  H   H2379     1.0  0.64256  0.19927  0.09436  1.0000
  H   H2380     1.0  0.62263  0.16232  0.07876  1.0000
  H   H2381     1.0  0.64044  0.20381  0.06715  1.0000
  H   H2382     1.0  0.63024  0.18537  0.05929  1.0000
  H   H2383     1.0  0.64195  0.18321  0.11933  1.0000
  H   H2384     1.0  0.62250  0.17990  0.12479  1.0000
  H   H2385     1.0  0.63924  0.16372  0.12293  1.0000
  C   C2405     1.0  0.76611  0.35498  0.98511  1.0000
  S   S816      1.0  0.82972  0.42651  0.15234  1.0000
  C   C2406     1.0  0.54774  0.16248  0.00606  1.0000
  H   H2386     1.0  0.55332  0.29806  0.15956  1.0000
  Fe  Fe412     1.0  0.86595  0.37591  0.14729  1.0000
  H   H2387     1.0  0.53489  0.43844  0.09991  1.0000
  S   S817      1.0  0.86252  0.35434  0.16577  1.0000
  H   H2388     1.0  0.52959  0.22198  0.06879  1.0000
  C   C2407     1.0  0.63932  0.42071  0.12565  1.0000
  H   H2389     1.0  0.51482  0.36265  0.06285  1.0000
  C   C2408     1.0  0.58170  0.01546  0.14082  1.0000
  H   H2390     1.0  0.57002  0.19675  0.98773  1.0000
  Fe  Fe413     1.0  0.60117  0.44372  0.12318  1.0000
  C   C2409     1.0  0.79359  0.34644  0.98625  1.0000
  C   C2410     1.0  0.93600  0.40463  0.12717  1.0000
  H   H2391     1.0  0.65378  0.37830  0.14724  1.0000
  C   C2411     1.0  0.58606  0.00672  0.15467  1.0000
  H   H2392     1.0  0.53099  0.23839  0.01892  1.0000
  C   C2412     1.0  0.64982  0.39013  0.14125  1.0000
  Fe  Fe414     1.0  0.88501  0.39972  0.12828  1.0000
  H   H2393     1.0  0.87797  0.43216  0.13618  1.0000
  N   N192      1.0  0.57986  0.28165  0.08284  1.0000
  C   C2413     1.0  0.58199  0.27397  0.07136  1.0000
  C   C2414     1.0  0.57631  0.27426  0.09810  1.0000
  C   C2415     1.0  0.58068  0.25842  0.07509  1.0000
  C   C2416     1.0  0.57494  0.25873  0.10223  1.0000
  C   C2417     1.0  0.57708  0.25082  0.09063  1.0000
  C   C2418     1.0  0.58182  0.29774  0.07893  1.0000
  H   H2394     1.0  0.58459  0.27988  0.05926  1.0000
  H   H2395     1.0  0.57460  0.28036  0.10718  1.0000
  H   H2396     1.0  0.58245  0.25228  0.06601  1.0000
  H   H2397     1.0  0.57242  0.25282  0.11433  1.0000
  H   H2398     1.0  0.57606  0.23877  0.09367  1.0000
  H   H2399     1.0  0.59232  0.29818  0.08253  1.0000
  H   H2400     1.0  0.58321  0.30290  0.06630  1.0000
  H   H2401     1.0  0.57135  0.30516  0.08494  1.0000
  N   N193      1.0  0.84877  0.40067  0.04313  1.0000
  C   C2419     1.0  0.85964  0.39769  0.05188  1.0000
  C   C2420     1.0  0.84543  0.38873  0.03934  1.0000
  C   C2421     1.0  0.86747  0.38240  0.05707  1.0000
  C   C2422     1.0  0.85297  0.37329  0.04443  1.0000
  C   C2423     1.0  0.86397  0.37014  0.05345  1.0000
  C   C2424     1.0  0.83972  0.41655  0.03872  1.0000
  H   H2402     1.0  0.86175  0.40702  0.05560  1.0000
  H   H2403     1.0  0.83657  0.39112  0.03268  1.0000
  H   H2404     1.0  0.87547  0.38007  0.06465  1.0000
  H   H2405     1.0  0.84992  0.36378  0.04189  1.0000
  H   H2406     1.0  0.86939  0.35818  0.05803  1.0000
  H   H2407     1.0  0.84535  0.42542  0.03971  1.0000
  H   H2408     1.0  0.83847  0.41907  0.02652  1.0000
  H   H2409     1.0  0.82777  0.41781  0.04633  1.0000
  N   N194      1.0  0.71095  0.40417  0.06680  1.0000
  C   C2425     1.0  0.72031  0.41213  0.06939  1.0000
  C   C2426     1.0  0.69275  0.40780  0.09073  1.0000
  C   C2427     1.0  0.71611  0.41808  0.08278  1.0000
  C   C2428     1.0  0.70231  0.41574  0.09359  1.0000
  H   H2410     1.0  0.73128  0.41368  0.06126  1.0000
  H   H2411     1.0  0.72365  0.42433  0.08473  1.0000
  H   H2412     1.0  0.69901  0.41997  0.10421  1.0000
  H   H2413     1.0  0.70679  0.40268  0.04575  1.0000
  C   C2429     1.0  0.63438  0.44388  0.15047  1.0000
  C   C2430     1.0  0.71793  0.43834  0.98046  1.0000
  H   H2414     1.0  0.58737  0.41645  0.11592  1.0000
  H   H2415     1.0  0.89758  0.41729  0.15182  1.0000
  H   H2416     1.0  0.59396  0.42949  0.16468  1.0000
  S   S818      1.0  0.73073  0.44759  0.98384  1.0000
  H   H2417     1.0  0.75074  0.36388  0.00470  1.0000
  N   N195      1.0  0.96584  0.45440  0.15878  1.0000
  N   N196      1.0  0.59458  0.98573  0.09533  1.0000
  N   N197      1.0  0.53269  0.27640  0.14762  1.0000
  C   C2431     1.0  0.58205  0.22501  0.99733  1.0000
  S   S819      1.0  0.90712  0.40882  0.12158  1.0000
  C   C2432     1.0  0.66059  0.39950  0.13330  1.0000
  C   C2433     1.0  0.94885  0.39631  0.13383  1.0000
  C   C2434     1.0  0.83417  0.43851  0.16160  1.0000
  H   H2418     1.0  0.49735  0.30470  0.99828  1.0000
  H   H2419     1.0  0.91019  0.38148  0.14687  1.0000
  H   H2420     1.0  0.55969  0.00184  0.08504  1.0000
  C   C2435     1.0  0.92089  0.38574  0.14333  1.0000
  S   S820      1.0  0.68056  0.39234  0.13341  1.0000
  H   H2421     1.0  0.58599  0.99444  0.15825  1.0000
  C   C2436     1.0  0.57580  0.18502  0.99236  1.0000
  C   C2437     1.0  0.75383  0.34982  0.12303  1.0000
  H   H2422     1.0  0.67561  0.44552  0.00880  1.0000
  S   S821      1.0  0.68468  0.34960  0.13212  1.0000
  H   H2423     1.0  0.63077  0.31594  0.14973  1.0000
  C   C2438     1.0  0.58514  0.16576  0.01369  1.0000
  C   C2439     1.0  0.63264  0.46000  0.14748  1.0000
  H   H2424     1.0  0.51510  0.34260  0.05099  1.0000
  S   S822      1.0  0.59516  0.44754  0.10025  1.0000
  C   C2440     1.0  0.56632  0.39283  0.10279  1.0000
  C   C2441     1.0  0.75488  0.36510  0.11549  1.0000
  Fe  Fe415     1.0  0.69744  0.34150  0.17099  1.0000
  H   H2425     1.0  0.71665  0.38460  0.05672  1.0000
  S   S823      1.0  0.50656  0.36643  0.14833  1.0000
  H   H2426     1.0  0.52654  0.19594  0.97794  1.0000
  C   C2442     1.0  0.49641  0.37010  0.08135  1.0000
  C   C2443     1.0  0.54241  0.17753  0.00887  1.0000
  N   N198      1.0  0.49892  0.34736  0.07193  1.0000
  H   H2427     1.0  0.59342  0.38195  0.13608  1.0000
  S   S824      1.0  0.50813  0.35388  0.11749  1.0000
  Fe  Fe416     1.0  0.59414  0.06436  0.16693  1.0000
  C   C2444     1.0  0.50682  0.24324  0.01768  1.0000
  C   C2445     1.0  0.53458  0.11085  0.16679  1.0000
  H   H2428     1.0  0.53973  0.26231  0.13089  1.0000
  S   S825      1.0  0.70998  0.35480  0.14883  1.0000
  C   C2446     1.0  0.93381  0.37734  0.14991  1.0000
  C   C2447     1.0  0.52119  0.21676  0.06623  1.0000
  H   H2429     1.0  0.56022  0.38620  0.09929  1.0000
  H   H2430     1.0  0.52993  0.29666  0.12972  1.0000
  Fe  Fe417     1.0  0.70764  0.33660  0.13818  1.0000
  C   C2448     1.0  0.49896  0.43045  0.13763  1.0000
  C   C2449     1.0  0.58213  0.39066  0.13697  1.0000
  Fe  Fe418     1.0  0.57169  0.09502  0.15947  1.0000
  C   C2450     1.0  0.59032  0.15462  0.00446  1.0000
  H   H2431     1.0  0.91797  0.37822  0.10633  1.0000
  C   C2451     1.0  0.55960  0.24630  0.99520  1.0000
  C   C2452     1.0  0.62852  0.41145  0.13401  1.0000
  H   H2432     1.0  0.81634  0.45807  0.15415  1.0000
  C   C2453     1.0  0.94935  0.45474  0.16646  1.0000
  C   C2454     1.0  0.88100  0.43763  0.14367  1.0000
  C   C2455     1.0  0.53249  0.18659  0.98591  1.0000
  C   C2456     1.0  0.63479  0.46468  0.06435  1.0000
  S   S826      1.0  0.67335  0.35499  0.16784  1.0000
  H   H2433     1.0  0.67791  0.27359  0.15503  1.0000
  N   N199      1.0  0.68257  0.30896  0.11679  1.0000
  C   C2457     1.0  0.68285  0.29433  0.11557  1.0000
  C   C2458     1.0  0.66935  0.32050  0.11593  1.0000
  C   C2459     1.0  0.66978  0.29108  0.11298  1.0000
  C   C2460     1.0  0.65611  0.31769  0.11325  1.0000
  C   C2461     1.0  0.65637  0.30287  0.11173  1.0000
  C   C2462     1.0  0.69614  0.31216  0.11990  1.0000
  H   H2434     1.0  0.69307  0.28499  0.11692  1.0000
  H   H2435     1.0  0.66887  0.33188  0.11768  1.0000
  H   H2436     1.0  0.66984  0.27934  0.11253  1.0000
  H   H2437     1.0  0.64555  0.32679  0.11288  1.0000
  H   H2438     1.0  0.64602  0.30038  0.11015  1.0000
  H   H2439     1.0  0.70706  0.30339  0.11691  1.0000
  H   H2440     1.0  0.69836  0.32367  0.11285  1.0000
  H   H2441     1.0  0.69406  0.31222  0.13237  1.0000
  N   N200      1.0  0.53545  0.18946  0.99852  1.0000
  S   S827      1.0  0.58541  0.10918  0.16440  1.0000
  H   H2442     1.0  0.74606  0.37477  0.11936  1.0000
  C   C2463     1.0  0.58802  0.15855  0.98925  1.0000
  H   H2443     1.0  0.59594  0.14282  0.00919  1.0000
  H   H2444     1.0  0.52352  0.20409  0.07148  1.0000
  S   S828      1.0  0.57629  0.00678  0.12872  1.0000
  H   H2445     1.0  0.64263  0.46526  0.14164  1.0000
  H   H2446     1.0  0.96273  0.34875  0.13049  1.0000
  H   H2447     1.0  0.51667  0.28406  0.13256  1.0000
  H   H2448     1.0  0.79991  0.32952  0.09463  1.0000
  H   H2449     1.0  0.58490  0.23935  0.03349  1.0000
  S   S829      1.0  0.69959  0.46018  0.04839  1.0000
  S   S830      1.0  0.88239  0.37779  0.12370  1.0000
  H   H2450     1.0  0.55759  0.24149  0.14544  1.0000
  N   N201      1.0  0.57604  0.12294  0.10633  1.0000
  C   C2464     1.0  0.56855  0.13415  0.09586  1.0000
  C   C2465     1.0  0.57261  0.12403  0.12149  1.0000
  C   C2466     1.0  0.55729  0.14687  0.10054  1.0000
  C   C2467     1.0  0.56161  0.13671  0.12649  1.0000
  C   C2468     1.0  0.55389  0.14818  0.11593  1.0000
  C   C2469     1.0  0.58714  0.10923  0.10150  1.0000
  H   H2451     1.0  0.57127  0.13331  0.08382  1.0000
  H   H2452     1.0  0.57829  0.11501  0.12986  1.0000
  H   H2453     1.0  0.55112  0.15565  0.09237  1.0000
  H   H2454     1.0  0.55875  0.13734  0.13860  1.0000
  H   H2455     1.0  0.54515  0.15799  0.11967  1.0000
  H   H2456     1.0  0.58086  0.09989  0.10319  1.0000
  H   H2457     1.0  0.59325  0.11216  0.08910  1.0000
  H   H2458     1.0  0.59640  0.10470  0.10835  1.0000
  H   H2459     1.0  0.95973  0.40019  0.12970  1.0000
  H   H2460     1.0  0.49598  0.21919  0.05565  1.0000
  C   C2470     1.0  0.57770  0.18094  0.00771  1.0000
  C   C2471     1.0  0.58151  0.40973  0.11226  1.0000
  H   H2461     1.0  0.55005  0.14809  0.99026  1.0000
  C   C2472     1.0  0.92214  0.39917  0.13164  1.0000
  N   N202      1.0  0.95434  0.36824  0.11353  1.0000
  C   C2473     1.0  0.94204  0.37632  0.10667  1.0000
  C   C2474     1.0  0.95308  0.35500  0.12484  1.0000
  C   C2475     1.0  0.92789  0.37139  0.11135  1.0000
  C   C2476     1.0  0.93911  0.34972  0.12979  1.0000
  C   C2477     1.0  0.92643  0.35802  0.12302  1.0000
  C   C2478     1.0  0.54464  0.26658  0.16968  1.0000
  H   H2462     1.0  0.64481  0.43585  0.98727  1.0000
  H   H2463     1.0  0.94354  0.46601  0.16994  1.0000
  C   C2479     1.0  0.97240  0.44802  0.14601  1.0000
  H   H2464     1.0  0.93799  0.33949  0.13910  1.0000
  H   H2465     1.0  0.91539  0.35429  0.12702  1.0000
  S   S831      1.0  0.61877  0.47868  0.07116  1.0000
  C   C2480     1.0  0.55301  0.25336  0.16394  1.0000
  H   H2466     1.0  0.51077  0.23009  0.09057  1.0000
  H   H2467     1.0  0.93701  0.41503  0.11813  1.0000
  H   H2468     1.0  0.52905  0.07900  0.16408  1.0000
  H   H2469     1.0  0.82725  0.36682  0.16092  1.0000
  Fe  Fe419     1.0  0.60447  0.46913  0.09413  1.0000
  H   H2470     1.0  0.76345  0.32566  0.12294  1.0000
  C   C2481     1.0  0.60548  0.98898  0.10250  1.0000
  Fe  Fe420     1.0  0.98878  0.40627  0.16441  1.0000
  Fe  Fe421     1.0  0.98356  0.38247  0.15045  1.0000
  H   H2471     1.0  0.72912  0.48158  0.97897  1.0000
  N   N203      1.0  0.65953  0.43980  0.99954  1.0000
  H   H2472     1.0  0.66344  0.41544  0.00826  1.0000
  C   C2482     1.0  0.53761  0.17167  0.98277  1.0000
  H   H2473     1.0  0.52361  0.21854  0.05341  1.0000
  C   C2483     1.0  0.51906  0.24343  0.02398  1.0000
  C   C2484     1.0  0.84595  0.43303  0.17010  1.0000
  C   C2485     1.0  0.61793  0.46933  0.15198  1.0000
  H   H2474     1.0  0.55411  0.15324  0.01379  1.0000
  H   H2475     1.0  0.97687  0.36800  0.09873  1.0000
  S   S832      1.0  0.54944  0.10562  0.15125  1.0000
  C   C2486     1.0  0.56965  0.40680  0.09314  1.0000
  C   C2487     1.0  0.64111  0.30673  0.15087  1.0000
  H   H2476     1.0  0.57853  0.03822  0.12563  1.0000
  C   C2488     1.0  0.76705  0.36785  0.10264  1.0000
  N   N204      1.0  0.77685  0.34026  0.10494  1.0000
  C   C2489     1.0  0.77803  0.35521  0.09755  1.0000
  H   H2477     1.0  0.82349  0.39196  0.16812  1.0000
  H   H2478     1.0  0.78739  0.35740  0.08751  1.0000
  C   C2490     1.0  0.78787  0.32729  0.09866  1.0000
  H   H2479     1.0  0.64575  0.43646  0.14703  1.0000
  S   S833      1.0  0.59381  0.14398  0.97841  1.0000
  N   N205      1.0  0.57237  0.24080  0.01636  1.0000
  C   C2491     1.0  0.56080  0.24959  0.00875  1.0000
  C   C2492     1.0  0.58277  0.22847  0.01097  1.0000
  C   C2493     1.0  0.51906  0.11588  0.16516  1.0000
  H   H2480     1.0  0.66364  0.42204  0.11919  1.0000
  H   H2481     1.0  0.51869  0.20734  0.00841  1.0000
  S   S834      1.0  0.96472  0.37041  0.15135  1.0000
  H   H2482     1.0  0.93302  0.36662  0.15854  1.0000
  H   H2483     1.0  0.59148  0.22101  0.01737  1.0000
  C   C2494     1.0  0.87363  0.45295  0.14475  1.0000
  C   C2495     1.0  0.81631  0.37147  0.16826  1.0000
  H   H2484     1.0  0.64111  0.08573  0.16772  1.0000
  N   N206      1.0  0.57785  0.39624  0.12182  1.0000
  Fe  Fe422     1.0  0.57259  0.46205  0.11065  1.0000
  C   C2496     1.0  0.81414  0.38563  0.17241  1.0000
  C   C2497     1.0  0.71559  0.39741  0.05307  1.0000
  C   C2498     1.0  0.54098  0.26353  0.14184  1.0000
  S   S835      1.0  0.72709  0.32614  0.12048  1.0000
  C   C2499     1.0  0.54626  0.44009  0.11684  1.0000
  H   H2485     1.0  0.67717  0.29983  0.15841  1.0000
  H   H2486     1.0  0.66754  0.46252  0.03561  1.0000
  C   C2500     1.0  0.51593  0.25074  0.03632  1.0000
  S   S836      1.0  0.53161  0.25197  0.04306  1.0000
  H   H2487     1.0  0.53892  0.20734  0.00710  1.0000
  H   H2488     1.0  0.71473  0.35933  0.11371  1.0000
  C   C2501     1.0  0.58190  0.03139  0.13632  1.0000
  C   C2502     1.0  0.76486  0.33746  0.11745  1.0000
  S   S837      1.0  0.59672  0.03826  0.17136  1.0000
  H   H2489     1.0  0.72723  0.39932  0.04594  1.0000
  S   S838      1.0  0.56942  0.19470  0.01948  1.0000
  C   C2503     1.0  0.65393  0.30965  0.15427  1.0000
  H   H2490     1.0  0.68161  0.46693  0.98622  1.0000
  C   C2504     1.0  0.94791  0.38245  0.14498  1.0000
  H   H2491     1.0  0.61636  0.48190  0.14968  1.0000
  C   C2505     1.0  0.87753  0.45976  0.15457  1.0000
  C   C2506     1.0  0.50748  0.33682  0.06144  1.0000
  H   H2492     1.0  0.66128  0.42649  0.02248  1.0000
  H   H2493     1.0  0.50862  0.42001  0.15787  1.0000
  H   H2494     1.0  0.76533  0.40841  0.00288  1.0000
  C   C2507     1.0  0.53440  0.27804  0.16135  1.0000
  N   N207      1.0  0.50496  0.22402  0.07246  1.0000
  C   C2508     1.0  0.78159  0.34869  0.97847  1.0000
  N   N208      1.0  0.60684  0.44664  0.16175  1.0000
  H   H2495     1.0  0.49922  0.33267  0.05745  1.0000
  C   C2509     1.0  0.50043  0.25688  0.04307  1.0000
  H   H2496     1.0  0.62271  0.42482  0.15993  1.0000
  H   H2497     1.0  0.49791  0.26227  0.05279  1.0000
  H   H2498     1.0  0.96708  0.38636  0.10435  1.0000
  C   C2510     1.0  0.82882  0.46381  0.16775  1.0000
  N   N209      1.0  0.89601  0.43610  0.16199  1.0000
  H   H2499     1.0  0.59435  0.00694  0.17439  1.0000
  H   H2500     1.0  0.55027  0.25312  0.98929  1.0000
  C   C2511     1.0  0.54646  0.05799  0.16936  1.0000
  C   C2512     1.0  0.58087  0.17385  0.98317  1.0000
  C   C2513     1.0  0.57049  0.99340  0.08651  1.0000
  C   C2514     1.0  0.82549  0.45382  0.16064  1.0000
  Fe  Fe423     1.0  0.49505  0.37440  0.12800  1.0000
  H   H2501     1.0  0.85253  0.42112  0.17104  1.0000
  H   H2502     1.0  0.86459  0.45937  0.13835  1.0000
  H   H2503     1.0  0.74318  0.47403  0.06662  1.0000
  H   H2504     1.0  0.96541  0.44346  0.14127  1.0000
  H   H2505     1.0  0.56102  0.24443  0.17028  1.0000
  H   H2506     1.0  0.87144  0.47149  0.15591  1.0000
  S   S839      1.0  0.72753  0.46908  0.01747  1.0000
  S   S840      1.0  0.75090  0.35885  0.97533  1.0000
  C   C2515     1.0  0.50060  0.41939  0.15140  1.0000
  C   C2516     1.0  0.80455  0.36304  0.17414  1.0000
  C   C2517     1.0  0.50151  0.23010  0.08531  1.0000
  H   H2507     1.0  0.62788  0.10455  0.16733  1.0000
  C   C2518     1.0  0.97484  0.45959  0.16508  1.0000
  C   C2519     1.0  0.63938  0.09756  0.16976  1.0000
  H   H2508     1.0  0.64422  0.48153  0.04501  1.0000
  C   C2520     1.0  0.75347  0.40565  0.98679  1.0000
  H   H2509     1.0  0.53119  0.21415  0.99002  1.0000
  H   H2510     1.0  0.94265  0.45317  0.15882  1.0000
  C   C2521     1.0  0.99080  0.45868  0.15844  1.0000
  H   H2511     1.0  0.60334  0.98350  0.11507  1.0000
  S   S841      1.0  0.99011  0.38074  0.17275  1.0000
  H   H2512     1.0  0.56940  0.23110  0.97912  1.0000
  H   H2513     1.0  0.91757  0.41997  0.16451  1.0000
  H   H2514     1.0  0.59369  0.46980  0.16257  1.0000
  H   H2515     1.0  0.74244  0.41279  0.99151  1.0000
  H   H2516     1.0  0.50720  0.38904  0.16897  1.0000
  C   C2522     1.0  0.49325  0.22400  0.06585  1.0000
  C   C2523     1.0  0.59333  0.43953  0.16956  1.0000
  C   C2524     1.0  0.49495  0.39600  0.17065  1.0000
  C   C2525     1.0  0.90739  0.42689  0.17146  1.0000
  H   H2517     1.0  0.58215  0.44793  0.16787  1.0000
  Fe  Fe424     1.0  0.70165  0.47701  0.02546  1.0000
  N   N210      1.0  0.49268  0.40760  0.15634  1.0000
  Fe  Fe425     1.0  0.61762  0.15058  0.23426  1.0000
  S   S842      1.0  0.59436  0.16616  0.24137  1.0000
  S   S843      1.0  0.62245  0.14291  0.21173  1.0000
  Fe  Fe426     1.0  0.62886  0.15062  0.26287  1.0000
  S   S844      1.0  0.60612  0.16566  0.27235  1.0000
  S   S845      1.0  0.64971  0.14263  0.27431  1.0000
  Fe  Fe427     1.0  0.59482  0.15082  0.26504  1.0000
  S   S846      1.0  0.57436  0.13963  0.27746  1.0000
  Fe  Fe428     1.0  0.60807  0.17941  0.24771  1.0000
  S   S847      1.0  0.60437  0.20537  0.24425  1.0000
  S   S848      1.0  0.61744  0.13440  0.25757  1.0000
  S   S849      1.0  0.63147  0.16522  0.23855  1.0000
  S   S850      1.0  0.77981  0.43056  0.27811  1.0000
  S   S851      1.0  0.79427  0.41290  0.31783  1.0000
  Fe  Fe429     1.0  0.89039  0.45350  0.20991  1.0000
  S   S852      1.0  0.96855  0.46971  0.26278  1.0000
  C   C2526     1.0  0.64149  0.18928  0.26023  1.0000
  H   H2518     1.0  0.61892  0.24486  0.18434  1.0000
  C   C2527     1.0  0.50786  0.04443  0.22330  1.0000
  S   S853      1.0  0.88141  0.44696  0.23575  1.0000
  H   H2519     1.0  0.79116  0.29620  0.31905  1.0000
  C   C2528     1.0  0.85401  0.41223  0.26209  1.0000
  H   H2520     1.0  0.86784  0.41518  0.29173  1.0000
  C   C2529     1.0  0.52458  0.99574  0.20040  1.0000
  H   H2521     1.0  0.50399  0.00193  0.24315  1.0000
  H   H2522     1.0  0.63961  0.24229  0.18105  1.0000
  Fe  Fe430     1.0  0.76066  0.24274  0.36505  1.0000
  C   C2530     1.0  0.51339  0.08574  0.31342  1.0000
  C   C2531     1.0  0.61184  0.27284  0.18930  1.0000
  H   H2523     1.0  0.59303  0.43542  0.18216  1.0000
  C   C2532     1.0  0.55433  0.12410  0.20809  1.0000
  H   H2524     1.0  0.55213  0.03056  0.21374  1.0000
  C   C2533     1.0  0.78194  0.98331  0.35377  1.0000
  H   H2525     1.0  0.94196  0.46376  0.19840  1.0000
  Fe  Fe431     1.0  0.78679  0.45745  0.31511  1.0000
  H   H2526     1.0  0.73793  0.26455  0.33586  1.0000
  H   H2527     1.0  0.95305  0.41100  0.21994  1.0000
  H   H2528     1.0  0.98485  0.40603  0.25428  1.0000
  C   C2534     1.0  0.78711  0.11697  0.32187  1.0000
  C   C2535     1.0  0.85969  0.41411  0.28569  1.0000
  S   S854      1.0  0.75697  0.98410  0.34194  1.0000
  C   C2536     1.0  0.66818  0.11677  0.34981  1.0000
  C   C2537     1.0  0.90812  0.46613  0.25310  1.0000
  Fe  Fe432     1.0  0.68717  0.16230  0.36152  1.0000
  S   S855      1.0  0.67662  0.18612  0.34916  1.0000
  S   S856      1.0  0.49525  0.11810  0.20882  1.0000
  Fe  Fe433     1.0  0.71012  0.15474  0.33232  1.0000
  S   S857      1.0  0.70134  0.17784  0.31746  1.0000
  S   S858      1.0  0.73033  0.13714  0.32240  1.0000
  Fe  Fe434     1.0  0.70154  0.18760  0.33733  1.0000
  S   S859      1.0  0.71161  0.20907  0.33164  1.0000
  Fe  Fe435     1.0  0.67738  0.17414  0.33055  1.0000
  S   S860      1.0  0.65551  0.17909  0.32120  1.0000
  S   S861      1.0  0.71202  0.16467  0.35122  1.0000
  S   S862      1.0  0.68623  0.15025  0.34379  1.0000
  H   H2529     1.0  0.78157  0.36235  0.18870  1.0000
  C   C2538     1.0  0.63900  0.09645  0.21632  1.0000
  H   H2530     1.0  0.52135  0.01380  0.25065  1.0000
  Fe  Fe436     1.0  0.79859  0.07091  0.35892  1.0000
  S   S863      1.0  0.78591  0.06055  0.34783  1.0000
  S   S864      1.0  0.80915  0.09201  0.34763  1.0000
  S   S865      1.0  0.50000  0.14680  0.37191  1.0000
  S   S866      1.0  0.99162  0.43942  0.24986  1.0000
  Fe  Fe437     1.0  0.79525  0.03778  0.36294  1.0000
  S   S867      1.0  0.80438  0.01471  0.35580  1.0000
  Fe  Fe438     1.0  0.50761  0.11319  0.35097  1.0000
  C   C2539     1.0  0.64624  0.10688  0.20414  1.0000
  S   S868      1.0  0.97643  0.42111  0.18159  1.0000
  C   C2540     1.0  0.58518  0.24184  0.21395  1.0000
  C   C2541     1.0  0.75611  0.46925  0.34704  1.0000
  C   C2542     1.0  0.81091  0.42313  0.24118  1.0000
  H   H2531     1.0  0.85605  0.38083  0.17941  1.0000
  C   C2543     1.0  0.81924  0.22047  0.34997  1.0000
  H   H2532     1.0  0.84403  0.44360  0.26671  1.0000
  C   C2544     1.0  0.59588  0.10832  0.20940  1.0000
  H   H2533     1.0  0.97020  0.43290  0.20838  1.0000
  S   S869      1.0  0.52731  0.12186  0.35316  1.0000
  S   S870      1.0  0.52517  0.16453  0.33360  1.0000
  C   C2545     1.0  0.76478  0.47832  0.34965  1.0000
  C   C2546     1.0  0.62055  0.20649  0.27467  1.0000
  C   C2547     1.0  0.83452  0.19523  0.36023  1.0000
  C   C2548     1.0  0.60369  0.21191  0.21311  1.0000
  H   H2534     1.0  0.60268  0.11607  0.18463  1.0000
  C   C2549     1.0  0.66781  0.18187  0.26437  1.0000
  C   C2550     1.0  0.50509  0.01376  0.23754  1.0000
  H   H2535     1.0  0.56492  0.09176  0.32949  1.0000
  H   H2536     1.0  0.82236  0.46329  0.25679  1.0000
  C   C2551     1.0  0.97105  0.40569  0.23290  1.0000
  S   S871      1.0  0.52558  0.08953  0.23437  1.0000
  H   H2537     1.0  0.65916  0.12795  0.32909  1.0000
  Fe  Fe439     1.0  0.51589  0.06798  0.24430  1.0000
  Fe  Fe440     1.0  0.51523  0.09444  0.25813  1.0000
  S   S872      1.0  0.52784  0.10552  0.26837  1.0000
  C   C2552     1.0  0.55455  0.09645  0.32417  1.0000
  C   C2553     1.0  0.53202  0.99210  0.21272  1.0000
  H   H2538     1.0  0.56733  0.08881  0.26623  1.0000
  H   H2539     1.0  0.72572  0.27744  0.34832  1.0000
  S   S873      1.0  0.91544  0.45317  0.19744  1.0000
  Fe  Fe441     1.0  0.85840  0.46210  0.20298  1.0000
  C   C2554     1.0  0.63213  0.08621  0.21309  1.0000
  S   S874      1.0  0.87664  0.43996  0.20411  1.0000
  H   H2540     1.0  0.57222  0.11110  0.29937  1.0000
  Fe  Fe442     1.0  0.96829  0.45481  0.24733  1.0000
  H   H2541     1.0  0.52263  0.17061  0.36441  1.0000
  S   S875      1.0  0.94894  0.44240  0.25174  1.0000
  S   S876      1.0  0.97844  0.17816  0.36096  1.0000
  S   S877      1.0  0.70495  0.33505  0.19386  1.0000
  H   H2542     1.0  0.74706  0.15648  0.33802  1.0000
  Fe  Fe443     1.0  0.77685  0.33611  0.24843  1.0000
  S   S878      1.0  0.75208  0.34987  0.24954  1.0000
  S   S879      1.0  0.78285  0.31079  0.26000  1.0000
  Fe  Fe444     1.0  0.79107  0.36415  0.23181  1.0000
  S   S880      1.0  0.76755  0.38021  0.23190  1.0000
  S   S881      1.0  0.81128  0.37607  0.22245  1.0000
  Fe  Fe445     1.0  0.76067  0.36721  0.25630  1.0000
  S   S882      1.0  0.74794  0.37788  0.27687  1.0000
  Fe  Fe446     1.0  0.76133  0.36152  0.22494  1.0000
  S   S883      1.0  0.74919  0.37126  0.20489  1.0000
  S   S884      1.0  0.78476  0.35266  0.25685  1.0000
  S   S885      1.0  0.78550  0.34623  0.22309  1.0000
  C   C2555     1.0  0.57110  0.10082  0.28151  1.0000
  Fe  Fe447     1.0  0.50152  0.10121  0.23014  1.0000
  C   C2556     1.0  0.73122  0.36620  0.18825  1.0000
  Fe  Fe448     1.0  0.84700  0.15426  0.37287  1.0000
  C   C2557     1.0  0.70815  0.38044  0.22286  1.0000
  C   C2558     1.0  0.77085  0.45911  0.37179  1.0000
  Fe  Fe449     1.0  0.78384  0.43261  0.30042  1.0000
  H   H2543     1.0  0.87653  0.41391  0.26387  1.0000
  S   S886      1.0  0.75011  0.29609  0.33119  1.0000
  H   H2544     1.0  0.60172  0.26844  0.18996  1.0000
  C   C2559     1.0  0.84407  0.41416  0.29336  1.0000
  S   S887      1.0  0.83723  0.41747  0.31222  1.0000
  S   S888      1.0  0.77220  0.25153  0.34035  1.0000
  H   H2545     1.0  0.66026  0.17317  0.24881  1.0000
  N   N211      1.0  0.98501  0.39628  0.23565  1.0000
  C   C2560     1.0  0.75738  0.11976  0.35903  1.0000
  C   C2561     1.0  0.70322  0.35190  0.24137  1.0000
  C   C2562     1.0  0.56714  0.14090  0.21479  1.0000
  H   H2546     1.0  0.55680  0.13722  0.36764  1.0000
  C   C2563     1.0  0.98525  0.38137  0.21780  1.0000
  S   S889      1.0  0.86335  0.14304  0.35389  1.0000
  H   H2547     1.0  0.55010  0.10566  0.18233  1.0000
  H   H2548     1.0  0.91734  0.13257  0.35514  1.0000
  H   H2549     1.0  0.65097  0.11537  0.20658  1.0000
  H   H2550     1.0  0.98649  0.44144  0.22011  1.0000
  Fe  Fe450     1.0  0.88227  0.14957  0.36054  1.0000
  S   S890      1.0  0.89979  0.16379  0.34549  1.0000
  C   C2564     1.0  0.94898  0.14537  0.35545  1.0000
  C   C2565     1.0  0.93959  0.13503  0.35689  1.0000
  C   C2566     1.0  0.92439  0.14066  0.35417  1.0000
  C   C2567     1.0  0.91861  0.15667  0.34959  1.0000
  C   C2568     1.0  0.92801  0.16705  0.34807  1.0000
  C   C2569     1.0  0.94311  0.16142  0.35120  1.0000
  C   C2570     1.0  0.73090  0.20600  0.36759  1.0000
  H   H2551     1.0  0.92362  0.17944  0.34449  1.0000
  H   H2552     1.0  0.95032  0.16947  0.34997  1.0000
  H   H2553     1.0  0.63302  0.18832  0.25448  1.0000
  C   C2571     1.0  0.80675  0.21360  0.35182  1.0000
  C   C2572     1.0  0.80818  0.19756  0.35771  1.0000
  C   C2573     1.0  0.82205  0.18835  0.36193  1.0000
  C   C2574     1.0  0.98236  0.43259  0.20287  1.0000
  H   H2554     1.0  0.79603  0.22061  0.34846  1.0000
  H   H2555     1.0  0.67533  0.10902  0.37171  1.0000
  S   S891      1.0  0.76663  0.41434  0.35785  1.0000
  H   H2556     1.0  0.96982  0.46390  0.17566  1.0000
  H   H2557     1.0  0.70957  0.26232  0.32469  1.0000
  H   H2558     1.0  0.94408  0.12261  0.36010  1.0000
  C   C2575     1.0  0.77318  0.30647  0.27960  1.0000
  C   C2576     1.0  0.76122  0.31768  0.28611  1.0000
  C   C2577     1.0  0.75381  0.31417  0.30185  1.0000
  C   C2578     1.0  0.75862  0.29959  0.31124  1.0000
  C   C2579     1.0  0.77055  0.28835  0.30474  1.0000
  C   C2580     1.0  0.77772  0.29175  0.28891  1.0000
  H   H2559     1.0  0.75770  0.32909  0.27907  1.0000
  H   H2560     1.0  0.74460  0.32292  0.30682  1.0000
  H   H2561     1.0  0.77434  0.27707  0.31188  1.0000
  H   H2562     1.0  0.78695  0.28304  0.28389  1.0000
  C   C2581     1.0  0.82605  0.36904  0.20756  1.0000
  C   C2582     1.0  0.82736  0.35461  0.20434  1.0000
  C   C2583     1.0  0.83906  0.34971  0.19191  1.0000
  H   H2563     1.0  0.91642  0.45812  0.26020  1.0000
  S   S892      1.0  0.57291  0.07690  0.18143  1.0000
  C   C2584     1.0  0.83654  0.37838  0.19855  1.0000
  H   H2564     1.0  0.81943  0.34723  0.21139  1.0000
  C   C2585     1.0  0.72578  0.27100  0.33969  1.0000
  H   H2565     1.0  0.71464  0.39582  0.24100  1.0000
  H   H2566     1.0  0.83563  0.38953  0.20092  1.0000
  H   H2567     1.0  0.69187  0.35083  0.22410  1.0000
  C   C2586     1.0  0.70438  0.24158  0.36790  1.0000
  C   C2587     1.0  0.53852  0.06297  0.19923  1.0000
  C   C2588     1.0  0.51495  0.02045  0.24175  1.0000
  N   N212      1.0  0.63983  0.09678  0.18577  1.0000
  H   H2568     1.0  0.62595  0.07844  0.22246  1.0000
  H   H2569     1.0  0.84273  0.21664  0.35297  1.0000
  H   H2570     1.0  0.79152  0.42417  0.36400  1.0000
  C   C2589     1.0  0.84206  0.45426  0.28549  1.0000
  H   H2571     1.0  0.57787  0.15532  0.22183  1.0000
  H   H2572     1.0  0.91198  0.43440  0.17599  1.0000
  H   H2573     1.0  0.56288  0.03780  0.17809  1.0000
  N   N213      1.0  0.55720  0.13089  0.21944  1.0000
  H   H2574     1.0  0.96604  0.38945  0.20611  1.0000
  C   C2590     1.0  0.84922  0.35937  0.18255  1.0000
  C   C2591     1.0  0.53811  0.10918  0.18110  1.0000
  H   H2575     1.0  0.50881  0.05630  0.21781  1.0000
  S   S893      1.0  0.49372  0.13700  0.34244  1.0000
  C   C2592     1.0  0.92671  0.44812  0.21139  1.0000
  C   C2593     1.0  0.92263  0.43775  0.22542  1.0000
  C   C2594     1.0  0.93006  0.43552  0.23753  1.0000
  C   C2595     1.0  0.94148  0.44378  0.23568  1.0000
  H   H2576     1.0  0.91360  0.43155  0.22701  1.0000
  H   H2577     1.0  0.92655  0.42779  0.24853  1.0000
  H   H2578     1.0  0.55910  0.04627  0.21579  1.0000
  H   H2579     1.0  0.75233  0.35913  0.31232  1.0000
  C   C2596     1.0  0.51697  0.08871  0.29719  1.0000
  C   C2597     1.0  0.52149  0.10255  0.28854  1.0000
  C   C2598     1.0  0.52195  0.11362  0.29613  1.0000
  C   C2599     1.0  0.51802  0.11080  0.31237  1.0000
  C   C2600     1.0  0.49840  0.03758  0.21875  1.0000
  H   H2580     1.0  0.56419  0.12383  0.19775  1.0000
  H   H2581     1.0  0.52535  0.12438  0.28944  1.0000
  H   H2582     1.0  0.51845  0.11931  0.31824  1.0000
  C   C2601     1.0  0.82492  0.09344  0.35438  1.0000
  C   C2602     1.0  0.83493  0.08014  0.36094  1.0000
  H   H2583     1.0  0.53208  0.00118  0.21812  1.0000
  C   C2603     1.0  0.85005  0.09635  0.36486  1.0000
  C   C2604     1.0  0.83995  0.10966  0.35844  1.0000
  C   C2605     1.0  0.82753  0.10819  0.35305  1.0000
  H   H2584     1.0  0.83317  0.06872  0.36179  1.0000
  S   S894      1.0  0.74952  0.26642  0.37021  1.0000
  H   H2585     1.0  0.84174  0.12108  0.35755  1.0000
  H   H2586     1.0  0.81988  0.11853  0.34795  1.0000
  C   C2606     1.0  0.82213  0.47787  0.28653  1.0000
  H   H2587     1.0  0.83736  0.46774  0.30272  1.0000
  C   C2607     1.0  0.83418  0.46673  0.29260  1.0000
  C   C2608     1.0  0.78996  0.00647  0.35385  1.0000
  C   C2609     1.0  0.77703  0.01579  0.34786  1.0000
  C   C2610     1.0  0.76674  0.00882  0.34456  1.0000
  Fe  Fe451     1.0  0.79223  0.25138  0.35017  1.0000
  H   H2588     1.0  0.79853  0.19228  0.35895  1.0000
  H   H2589     1.0  0.77528  0.02835  0.34525  1.0000
  H   H2590     1.0  0.75698  0.01605  0.33955  1.0000
  C   C2611     1.0  0.72364  0.21086  0.34288  1.0000
  C   C2612     1.0  0.73303  0.22191  0.33668  1.0000
  C   C2613     1.0  0.74113  0.22519  0.34594  1.0000
  C   C2614     1.0  0.73981  0.21749  0.36153  1.0000
  H   H2591     1.0  0.90371  0.47623  0.22408  1.0000
  C   C2615     1.0  0.72286  0.20266  0.35829  1.0000
  H   H2592     1.0  0.73374  0.22824  0.32474  1.0000
  H   H2593     1.0  0.74808  0.23393  0.34110  1.0000
  N   N214      1.0  0.77218  0.47311  0.36178  1.0000
  H   H2594     1.0  0.71557  0.19420  0.36321  1.0000
  C   C2616     1.0  0.73257  0.11863  0.33483  1.0000
  C   C2617     1.0  0.72116  0.11524  0.34828  1.0000
  C   C2618     1.0  0.72340  0.10056  0.35836  1.0000
  C   C2619     1.0  0.73737  0.08953  0.35549  1.0000
  C   C2620     1.0  0.74873  0.09285  0.34197  1.0000
  C   C2621     1.0  0.74617  0.10727  0.33149  1.0000
  H   H2595     1.0  0.71059  0.12387  0.35091  1.0000
  C   C2622     1.0  0.62831  0.24667  0.18870  1.0000
  H   H2596     1.0  0.75937  0.08427  0.33945  1.0000
  H   H2597     1.0  0.75489  0.10976  0.32096  1.0000
  C   C2623     1.0  0.71895  0.34410  0.19550  1.0000
  C   C2624     1.0  0.63909  0.26864  0.18782  1.0000
  C   C2625     1.0  0.56184  0.14429  0.24099  1.0000
  C   C2626     1.0  0.73861  0.36003  0.20083  1.0000
  C   C2627     1.0  0.73658  0.34562  0.21045  1.0000
  C   C2628     1.0  0.72674  0.33768  0.20779  1.0000
  H   H2598     1.0  0.79406  0.47583  0.36329  1.0000
  H   H2599     1.0  0.75072  0.47322  0.33707  1.0000
  H   H2600     1.0  0.74227  0.34075  0.22015  1.0000
  H   H2601     1.0  0.72488  0.32670  0.21547  1.0000
  H   H2602     1.0  0.85811  0.43872  0.18407  1.0000
  Fe  Fe452     1.0  0.51230  0.14567  0.34734  1.0000
  C   C2629     1.0  0.72143  0.35825  0.18557  1.0000
  C   C2630     1.0  0.98877  0.42701  0.18935  1.0000
  H   H2603     1.0  0.64765  0.28870  0.18694  1.0000
  S   S895      1.0  0.80234  0.44591  0.29620  1.0000
  N   N215      1.0  0.54377  0.15948  0.37230  1.0000
  H   H2604     1.0  0.51859  0.00764  0.19635  1.0000
  Fe  Fe453     1.0  0.58886  0.08969  0.18504  1.0000
  C   C2631     1.0  0.74910  0.13514  0.35553  1.0000
  Fe  Fe454     1.0  0.86269  0.46864  0.23203  1.0000
  C   C2632     1.0  0.93882  0.45565  0.20918  1.0000
  H   H2605     1.0  0.76916  0.14571  0.31864  1.0000
  H   H2606     1.0  0.57341  0.14348  0.20280  1.0000
  H   H2607     1.0  0.80145  0.42625  0.25069  1.0000
  H   H2608     1.0  0.80484  0.41406  0.17727  1.0000
  S   S896      1.0  0.51054  0.09245  0.34120  1.0000
  C   C2633     1.0  0.65693  0.18087  0.25682  1.0000
  C   C2634     1.0  0.76929  0.99254  0.34733  1.0000
  H   H2609     1.0  0.75186  0.33709  0.33558  1.0000
  N   N216      1.0  0.82278  0.38199  0.36749  1.0000
  C   C2635     1.0  0.81046  0.39560  0.25250  1.0000
  Fe  Fe455     1.0  0.76640  0.06295  0.36880  1.0000
  C   C2636     1.0  0.80547  0.48145  0.32641  1.0000
  H   H2610     1.0  0.59838  0.29633  0.18930  1.0000
  H   H2611     1.0  0.80113  0.39293  0.24870  1.0000
  C   C2637     1.0  0.79567  0.30629  0.31090  1.0000
  N   N217      1.0  0.78376  0.32081  0.31138  1.0000
  C   C2638     1.0  0.80178  0.37350  0.36352  1.0000
  N   N218      1.0  0.80060  0.39124  0.18210  1.0000
  H   H2612     1.0  0.65160  0.11552  0.17951  1.0000
  C   C2639     1.0  0.76130  0.34845  0.31223  1.0000
  N   N219      1.0  0.63695  0.19822  0.27105  1.0000
  C   C2640     1.0  0.81841  0.38710  0.34180  1.0000
  C   C2641     1.0  0.66813  0.11805  0.36459  1.0000
  C   C2642     1.0  0.83859  0.41163  0.26995  1.0000
  H   H2613     1.0  0.69299  0.24284  0.33535  1.0000
  H   H2614     1.0  0.95487  0.45998  0.21985  1.0000
  H   H2615     1.0  0.83386  0.39178  0.22795  1.0000
  H   H2616     1.0  0.79897  0.30372  0.29913  1.0000
  C   C2643     1.0  0.81686  0.98906  0.32528  1.0000
  C   C2644     1.0  0.77308  0.34692  0.29896  1.0000
  C   C2645     1.0  0.76106  0.33614  0.32522  1.0000
  H   H2617     1.0  0.80791  0.46901  0.32748  1.0000
  C   C2646     1.0  0.83782  0.45306  0.27250  1.0000
  H   H2618     1.0  0.61076  0.20031  0.21281  1.0000
  H   H2619     1.0  0.51034  0.07482  0.32011  1.0000
  C   C2647     1.0  0.50697  0.11870  0.17802  1.0000
  H   H2620     1.0  0.62155  0.30663  0.18767  1.0000
  S   S897      1.0  0.80990  0.04790  0.37203  1.0000
  C   C2648     1.0  0.51623  0.03584  0.23474  1.0000
  C   C2649     1.0  0.81055  0.37460  0.37330  1.0000
  C   C2650     1.0  0.97113  0.39106  0.21476  1.0000
  S   S898      1.0  0.52842  0.04419  0.24020  1.0000
  C   C2651     1.0  0.77080  0.41584  0.27833  1.0000
  C   C2652     1.0  0.76368  0.40698  0.29220  1.0000
  C   C2653     1.0  0.75641  0.39546  0.29177  1.0000
  C   C2654     1.0  0.75669  0.39249  0.27752  1.0000
  C   C2655     1.0  0.76400  0.40124  0.26374  1.0000
  C   C2656     1.0  0.77079  0.41303  0.26414  1.0000
  H   H2621     1.0  0.76354  0.40920  0.30319  1.0000
  H   H2622     1.0  0.75065  0.38883  0.30247  1.0000
  H   H2623     1.0  0.76403  0.39927  0.25272  1.0000
  H   H2624     1.0  0.77598  0.42003  0.25338  1.0000
  H   H2625     1.0  0.80536  0.39925  0.26376  1.0000
  C   C2657     1.0  0.83357  0.41282  0.28550  1.0000
  H   H2626     1.0  0.83039  0.41078  0.26391  1.0000
  H   H2627     1.0  0.82150  0.41287  0.29130  1.0000
  H   H2628     1.0  0.78636  0.00623  0.30745  1.0000
  C   C2658     1.0  0.52601  0.11174  0.19399  1.0000
  C   C2659     1.0  0.51044  0.11627  0.19251  1.0000
  Fe  Fe456     1.0  0.86654  0.12183  0.37316  1.0000
  N   N220      1.0  0.71345  0.37478  0.23633  1.0000
  C   C2660     1.0  0.99011  0.09935  0.36208  1.0000
  H   H2629     1.0  0.52869  0.11023  0.20508  1.0000
  C   C2661     1.0  0.71117  0.36064  0.24552  1.0000
  H   H2630     1.0  0.67968  0.17496  0.26225  1.0000
  H   H2631     1.0  0.69627  0.37635  0.20753  1.0000
  C   C2662     1.0  0.99157  0.43775  0.20936  1.0000
  H   H2632     1.0  0.64405  0.20643  0.28704  1.0000
  Fe  Fe457     1.0  0.81144  0.42731  0.31508  1.0000
  C   C2663     1.0  0.59887  0.21705  0.22706  1.0000
  C   C2664     1.0  0.58983  0.23211  0.22734  1.0000
  H   H2633     1.0  0.58608  0.23613  0.23807  1.0000
  S   S899      1.0  0.84448  0.47161  0.18455  1.0000
  C   C2665     1.0  0.65081  0.15179  0.28844  1.0000
  C   C2666     1.0  0.66505  0.14881  0.29300  1.0000
  C   C2667     1.0  0.66660  0.15680  0.30335  1.0000
  C   C2668     1.0  0.65385  0.16776  0.30927  1.0000
  C   C2669     1.0  0.63945  0.17024  0.30524  1.0000
  C   C2670     1.0  0.63795  0.16236  0.29482  1.0000
  H   H2634     1.0  0.67504  0.14058  0.28818  1.0000
  H   H2635     1.0  0.67774  0.15474  0.30644  1.0000
  H   H2636     1.0  0.62949  0.17858  0.30992  1.0000
  H   H2637     1.0  0.62688  0.16459  0.29160  1.0000
  C   C2671     1.0  0.56062  0.14740  0.29255  1.0000
  C   C2672     1.0  0.56238  0.15992  0.29734  1.0000
  C   C2673     1.0  0.55132  0.16545  0.30980  1.0000
  C   C2674     1.0  0.53865  0.15833  0.31754  1.0000
  C   C2675     1.0  0.53690  0.14593  0.31266  1.0000
  C   C2676     1.0  0.54776  0.14058  0.30011  1.0000
  H   H2638     1.0  0.57222  0.16532  0.29147  1.0000
  H   H2639     1.0  0.55265  0.17513  0.31351  1.0000
  H   H2640     1.0  0.52699  0.14066  0.31843  1.0000
  H   H2641     1.0  0.54611  0.13119  0.29623  1.0000
  C   C2677     1.0  0.61118  0.13040  0.21110  1.0000
  C   C2678     1.0  0.60366  0.12155  0.22470  1.0000
  C   C2679     1.0  0.59606  0.11050  0.22384  1.0000
  C   C2680     1.0  0.61057  0.12853  0.19666  1.0000
  H   H2642     1.0  0.60403  0.12295  0.23588  1.0000
  H   H2643     1.0  0.59052  0.10347  0.23439  1.0000
  H   H2644     1.0  0.61262  0.19857  0.27636  1.0000
  H   H2645     1.0  0.99119  0.37211  0.21160  1.0000
  C   C2681     1.0  0.69834  0.24594  0.34291  1.0000
  C   C2682     1.0  0.71378  0.25254  0.36155  1.0000
  N   N221      1.0  0.64983  0.14271  0.36119  1.0000
  H   H2646     1.0  0.77338  0.35649  0.28888  1.0000
  H   H2647     1.0  0.71063  0.39128  0.21521  1.0000
  C   C2683     1.0  0.78170  0.48243  0.36416  1.0000
  C   C2684     1.0  0.49696  0.02228  0.22591  1.0000
  C   C2685     1.0  0.82555  0.46427  0.26691  1.0000
  C   C2686     1.0  0.80618  0.00096  0.31792  1.0000
  C   C2687     1.0  0.79077  0.36885  0.18400  1.0000
  C   C2688     1.0  0.54931  0.12767  0.23457  1.0000
  C   C2689     1.0  0.75359  0.14460  0.34102  1.0000
  H   H2648     1.0  0.72473  0.37857  0.25222  1.0000
  H   H2649     1.0  0.84521  0.18824  0.36353  1.0000
  H   H2650     1.0  0.85537  0.07127  0.37089  1.0000
  C   C2690     1.0  0.69755  0.35773  0.22779  1.0000
  C   C2691     1.0  0.99199  0.38408  0.22846  1.0000
  H   H2651     1.0  0.71537  0.36336  0.17617  1.0000
  H   H2652     1.0  0.51693  0.07997  0.29143  1.0000
  H   H2653     1.0  0.72224  0.27992  0.32956  1.0000
  H   H2654     1.0  0.53690  0.14229  0.36599  1.0000
  S   S900      1.0  0.50761  0.07178  0.26858  1.0000
  N   N222      1.0  0.91608  0.47691  0.24038  1.0000
  H   H2655     1.0  0.71569  0.35593  0.25601  1.0000
  N   N223      1.0  0.81777  0.47637  0.27404  1.0000
  H   H2656     1.0  0.73276  0.37736  0.18078  1.0000
  C   C2692     1.0  0.69663  0.23828  0.35849  1.0000
  H   H2657     1.0  0.84427  0.37796  0.37430  1.0000
  C   C2693     1.0  0.84755  0.08160  0.36601  1.0000
  H   H2658     1.0  0.54483  0.09087  0.33171  1.0000
  N   N224      1.0  0.55857  0.09378  0.30839  1.0000
  H   H2659     1.0  0.57788  0.10824  0.27232  1.0000
  H   H2660     1.0  0.54612  0.07560  0.31446  1.0000
  C   C2694     1.0  0.56969  0.14767  0.22549  1.0000
  C   C2695     1.0  0.96384  0.40316  0.22251  1.0000
  C   C2696     1.0  0.82903  0.40391  0.22849  1.0000
  H   H2661     1.0  0.77623  0.10203  0.35056  1.0000
  H   H2662     1.0  0.54632  0.26803  0.18039  1.0000
  H   H2663     1.0  0.71439  0.09786  0.36847  1.0000
  H   H2664     1.0  0.79309  0.33168  0.28812  1.0000
  N   N225      1.0  0.86464  0.19705  0.32423  1.0000
  C   C2697     1.0  0.85344  0.20960  0.31935  1.0000
  C   C2698     1.0  0.86192  0.18234  0.32834  1.0000
  C   C2699     1.0  0.83914  0.20754  0.31835  1.0000
  C   C2700     1.0  0.84769  0.17988  0.32760  1.0000
  C   C2701     1.0  0.83624  0.19258  0.32259  1.0000
  C   C2702     1.0  0.87935  0.19928  0.32590  1.0000
  H   H2665     1.0  0.85529  0.22135  0.31664  1.0000
  H   H2666     1.0  0.87073  0.17247  0.33246  1.0000
  H   H2667     1.0  0.83008  0.21757  0.31500  1.0000
  H   H2668     1.0  0.84535  0.16826  0.33134  1.0000
  H   H2669     1.0  0.82496  0.19089  0.32247  1.0000
  H   H2670     1.0  0.88125  0.21118  0.32008  1.0000
  H   H2671     1.0  0.87929  0.19721  0.33842  1.0000
  H   H2672     1.0  0.88947  0.19084  0.32071  1.0000
  C   C2703     1.0  0.76610  0.13841  0.33005  1.0000
  H   H2673     1.0  0.54535  0.13156  0.25762  1.0000
  H   H2674     1.0  0.67144  0.19186  0.28138  1.0000
  C   C2704     1.0  0.94607  0.45361  0.22140  1.0000
  C   C2705     1.0  0.55390  0.04780  0.18092  1.0000
  H   H2675     1.0  0.61802  0.21646  0.26489  1.0000
  H   H2676     1.0  0.97712  0.10298  0.36418  1.0000
  H   H2677     1.0  0.55046  0.10913  0.32390  1.0000
  C   C2706     1.0  0.63748  0.28428  0.18781  1.0000
  C   C2707     1.0  0.70002  0.37208  0.21846  1.0000
  H   H2678     1.0  0.53541  0.06509  0.21084  1.0000
  C   C2708     1.0  0.83312  0.21131  0.35425  1.0000
  S   S901      1.0  0.76728  0.44559  0.31808  1.0000
  Fe  Fe458     1.0  0.86595  0.43550  0.22955  1.0000
  H   H2679     1.0  0.55332  0.11179  0.21321  1.0000
  N   N226      1.0  0.81712  0.40783  0.24057  1.0000
  C   C2709     1.0  0.64647  0.10696  0.18885  1.0000
  H   H2680     1.0  0.81959  0.38475  0.25453  1.0000
  S   S902      1.0  0.58719  0.09372  0.20865  1.0000
  H   H2681     1.0  0.72032  0.25451  0.36878  1.0000
  C   C2710     1.0  0.83521  0.41547  0.21675  1.0000
  C   C2711     1.0  0.81680  0.43497  0.22965  1.0000
  C   C2712     1.0  0.82905  0.43109  0.21740  1.0000
  H   H2682     1.0  0.84482  0.41232  0.20733  1.0000
  H   H2683     1.0  0.81195  0.44708  0.23026  1.0000
  H   H2684     1.0  0.83379  0.44020  0.20850  1.0000
  H   H2685     1.0  0.67548  0.10674  0.34530  1.0000
  H   H2686     1.0  0.55178  0.07216  0.28755  1.0000
  C   C2713     1.0  0.54741  0.14710  0.36382  1.0000
  H   H2687     1.0  0.97640  0.48202  0.32008  1.0000
  C   C2714     1.0  0.59002  0.23685  0.19999  1.0000
  H   H2688     1.0  0.80597  0.01306  0.31712  1.0000
  S   S903      1.0  0.87296  0.47626  0.20672  1.0000
  H   H2689     1.0  0.68987  0.22929  0.36305  1.0000
  H   H2690     1.0  0.75385  0.11217  0.37013  1.0000
  C   C2715     1.0  0.65896  0.13125  0.37007  1.0000
  H   H2691     1.0  0.54335  0.13090  0.20434  1.0000
  S   S904      1.0  0.82318  0.16843  0.36977  1.0000
  C   C2716     1.0  0.77258  0.32240  0.32467  1.0000
  S   S905      1.0  0.96800  0.13766  0.35893  1.0000
  H   H2692     1.0  0.79815  0.11913  0.32289  1.0000
  H   H2693     1.0  0.92962  0.48004  0.25436  1.0000
  H   H2694     1.0  0.61767  0.21083  0.28549  1.0000
  H   H2695     1.0  0.78518  0.12230  0.30994  1.0000
  H   H2696     1.0  0.60319  0.21797  0.18873  1.0000
  C   C2717     1.0  0.64985  0.14159  0.34666  1.0000
  H   H2697     1.0  0.52132  0.08298  0.19106  1.0000
  H   H2698     1.0  0.57784  0.25332  0.21444  1.0000
  H   H2699     1.0  0.78647  0.41156  0.19013  1.0000
  H   H2700     1.0  0.80625  0.30719  0.31402  1.0000
  H   H2701     1.0  0.56369  0.14950  0.24940  1.0000
  H   H2702     1.0  0.64298  0.15089  0.33945  1.0000
  S   S906      1.0  0.86548  0.09778  0.37214  1.0000
  S   S907      1.0  0.74073  0.07196  0.36921  1.0000
  C   C2718     1.0  0.78424  0.33292  0.29868  1.0000
  S   S908      1.0  0.81747  0.24045  0.34216  1.0000
  H   H2703     1.0  0.96569  0.41555  0.23835  1.0000
  C   C2719     1.0  0.91225  0.48116  0.22618  1.0000
  H   H2704     1.0  0.70179  0.34051  0.24843  1.0000
  S   S909      1.0  0.85953  0.41271  0.24218  1.0000
  H   H2705     1.0  0.79182  0.36801  0.36832  1.0000
  S   S910      1.0  0.78384  0.27584  0.35374  1.0000
  H   H2706     1.0  0.82481  0.99222  0.33015  1.0000
  C   C2720     1.0  0.60986  0.28861  0.18903  1.0000
  H   H2707     1.0  0.62673  0.07896  0.19531  1.0000
  C   C2721     1.0  0.66320  0.19136  0.27508  1.0000
  C   C2722     1.0  0.72185  0.38390  0.24063  1.0000
  C   C2723     1.0  0.55657  0.08051  0.29011  1.0000
  H   H2708     1.0  0.65065  0.26100  0.18693  1.0000
  C   C2724     1.0  0.70784  0.25685  0.33694  1.0000
  C   C2725     1.0  0.64091  0.15682  0.36678  1.0000
  C   C2726     1.0  0.62280  0.29435  0.18822  1.0000
  H   H2709     1.0  0.61632  0.13541  0.18611  1.0000
  C   C2727     1.0  0.59946  0.22193  0.19949  1.0000
  N   N227      1.0  0.77398  0.12324  0.33349  1.0000
  C   C2728     1.0  0.76999  0.11404  0.34786  1.0000
  H   H2710     1.0  0.54120  0.11997  0.23818  1.0000
  H   H2711     1.0  0.83637  0.39421  0.34727  1.0000
  C   C2729     1.0  0.55157  0.13423  0.24560  1.0000
  C   C2730     1.0  0.79221  0.99024  0.35705  1.0000
  H   H2712     1.0  0.85143  0.44553  0.29005  1.0000
  H   H2713     1.0  0.73906  0.13966  0.36391  1.0000
  C   C2731     1.0  0.55844  0.04001  0.20731  1.0000
  C   C2732     1.0  0.84803  0.37356  0.18612  1.0000
  C   C2733     1.0  0.56530  0.08988  0.27813  1.0000
  H   H2714     1.0  0.77216  0.31280  0.33475  1.0000
  H   H2715     1.0  0.82171  0.39200  0.32947  1.0000
  H   H2716     1.0  0.63822  0.09672  0.22823  1.0000
  C   C2734     1.0  0.78903  0.38299  0.18801  1.0000
  Fe  Fe459     1.0  0.98074  0.15232  0.36485  1.0000
  C   C2735     1.0  0.51402  0.09675  0.32099  1.0000
  H   H2717     1.0  0.79885  0.37933  0.34000  1.0000
  H   H2718     1.0  0.51949  0.98677  0.18349  1.0000
  H   H2719     1.0  0.78855  0.10417  0.32361  1.0000
  S   S911      1.0  0.79754  0.43998  0.33383  1.0000
  H   H2720     1.0  0.83995  0.33865  0.18929  1.0000
  S   S912      1.0  0.97740  0.47092  0.22541  1.0000
  C   C2736     1.0  0.56776  0.10248  0.29684  1.0000
  H   H2721     1.0  0.73300  0.38480  0.23194  1.0000
  Fe  Fe460     1.0  0.77947  0.42694  0.33531  1.0000
  C   C2737     1.0  0.64762  0.19955  0.27828  1.0000
  N   N228      1.0  0.62639  0.26316  0.18840  1.0000
  N   N229      1.0  0.71526  0.26014  0.34630  1.0000
  H   H2722     1.0  0.77838  0.38724  0.19592  1.0000
  C   C2738     1.0  0.60289  0.11757  0.19580  1.0000
  H   H2723     1.0  0.82305  0.48023  0.33855  1.0000
  H   H2724     1.0  0.74818  0.44765  0.35522  1.0000
  C   C2739     1.0  0.63261  0.08657  0.19766  1.0000
  C   C2740     1.0  0.55332  0.08261  0.30529  1.0000
  Fe  Fe461     1.0  0.76270  0.27516  0.34611  1.0000
  C   C2741     1.0  0.82676  0.38823  0.35194  1.0000
  H   H2725     1.0  0.80219  0.98300  0.36169  1.0000
  N   N230      1.0  0.55019  0.05061  0.19550  1.0000
  C   C2742     1.0  0.86459  0.41343  0.26995  1.0000
  S   S913      1.0  0.84640  0.45658  0.22797  1.0000
  H   H2726     1.0  0.90175  0.41879  0.18153  1.0000
  C   C2743     1.0  0.65901  0.12863  0.34074  1.0000
  H   H2727     1.0  0.64847  0.16539  0.36353  1.0000
  C   C2744     1.0  0.80572  0.37986  0.34767  1.0000
  S   S914      1.0  0.74811  0.22276  0.37403  1.0000
  H   H2728     1.0  0.55097  0.15183  0.35115  1.0000
  S   S915      1.0  0.49287  0.07913  0.23777  1.0000
  H   H2729     1.0  0.80443  0.40305  0.19697  1.0000
  C   C2745     1.0  0.76194  0.44993  0.36975  1.0000
  H   H2730     1.0  0.89843  0.47276  0.26066  1.0000
  S   S916      1.0  0.58387  0.24963  0.18352  1.0000
  C   C2746     1.0  0.78824  0.41482  0.37338  1.0000
  C   C2747     1.0  0.53054  0.07316  0.18807  1.0000
  H   H2731     1.0  0.63046  0.16232  0.36165  1.0000
  C   C2748     1.0  0.53037  0.17077  0.37143  1.0000
  H   H2732     1.0  0.94855  0.44520  0.17706  1.0000
  C   C2749     1.0  0.79896  0.40570  0.18688  1.0000
  H   H2733     1.0  0.57071  0.03488  0.20196  1.0000
  C   C2750     1.0  0.75471  0.45495  0.35717  1.0000
  C   C2751     1.0  0.52488  0.98400  0.19334  1.0000
  C   C2752     1.0  0.84901  0.44296  0.17758  1.0000
  H   H2734     1.0  0.62782  0.23966  0.20076  1.0000
  C   C2753     1.0  0.77644  0.40788  0.37324  1.0000
  C   C2754     1.0  0.79516  0.99713  0.31255  1.0000
  H   H2735     1.0  0.90326  0.45880  0.24868  1.0000
  S   S917      1.0  0.78152  0.24071  0.37438  1.0000
  C   C2755     1.0  0.84052  0.45843  0.17626  1.0000
  H   H2736     1.0  0.49491  0.12229  0.17687  1.0000
  H   H2737     1.0  0.49269  0.40184  0.18038  1.0000
  H   H2738     1.0  0.79816  0.48269  0.26357  1.0000
  C   C2756     1.0  0.68807  0.00839  0.54895  1.0000
  Fe  Fe462     1.0  0.82713  0.33642  0.43300  1.0000
  S   S918      1.0  0.80954  0.32142  0.44206  1.0000
  S   S919      1.0  0.85287  0.32715  0.43090  1.0000
  Fe  Fe463     1.0  0.80273  0.36602  0.42519  1.0000
  S   S920      1.0  0.78282  0.35371  0.43409  1.0000
  S   S921      1.0  0.80177  0.39117  0.41323  1.0000
  Fe  Fe464     1.0  0.79520  0.34110  0.45373  1.0000
  S   S922      1.0  0.78553  0.33557  0.47961  1.0000
  Fe  Fe465     1.0  0.79896  0.33525  0.42159  1.0000
  S   S923      1.0  0.79560  0.32823  0.40114  1.0000
  S   S924      1.0  0.81370  0.35510  0.44578  1.0000
  S   S925      1.0  0.81809  0.34853  0.41167  1.0000
  S   S926      1.0  0.78958  0.38343  0.51564  1.0000
  C   C2757     1.0  0.65256  0.17326  0.38987  1.0000
  C   C2758     1.0  0.69654  0.13593  0.41925  1.0000
  Fe  Fe466     1.0  0.67074  0.07862  0.46220  1.0000
  S   S927      1.0  0.66478  0.06795  0.44597  1.0000
  S   S928      1.0  0.65655  0.08422  0.48494  1.0000
  Fe  Fe467     1.0  0.68904  0.05304  0.44498  1.0000
  S   S929      1.0  0.69592  0.02815  0.44275  1.0000
  Fe  Fe468     1.0  0.67703  0.08495  0.42722  1.0000
  H   H2739     1.0  0.86017  0.37128  0.56407  1.0000
  S   S930      1.0  0.69383  0.06192  0.46312  1.0000
  S   S931      1.0  0.68069  0.09708  0.44348  1.0000
  C   C2759     1.0  0.99070  0.28341  0.51416  1.0000
  S   S932      1.0  0.98883  0.25637  0.55359  1.0000
  H   H2740     1.0  0.63167  0.10481  0.54193  1.0000
  Fe  Fe469     1.0  0.71647  0.07048  0.53360  1.0000
  S   S933      1.0  0.69685  0.06600  0.55397  1.0000
  S   S934      1.0  0.71258  0.08663  0.51104  1.0000
  C   C2760     1.0  0.83742  0.40700  0.56149  1.0000
  H   H2741     1.0  0.63079  0.19036  0.39188  1.0000
  H   H2742     1.0  0.70554  0.99563  0.46000  1.0000
  H   H2743     1.0  0.68377  0.13641  0.42174  1.0000
  S   S935      1.0  0.73040  0.07681  0.54659  1.0000
  S   S936      1.0  0.72940  0.04548  0.53623  1.0000
  C   C2761     1.0  0.77209  0.39594  0.38575  1.0000
  S   S937      1.0  0.79809  0.08867  0.56254  1.0000
  S   S938      1.0  0.70086  0.06939  0.42511  1.0000
  S   S939      1.0  0.64088  0.99210  0.46527  1.0000
  N   N231      1.0  0.82485  0.29086  0.40077  1.0000
  Fe  Fe470     1.0  0.58820  0.12592  0.43726  1.0000
  S   S940      1.0  0.60168  0.13663  0.44694  1.0000
  S   S941      1.0  0.59640  0.10178  0.43299  1.0000
  Fe  Fe471     1.0  0.56080  0.15322  0.43652  1.0000
  S   S942      1.0  0.57128  0.16673  0.44646  1.0000
  S   S943      1.0  0.53755  0.16069  0.42954  1.0000
  Fe  Fe472     1.0  0.57857  0.14395  0.46262  1.0000
  S   S944      1.0  0.57611  0.13951  0.48849  1.0000
  S   S945      1.0  0.56579  0.13129  0.45434  1.0000
  Fe  Fe473     1.0  0.62425  0.15237  0.53811  1.0000
  S   S946      1.0  0.60669  0.14049  0.55639  1.0000
  S   S947      1.0  0.62771  0.15465  0.51234  1.0000
  Fe  Fe474     1.0  0.63784  0.15912  0.56183  1.0000
  C   C2762     1.0  0.66820  0.99935  0.44641  1.0000
  S   S948      1.0  0.65731  0.16831  0.56431  1.0000
  H   H2744     1.0  0.97247  0.29558  0.50166  1.0000
  C   C2763     1.0  0.81998  0.10461  0.39595  1.0000
  S   S949      1.0  0.88186  0.23843  0.56842  1.0000
  H   H2745     1.0  0.96963  0.18061  0.44499  1.0000
  S   S950      1.0  0.64443  0.13960  0.54938  1.0000
  S   S951      1.0  0.61910  0.17301  0.54884  1.0000
  H   H2746     1.0  0.83044  0.39594  0.37755  1.0000
  H   H2747     1.0  0.75941  0.35943  0.56213  1.0000
  C   C2764     1.0  0.79553  0.41000  0.38599  1.0000
  Fe  Fe475     1.0  0.95944  0.25351  0.45664  1.0000
  S   S952      1.0  0.97427  0.23191  0.46815  1.0000
  S   S953      1.0  0.93344  0.25682  0.46494  1.0000
  C   C2765     1.0  0.91959  0.15117  0.38971  1.0000
  H   H2748     1.0  0.80451  0.41556  0.38611  1.0000
  C   C2766     1.0  0.52694  0.10891  0.44441  1.0000
  H   H2749     1.0  0.76644  0.21883  0.40997  1.0000
  S   S954      1.0  0.97205  0.26995  0.45959  1.0000
  S   S955      1.0  0.97291  0.25232  0.43231  1.0000
  N   N232      1.0  0.54446  0.09029  0.42998  1.0000
  Fe  Fe476     1.0  0.86586  0.25058  0.41762  1.0000
  S   S956      1.0  0.84233  0.24661  0.43140  1.0000
  S   S957      1.0  0.86948  0.27111  0.39817  1.0000
  Fe  Fe477     1.0  0.88323  0.22333  0.43810  1.0000
  S   S958      1.0  0.86122  0.21656  0.45346  1.0000
  S   S959      1.0  0.90728  0.21195  0.44246  1.0000
  Fe  Fe478     1.0  0.85330  0.22153  0.43123  1.0000
  S   S960      1.0  0.83872  0.20850  0.42585  1.0000
  Fe  Fe479     1.0  0.85238  0.24224  0.45220  1.0000
  S   S961      1.0  0.83909  0.25074  0.47389  1.0000
  S   S962      1.0  0.87630  0.22580  0.41579  1.0000
  S   S963      1.0  0.87492  0.24859  0.43840  1.0000
  C   C2767     1.0  0.95454  0.26759  0.53460  1.0000
  Fe  Fe480     1.0  0.71100  0.04152  0.55803  1.0000
  C   C2768     1.0  0.65554  0.00301  0.45850  1.0000
  H   H2750     1.0  0.72422  0.05111  0.40004  1.0000
  S   S964      1.0  0.77164  0.26971  0.40046  1.0000
  S   S965      1.0  0.96215  0.18748  0.40197  1.0000
  C   C2769     1.0  0.70763  0.10296  0.39900  1.0000
  S   S966      1.0  0.87512  0.14130  0.41650  1.0000
  H   H2751     1.0  0.87565  0.32375  0.54631  1.0000
  H   H2752     1.0  0.72662  0.12256  0.41876  1.0000
  H   H2753     1.0  0.53659  0.07947  0.41657  1.0000
  H   H2754     1.0  0.97205  0.32349  0.45069  1.0000
  H   H2755     1.0  0.88238  0.28091  0.42868  1.0000
  Fe  Fe481     1.0  0.97908  0.17262  0.38618  1.0000
  C   C2770     1.0  0.84844  0.18932  0.42465  1.0000
  C   C2771     1.0  0.54760  0.08086  0.41849  1.0000
  S   S967      1.0  0.98600  0.29645  0.52638  1.0000
  C   C2772     1.0  0.86437  0.15919  0.42087  1.0000
  C   C2773     1.0  0.87062  0.16748  0.42747  1.0000
  C   C2774     1.0  0.86273  0.18266  0.42919  1.0000
  C   C2775     1.0  0.85819  0.18886  0.57089  1.0000
  H   H2756     1.0  0.83146  0.40701  0.55278  1.0000
  H   H2757     1.0  0.88176  0.16237  0.43079  1.0000
  H   H2758     1.0  0.86772  0.18920  0.43396  1.0000
  C   C2776     1.0  0.84962  0.25878  0.48187  1.0000
  C   C2777     1.0  0.84617  0.25738  0.49795  1.0000
  C   C2778     1.0  0.85483  0.26310  0.50470  1.0000
  C   C2779     1.0  0.86663  0.27073  0.49532  1.0000
  C   C2780     1.0  0.86983  0.27250  0.47921  1.0000
  C   C2781     1.0  0.86145  0.26641  0.47249  1.0000
  H   H2759     1.0  0.83686  0.25172  0.50524  1.0000
  H   H2760     1.0  0.87894  0.27840  0.47198  1.0000
  H   H2761     1.0  0.86385  0.26800  0.46005  1.0000
  C   C2782     1.0  0.97271  0.19374  0.41140  1.0000
  C   C2783     1.0  0.96708  0.20821  0.41550  1.0000
  C   C2784     1.0  0.97545  0.21315  0.42323  1.0000
  H   H2762     1.0  0.55468  0.06906  0.42232  1.0000
  H   H2763     1.0  0.84766  0.38138  0.55089  1.0000
  C   C2785     1.0  0.82831  0.05527  0.40534  1.0000
  H   H2764     1.0  0.95634  0.21567  0.41252  1.0000
  H   H2765     1.0  0.97107  0.22432  0.42632  1.0000
  C   C2786     1.0  0.65209  0.14829  0.40773  1.0000
  C   C2787     1.0  0.92623  0.24416  0.45896  1.0000
  C   C2788     1.0  0.93636  0.23405  0.44976  1.0000
  C   C2789     1.0  0.93045  0.22430  0.44460  1.0000
  C   C2790     1.0  0.91443  0.22445  0.44880  1.0000
  C   C2791     1.0  0.90432  0.23446  0.45816  1.0000
  C   C2792     1.0  0.91019  0.24438  0.46316  1.0000
  H   H2766     1.0  0.94876  0.23372  0.44660  1.0000
  H   H2767     1.0  0.93829  0.21662  0.43735  1.0000
  H   H2768     1.0  0.89198  0.23445  0.46173  1.0000
  H   H2769     1.0  0.90233  0.25224  0.47027  1.0000
  H   H2770     1.0  0.65500  0.09498  0.55196  1.0000
  H   H2771     1.0  0.64123  0.12431  0.40425  1.0000
  H   H2772     1.0  0.89203  0.21953  0.48903  1.0000
  C   C2793     1.0  0.70072  0.98843  0.47132  1.0000
  H   H2773     1.0  0.92126  0.13927  0.38871  1.0000
  H   H2774     1.0  0.53723  0.11743  0.45795  1.0000
  C   C2794     1.0  0.98319  0.30633  0.43679  1.0000
  C   C2795     1.0  0.63670  0.17858  0.39628  1.0000
  H   H2775     1.0  0.84228  0.21459  0.48839  1.0000
  H   H2776     1.0  0.92802  0.20236  0.48560  1.0000
  N   N233      1.0  0.82548  0.07230  0.40203  1.0000
  H   H2777     1.0  0.95854  0.27175  0.54245  1.0000
  C   C2796     1.0  0.53538  0.14794  0.41949  1.0000
  H   H2778     1.0  0.52033  0.09917  0.42915  1.0000
  H   H2779     1.0  0.55400  0.08670  0.40716  1.0000
  C   C2797     1.0  0.86254  0.21907  0.49274  1.0000
  C   C2798     1.0  0.59103  0.14312  0.49471  1.0000
  C   C2799     1.0  0.60189  0.15147  0.48443  1.0000
  C   C2800     1.0  0.61334  0.15467  0.48991  1.0000
  C   C2801     1.0  0.61382  0.14971  0.50567  1.0000
  C   C2802     1.0  0.60312  0.14113  0.51585  1.0000
  C   C2803     1.0  0.59181  0.13777  0.51036  1.0000
  H   H2780     1.0  0.60134  0.15564  0.47232  1.0000
  H   H2781     1.0  0.62162  0.16129  0.48196  1.0000
  H   H2782     1.0  0.60347  0.13710  0.52795  1.0000
  H   H2783     1.0  0.58347  0.13123  0.51832  1.0000
  H   H2784     1.0  0.77920  0.20477  0.38212  1.0000
  H   H2785     1.0  0.55813  0.16182  0.51557  1.0000
  H   H2786     1.0  0.76782  0.07228  0.53608  1.0000
  H   H2787     1.0  0.90973  0.25187  0.42528  1.0000
  C   C2804     1.0  0.54751  0.13523  0.41634  1.0000
  Fe  Fe482     1.0  0.78849  0.05159  0.39088  1.0000
  C   C2805     1.0  0.70409  0.14569  0.57372  1.0000
  N   N234      1.0  0.70575  0.12253  0.41256  1.0000
  S   S968      1.0  0.89579  0.15310  0.57210  1.0000
  C   C2806     1.0  0.95272  0.19817  0.47529  1.0000
  S   S969      1.0  0.88864  0.23927  0.53116  1.0000
  C   C2807     1.0  0.80909  0.26782  0.41920  1.0000
  S   S970      1.0  0.72387  0.04561  0.57346  1.0000
  C   C2808     1.0  0.77045  0.06870  0.43448  1.0000
  N   N235      1.0  0.90264  0.17629  0.39118  1.0000
  C   C2809     1.0  0.70330  0.99829  0.52627  1.0000
  C   C2810     1.0  0.71620  0.00330  0.52703  1.0000
  C   C2811     1.0  0.71505  0.01070  0.53889  1.0000
  C   C2812     1.0  0.72123  0.00376  0.40044  1.0000
  C   C2813     1.0  0.80137  0.22437  0.41105  1.0000
  H   H2788     1.0  0.75251  0.38114  0.51606  1.0000
  H   H2789     1.0  0.72719  0.00099  0.51878  1.0000
  H   H2790     1.0  0.72522  0.01395  0.53983  1.0000
  H   H2791     1.0  0.75878  0.05198  0.41219  1.0000
  C   C2814     1.0  0.75920  0.00448  0.56419  1.0000
  C   C2815     1.0  0.64787  0.09935  0.41087  1.0000
  C   C2816     1.0  0.64250  0.08556  0.41766  1.0000
  C   C2817     1.0  0.62644  0.08617  0.42355  1.0000
  C   C2818     1.0  0.61588  0.10060  0.42299  1.0000
  C   C2819     1.0  0.62124  0.11431  0.41572  1.0000
  C   C2820     1.0  0.63718  0.11365  0.40946  1.0000
  H   H2792     1.0  0.65074  0.07444  0.41860  1.0000
  H   H2793     1.0  0.62233  0.07554  0.42917  1.0000
  H   H2794     1.0  0.61315  0.12549  0.41521  1.0000
  H   H2795     1.0  0.55776  0.17139  0.39645  1.0000
  C   C2821     1.0  0.67989  0.01922  0.44846  1.0000
  C   C2822     1.0  0.68043  0.00724  0.44157  1.0000
  C   C2823     1.0  0.55657  0.09096  0.43567  1.0000
  H   H2796     1.0  0.71424  0.05426  0.38467  1.0000
  C   C2824     1.0  0.65495  0.01506  0.46542  1.0000
  C   C2825     1.0  0.66707  0.02327  0.46030  1.0000
  H   H2797     1.0  0.64516  0.01803  0.47472  1.0000
  H   H2798     1.0  0.66665  0.03247  0.46574  1.0000
  C   C2826     1.0  0.67062  0.08641  0.49340  1.0000
  C   C2827     1.0  0.68164  0.09515  0.48434  1.0000
  C   C2828     1.0  0.69417  0.09548  0.49011  1.0000
  C   C2829     1.0  0.69589  0.08692  0.50493  1.0000
  C   C2830     1.0  0.68465  0.07848  0.51424  1.0000
  C   C2831     1.0  0.67192  0.07832  0.50851  1.0000
  H   H2799     1.0  0.68068  0.10152  0.47275  1.0000
  H   H2800     1.0  0.70282  0.10202  0.48286  1.0000
  H   H2801     1.0  0.68593  0.07178  0.52568  1.0000
  H   H2802     1.0  0.66355  0.07134  0.51547  1.0000
  C   C2832     1.0  0.78771  0.31259  0.40140  1.0000
  C   C2833     1.0  0.78063  0.30362  0.41517  1.0000
  C   C2834     1.0  0.77534  0.29072  0.41474  1.0000
  C   C2835     1.0  0.77710  0.28674  0.40056  1.0000
  C   C2836     1.0  0.78389  0.29593  0.38680  1.0000
  C   C2837     1.0  0.78914  0.30880  0.38722  1.0000
  H   H2803     1.0  0.77937  0.30652  0.42614  1.0000
  H   H2804     1.0  0.77003  0.28370  0.42544  1.0000
  Fe  Fe483     1.0  0.98714  0.26655  0.43641  1.0000
  C   C2838     1.0  0.90485  0.16121  0.39005  1.0000
  C   C2839     1.0  0.85747  0.31176  0.42162  1.0000
  C   C2840     1.0  0.86791  0.31222  0.40717  1.0000
  C   C2841     1.0  0.87127  0.29992  0.39965  1.0000
  C   C2842     1.0  0.86450  0.28703  0.40682  1.0000
  C   C2843     1.0  0.85421  0.28654  0.42134  1.0000
  C   C2844     1.0  0.85052  0.29899  0.42864  1.0000
  H   H2805     1.0  0.87322  0.32217  0.40173  1.0000
  H   H2806     1.0  0.87931  0.30027  0.38846  1.0000
  H   H2807     1.0  0.84904  0.27658  0.42700  1.0000
  H   H2808     1.0  0.84254  0.29856  0.43988  1.0000
  C   C2845     1.0  0.79148  0.39778  0.39828  1.0000
  C   C2846     1.0  0.77977  0.39072  0.39815  1.0000
  C   C2847     1.0  0.95675  0.23645  0.56798  1.0000
  H   H2809     1.0  0.92152  0.26327  0.40951  1.0000
  H   H2810     1.0  0.74381  0.03632  0.37899  1.0000
  H   H2811     1.0  0.90070  0.20395  0.56855  1.0000
  H   H2812     1.0  0.77652  0.38133  0.40765  1.0000
  H   H2813     1.0  0.66862  0.99050  0.44062  1.0000
  H   H2814     1.0  0.90094  0.26660  0.41066  1.0000
  H   H2815     1.0  0.69025  0.00406  0.43239  1.0000
  C   C2848     1.0  0.78809  0.34850  0.48922  1.0000
  C   C2849     1.0  0.78936  0.34341  0.50478  1.0000
  C   C2850     1.0  0.79045  0.35388  0.51287  1.0000
  C   C2851     1.0  0.78999  0.36955  0.50551  1.0000
  C   C2852     1.0  0.78887  0.37455  0.48993  1.0000
  C   C2853     1.0  0.78805  0.36405  0.48177  1.0000
  H   H2816     1.0  0.78935  0.33139  0.51062  1.0000
  H   H2817     1.0  0.78842  0.38666  0.48418  1.0000
  H   H2818     1.0  0.78682  0.36815  0.46984  1.0000
  Fe  Fe484     1.0  0.87203  0.26404  0.56217  1.0000
  Fe  Fe485     1.0  0.87838  0.26486  0.52783  1.0000
  C   C2854     1.0  0.93727  0.19734  0.47690  1.0000
  H   H2819     1.0  0.56381  0.10105  0.45034  1.0000
  H   H2820     1.0  0.70455  0.99138  0.48040  1.0000
  H   H2821     1.0  0.87778  0.18040  0.39419  1.0000
  S   S971      1.0  0.84809  0.34829  0.54913  1.0000
  H   H2822     1.0  0.89070  0.22109  0.50828  1.0000
  H   H2823     1.0  0.78525  0.03778  0.57339  1.0000
  C   C2855     1.0  0.75584  0.07728  0.44077  1.0000
  C   C2856     1.0  0.81127  0.27888  0.42574  1.0000
  H   H2824     1.0  0.76288  0.39059  0.38578  1.0000
  H   H2825     1.0  0.78832  0.00810  0.54153  1.0000
  S   S972      1.0  0.87731  0.27830  0.50355  1.0000
  C   C2857     1.0  0.83170  0.38346  0.37784  1.0000
  H   H2826     1.0  0.79106  0.34993  0.52493  1.0000
  H   H2827     1.0  0.64015  0.09801  0.52402  1.0000
  C   C2858     1.0  0.77434  0.06886  0.54513  1.0000
  C   C2859     1.0  0.93945  0.27380  0.53195  1.0000
  H   H2828     1.0  0.88556  0.20758  0.54528  1.0000
  C   C2860     1.0  0.57562  0.17411  0.51444  1.0000
  C   C2861     1.0  0.88047  0.19820  0.55311  1.0000
  C   C2862     1.0  0.53627  0.18275  0.38878  1.0000
  H   H2829     1.0  0.56314  0.16662  0.55909  1.0000
  H   H2830     1.0  0.69920  0.98384  0.57209  1.0000
  C   C2863     1.0  0.84760  0.21581  0.49705  1.0000
  H   H2831     1.0  0.92162  0.19056  0.46762  1.0000
  H   H2832     1.0  0.73723  0.35785  0.50951  1.0000
  S   S973      1.0  0.80425  0.35038  0.54958  1.0000
  H   H2833     1.0  0.84408  0.29824  0.38380  1.0000
  C   C2864     1.0  0.54589  0.12527  0.40805  1.0000
  H   H2834     1.0  0.68672  0.11991  0.40498  1.0000
  N   N236      1.0  0.94441  0.25710  0.51428  1.0000
  C   C2865     1.0  0.93453  0.26834  0.52173  1.0000
  H   H2835     1.0  0.97609  0.25086  0.52930  1.0000
  H   H2836     1.0  0.73291  0.06636  0.42406  1.0000
  H   H2837     1.0  0.65611  0.12473  0.50705  1.0000
  C   C2866     1.0  0.74226  0.07639  0.43710  1.0000
  C   C2867     1.0  0.93889  0.25119  0.50398  1.0000
  H   H2838     1.0  0.92275  0.27310  0.51983  1.0000
  S   S974      1.0  0.92617  0.23150  0.54618  1.0000
  S   S975      1.0  0.60831  0.17562  0.41528  1.0000
  C   C2868     1.0  0.73037  0.10475  0.40631  1.0000
  C   C2869     1.0  0.88729  0.18689  0.39088  1.0000
  H   H2839     1.0  0.94862  0.24773  0.49434  1.0000
  H   H2840     1.0  0.93381  0.24096  0.51072  1.0000
  H   H2841     1.0  0.92981  0.26022  0.49854  1.0000
  N   N237      1.0  0.83514  0.32519  0.48999  1.0000
  C   C2870     1.0  0.82873  0.33939  0.49380  1.0000
  C   C2871     1.0  0.84453  0.31386  0.49870  1.0000
  C   C2872     1.0  0.83127  0.34238  0.50692  1.0000
  C   C2873     1.0  0.84740  0.31648  0.51184  1.0000
  C   C2874     1.0  0.84066  0.33082  0.51600  1.0000
  C   C2875     1.0  0.83237  0.32241  0.47612  1.0000
  H   H2842     1.0  0.82150  0.34847  0.48673  1.0000
  H   H2843     1.0  0.84987  0.30269  0.49555  1.0000
  H   H2844     1.0  0.82596  0.35360  0.51003  1.0000
  H   H2845     1.0  0.85486  0.30742  0.51870  1.0000
  H   H2846     1.0  0.84277  0.33301  0.52619  1.0000
  H   H2847     1.0  0.83973  0.32830  0.46550  1.0000
  H   H2848     1.0  0.83510  0.30978  0.47619  1.0000
  H   H2849     1.0  0.81984  0.32698  0.47550  1.0000
  N   N238      1.0  0.78881  0.20631  0.39996  1.0000
  H   H2850     1.0  0.80667  0.27867  0.43800  1.0000
  C   C2876     1.0  0.80470  0.20461  0.39700  1.0000
  C   C2877     1.0  0.92448  0.24574  0.56938  1.0000
  C   C2878     1.0  0.81488  0.26838  0.40337  1.0000
  H   H2851     1.0  0.91323  0.19383  0.39243  1.0000
  H   H2852     1.0  0.81822  0.11721  0.39302  1.0000
  S   S976      1.0  0.49569  0.11142  0.37598  1.0000
  H   H2853     1.0  0.94378  0.14915  0.38952  1.0000
  S   S977      1.0  0.97946  0.14733  0.39040  1.0000
  C   C2879     1.0  0.66023  0.15805  0.39543  1.0000
  Fe  Fe486     1.0  0.77152  0.26516  0.37748  1.0000
  C   C2880     1.0  0.85003  0.16582  0.41651  1.0000
  C   C2881     1.0  0.77905  0.21700  0.40820  1.0000
  H   H2854     1.0  0.80270  0.25901  0.42634  1.0000
  N   N239      1.0  0.86907  0.22122  0.50346  1.0000
  C   C2882     1.0  0.86092  0.22061  0.51847  1.0000
  C   C2883     1.0  0.84596  0.21738  0.52319  1.0000
  C   C2884     1.0  0.83927  0.21499  0.51237  1.0000
  H   H2855     1.0  0.86587  0.22283  0.52683  1.0000
  H   H2856     1.0  0.83953  0.21701  0.53511  1.0000
  H   H2857     1.0  0.82754  0.21282  0.51577  1.0000
  C   C2885     1.0  0.74433  0.01188  0.38344  1.0000
  C   C2886     1.0  0.56367  0.16606  0.52214  1.0000
  H   H2858     1.0  0.56835  0.08441  0.43194  1.0000
  H   H2859     1.0  0.80718  0.36983  0.38562  1.0000
  S   S978      1.0  0.85732  0.26242  0.54711  1.0000
  C   C2887     1.0  0.98182  0.28537  0.50327  1.0000
  Fe  Fe487     1.0  0.80014  0.38671  0.56606  1.0000
  C   C2888     1.0  0.71613  0.04671  0.39607  1.0000
  S   S979      1.0  0.81537  0.38362  0.54284  1.0000
  C   C2889     1.0  0.81248  0.08112  0.39662  1.0000
  H   H2860     1.0  0.97651  0.19277  0.46227  1.0000
  H   H2861     1.0  0.62975  0.14582  0.42313  1.0000
  N   N240      1.0  0.84662  0.39356  0.56803  1.0000
  C   C2890     1.0  0.84198  0.18076  0.41860  1.0000
  H   H2862     1.0  0.81247  0.19627  0.39038  1.0000
  C   C2891     1.0  0.88979  0.18312  0.55575  1.0000
  H   H2863     1.0  0.82721  0.28048  0.38197  1.0000
  H   H2864     1.0  0.75588  0.34431  0.50576  1.0000
  N   N241      1.0  0.90694  0.27503  0.42724  1.0000
  C   C2892     1.0  0.89198  0.28297  0.43196  1.0000
  C   C2893     1.0  0.91901  0.27713  0.43200  1.0000
  C   C2894     1.0  0.88884  0.29381  0.44113  1.0000
  C   C2895     1.0  0.91628  0.28777  0.44131  1.0000
  C   C2896     1.0  0.90108  0.29617  0.44587  1.0000
  H   H2865     1.0  0.84591  0.07234  0.40905  1.0000
  C   C2897     1.0  0.80964  0.09740  0.39333  1.0000
  H   H2866     1.0  0.93079  0.27031  0.42891  1.0000
  H   H2867     1.0  0.87693  0.30018  0.44470  1.0000
  H   H2868     1.0  0.92583  0.28913  0.44535  1.0000
  H   H2869     1.0  0.89876  0.30429  0.45327  1.0000
  H   H2870     1.0  0.64811  0.12086  0.44407  1.0000
  H   H2871     1.0  0.63649  0.99611  0.50360  1.0000
  C   C2898     1.0  0.53919  0.10956  0.45036  1.0000
  N   N242      1.0  0.94528  0.18480  0.45535  1.0000
  C   C2899     1.0  0.96439  0.25589  0.52722  1.0000
  C   C2900     1.0  0.96445  0.19202  0.46379  1.0000
  H   H2872     1.0  0.60496  0.18421  0.52091  1.0000
  H   H2873     1.0  0.74123  0.98830  0.38953  1.0000
  H   H2874     1.0  0.95764  0.22495  0.55016  1.0000
  C   C2901     1.0  0.94119  0.17940  0.44372  1.0000
  H   H2875     1.0  0.97729  0.27496  0.48710  1.0000
  C   C2902     1.0  0.72128  0.11731  0.41294  1.0000
  H   H2876     1.0  0.78094  0.06939  0.43735  1.0000
  C   C2903     1.0  0.69897  0.11568  0.40549  1.0000
  H   H2877     1.0  0.65800  0.13652  0.41212  1.0000
  H   H2878     1.0  0.93064  0.17433  0.44870  1.0000
  H   H2879     1.0  0.93865  0.18939  0.43393  1.0000
  H   H2880     1.0  0.95093  0.17043  0.43890  1.0000
  C   C2904     1.0  0.93409  0.23685  0.55875  1.0000
  C   C2905     1.0  0.83293  0.09551  0.40191  1.0000
  C   C2906     1.0  0.64330  0.98388  0.50504  1.0000
  H   H2881     1.0  0.95560  0.20372  0.48281  1.0000
  S   S980      1.0  0.58253  0.14702  0.41872  1.0000
  H   H2882     1.0  0.58421  0.18071  0.54497  1.0000
  H   H2883     1.0  0.84511  0.15940  0.41153  1.0000
  H   H2884     1.0  0.92103  0.19953  0.55964  1.0000
  S   S981      1.0  0.66788  0.09896  0.40619  1.0000
  H   H2885     1.0  0.82743  0.37777  0.39012  1.0000
  C   C2907     1.0  0.96049  0.18526  0.45394  1.0000
  H   H2886     1.0  0.82209  0.05089  0.41737  1.0000
  H   H2887     1.0  0.75508  0.08459  0.44850  1.0000
  Fe  Fe488     1.0  0.79596  0.37552  0.53905  1.0000
  C   C2908     1.0  0.93373  0.19058  0.46676  1.0000
  H   H2888     1.0  0.93160  0.28266  0.53789  1.0000
  H   H2889     1.0  0.82506  0.31136  0.38304  1.0000
  H   H2890     1.0  0.85214  0.26185  0.51712  1.0000
  Fe  Fe489     1.0  0.86870  0.23715  0.55178  1.0000
  H   H2891     1.0  0.55534  0.11545  0.40573  1.0000
  C   C2909     1.0  0.95019  0.23199  0.55825  1.0000
  H   H2892     1.0  0.74255  0.10029  0.40709  1.0000
  H   H2893     1.0  0.73024  0.08747  0.39459  1.0000
  H   H2894     1.0  0.63165  0.11844  0.52372  1.0000
  H   H2895     1.0  0.77740  0.23495  0.42003  1.0000
  C   C2910     1.0  0.51992  0.14058  0.40605  1.0000
  C   C2911     1.0  0.92988  0.17213  0.39125  1.0000
  C   C2912     1.0  0.91492  0.18182  0.39172  1.0000
  C   C2913     1.0  0.83267  0.30329  0.39081  1.0000
  H   H2896     1.0  0.51545  0.11637  0.44723  1.0000
  H   H2897     1.0  0.75673  0.38304  0.54075  1.0000
  H   H2898     1.0  0.83931  0.37281  0.57058  1.0000
  Fe  Fe490     1.0  0.59368  0.15848  0.43005  1.0000
  Fe  Fe491     1.0  0.86925  0.13999  0.39488  1.0000
  C   C2914     1.0  0.78214  0.19755  0.39327  1.0000
  H   H2899     1.0  0.68087  0.09874  0.55179  1.0000
  H   H2900     1.0  0.75575  0.00260  0.55461  1.0000
  C   C2915     1.0  0.56662  0.16859  0.54652  1.0000
  C   C2916     1.0  0.52162  0.15069  0.41421  1.0000
  C   C2917     1.0  0.85650  0.29681  0.57210  1.0000
  C   C2918     1.0  0.86872  0.30300  0.56145  1.0000
  C   C2919     1.0  0.52978  0.09911  0.43421  1.0000
  H   H2901     1.0  0.79970  0.10433  0.38841  1.0000
  H   H2902     1.0  0.96690  0.24163  0.51138  1.0000
  H   H2903     1.0  0.71116  0.14681  0.56199  1.0000
  C   C2920     1.0  0.81120  0.21364  0.40244  1.0000
  C   C2921     1.0  0.81905  0.29050  0.41625  1.0000
  H   H2904     1.0  0.68772  0.99173  0.47365  1.0000
  C   C2922     1.0  0.88449  0.22518  0.49860  1.0000
  N   N243      1.0  0.77469  0.00226  0.56411  1.0000
  H   H2905     1.0  0.69875  0.14689  0.41087  1.0000
  N   N244      1.0  0.72295  0.03059  0.39451  1.0000
  C   C2923     1.0  0.62836  0.16867  0.40815  1.0000
  H   H2906     1.0  0.78081  0.09099  0.53994  1.0000
  H   H2907     1.0  0.83083  0.18568  0.41535  1.0000
  H   H2908     1.0  0.78307  0.98932  0.54638  1.0000
  H   H2909     1.0  0.99012  0.33608  0.40957  1.0000
  H   H2910     1.0  0.86867  0.22034  0.48069  1.0000
  S   S982      1.0  0.78988  0.05015  0.41510  1.0000
  H   H2911     1.0  0.60124  0.18461  0.50285  1.0000
  H   H2912     1.0  0.51221  0.16054  0.41659  1.0000
  C   C2924     1.0  0.83554  0.07928  0.40488  1.0000
  H   H2913     1.0  0.88309  0.23802  0.49458  1.0000
  S   S983      1.0  0.72418  0.08739  0.44489  1.0000
  C   C2925     1.0  0.77570  0.05382  0.55447  1.0000
  H   H2914     1.0  0.84102  0.04988  0.40390  1.0000
  C   C2926     1.0  0.85132  0.32851  0.55791  1.0000
  C   C2927     1.0  0.75797  0.05894  0.42025  1.0000
  N   N245      1.0  0.63105  0.11206  0.46341  1.0000
  C   C2928     1.0  0.62972  0.10150  0.45614  1.0000
  C   C2929     1.0  0.62122  0.11411  0.47730  1.0000
  C   C2930     1.0  0.61789  0.09310  0.46250  1.0000
  C   C2931     1.0  0.60912  0.10607  0.48387  1.0000
  C   C2932     1.0  0.60742  0.09557  0.47634  1.0000
  C   C2933     1.0  0.64319  0.12115  0.45652  1.0000
  H   H2915     1.0  0.63765  0.09967  0.44525  1.0000
  H   H2916     1.0  0.62257  0.12216  0.48326  1.0000
  H   H2917     1.0  0.60099  0.10816  0.49460  1.0000
  H   H2918     1.0  0.59799  0.08939  0.48120  1.0000
  H   H2919     1.0  0.65279  0.11640  0.46295  1.0000
  H   H2920     1.0  0.90205  0.18091  0.55002  1.0000
  H   H2921     1.0  0.79051  0.18656  0.39100  1.0000
  C   C2934     1.0  0.78173  0.07939  0.54726  1.0000
  S   S984      1.0  0.89223  0.26912  0.54238  1.0000
  S   S985      1.0  0.85336  0.22004  0.55869  1.0000
  C   C2935     1.0  0.59552  0.18750  0.51438  1.0000
  S   S986      1.0  0.52965  0.11376  0.39474  1.0000
  S   S987      1.0  0.69968  0.02106  0.56564  1.0000
  H   H2922     1.0  0.68446  0.14190  0.56764  1.0000
  H   H2923     1.0  0.82026  0.29933  0.42129  1.0000
  C   C2936     1.0  0.63858  0.10763  0.52984  1.0000
  H   H2924     1.0  0.80445  0.07558  0.39449  1.0000
  H   H2925     1.0  0.82389  0.05138  0.39727  1.0000
  C   C2937     1.0  0.55016  0.17148  0.38917  1.0000
  C   C2938     1.0  0.74331  0.06706  0.42699  1.0000
  Fe  Fe492     1.0  0.51409  0.12248  0.37754  1.0000
  C   C2939     1.0  0.68919  0.00110  0.53707  1.0000
  C   C2940     1.0  0.78423  0.04938  0.56609  1.0000
  Fe  Fe493     1.0  0.74138  0.05135  0.55136  1.0000
  H   H2926     1.0  0.50909  0.14247  0.40245  1.0000
  C   C2941     1.0  0.53201  0.12774  0.40315  1.0000
  C   C2942     1.0  0.63610  0.15351  0.41394  1.0000
  H   H2927     1.0  0.63820  0.13358  0.45710  1.0000
  C   C2943     1.0  0.77153  0.05968  0.42408  1.0000
  Fe  Fe494     1.0  0.90083  0.24317  0.54733  1.0000
  H   H2928     1.0  0.67716  0.01034  0.55740  1.0000
  H   H2929     1.0  0.70473  0.04779  0.40461  1.0000
  S   S988      1.0  0.84897  0.13271  0.39182  1.0000
  H   H2930     1.0  0.67905  0.99772  0.53623  1.0000
  N   N246      1.0  0.75288  0.35678  0.52325  1.0000
  C   C2944     1.0  0.75445  0.34372  0.53491  1.0000
  C   C2945     1.0  0.75342  0.37081  0.52537  1.0000
  C   C2946     1.0  0.75687  0.34447  0.54904  1.0000
  C   C2947     1.0  0.75582  0.37197  0.53934  1.0000
  C   C2948     1.0  0.75752  0.35871  0.55124  1.0000
  C   C2949     1.0  0.74999  0.35587  0.50866  1.0000
  H   H2931     1.0  0.75401  0.33259  0.53325  1.0000
  C   C2950     1.0  0.95910  0.25071  0.51707  1.0000
  H   H2932     1.0  0.75833  0.33410  0.55825  1.0000
  C   C2951     1.0  0.73609  0.00015  0.39102  1.0000
  H   H2933     1.0  0.81292  0.26008  0.39810  1.0000
  H   H2934     1.0  0.97244  0.30292  0.43779  1.0000
  H   H2935     1.0  0.68248  0.12793  0.50607  1.0000
  C   C2952     1.0  0.55920  0.16324  0.53830  1.0000
  C   C2953     1.0  0.68339  0.11361  0.52892  1.0000
  C   C2954     1.0  0.90994  0.26363  0.41772  1.0000
  C   C2955     1.0  0.73748  0.02717  0.38517  1.0000
  C   C2956     1.0  0.82285  0.28001  0.39428  1.0000
  H   H2936     1.0  0.69503  0.11479  0.52851  1.0000
  H   H2937     1.0  0.93963  0.17660  0.39155  1.0000
  H   H2938     1.0  0.61669  0.08492  0.45659  1.0000
  C   C2957     1.0  0.57858  0.17654  0.53845  1.0000
  C   C2958     1.0  0.70102  0.01309  0.54995  1.0000
  H   H2939     1.0  0.55808  0.13288  0.42048  1.0000
  H   H2940     1.0  0.80635  0.23127  0.41545  1.0000
  Fe  Fe495     1.0  0.82253  0.35887  0.55496  1.0000
  H   H2941     1.0  0.55001  0.15694  0.54444  1.0000
  N   N247      1.0  0.72656  0.05254  0.48494  1.0000
  C   C2959     1.0  0.72935  0.04454  0.47356  1.0000
  C   C2960     1.0  0.71614  0.04899  0.49865  1.0000
  C   C2961     1.0  0.72192  0.03232  0.47596  1.0000
  C   C2962     1.0  0.70836  0.03700  0.50136  1.0000
  C   C2963     1.0  0.71136  0.02856  0.48997  1.0000
  C   C2964     1.0  0.73410  0.06555  0.48217  1.0000
  H   H2942     1.0  0.73720  0.04773  0.46248  1.0000
  H   H2943     1.0  0.71376  0.05547  0.50756  1.0000
  H   H2944     1.0  0.72401  0.02610  0.46687  1.0000
  H   H2945     1.0  0.70005  0.03429  0.51224  1.0000
  H   H2946     1.0  0.70537  0.01924  0.49196  1.0000
  H   H2947     1.0  0.72608  0.07669  0.47815  1.0000
  H   H2948     1.0  0.73696  0.06612  0.49295  1.0000
  H   H2949     1.0  0.74520  0.06439  0.47326  1.0000
  H   H2950     1.0  0.88442  0.19444  0.39933  1.0000
  C   C2965     1.0  0.91230  0.19696  0.57065  1.0000
  N   N248      1.0  0.58310  0.17897  0.52262  1.0000
  S   S989      1.0  0.77973  0.38136  0.56098  1.0000
  Fe  Fe496     1.0  0.71166  0.07049  0.56730  1.0000
  C   C2966     1.0  0.55409  0.10046  0.44605  1.0000
  C   C2967     1.0  0.86616  0.31891  0.55443  1.0000
  S   S990      1.0  0.76649  0.04061  0.55198  1.0000
  C   C2968     1.0  0.98455  0.27370  0.49502  1.0000
  H   H2951     1.0  0.82381  0.21230  0.40004  1.0000
  H   H2952     1.0  0.57912  0.17609  0.50188  1.0000
  C   C2969     1.0  0.83905  0.32226  0.56835  1.0000
  S   S991      1.0  0.67976  0.15083  0.38671  1.0000
  Fe  Fe497     1.0  0.70346  0.07971  0.44337  1.0000
  N   N249      1.0  0.65393  0.10989  0.52965  1.0000
  C   C2970     1.0  0.66087  0.10242  0.54195  1.0000
  C   C2971     1.0  0.66153  0.11896  0.51687  1.0000
  C   C2972     1.0  0.67555  0.10440  0.54189  1.0000
  C   C2973     1.0  0.67637  0.12094  0.51630  1.0000
  H   H2953     1.0  0.75486  0.36465  0.49876  1.0000
  C   C2974     1.0  0.88348  0.17107  0.56651  1.0000
  H   H2954     1.0  0.82752  0.32961  0.57093  1.0000
  H   H2955     1.0  0.70196  0.09726  0.39396  1.0000
  C   C2975     1.0  0.78664  0.99759  0.55086  1.0000
  C   C2976     1.0  0.72344  0.09748  0.39940  1.0000
  C   C2977     1.0  0.98296  0.31800  0.44400  1.0000
  C   C2978     1.0  0.78517  0.22619  0.41386  1.0000
  C   C2979     1.0  0.93219  0.15671  0.39022  1.0000
  Fe  Fe498     1.0  0.78951  0.35665  0.57191  1.0000
  H   H2956     1.0  0.79800  0.99155  0.55423  1.0000
  H   H2957     1.0  0.96921  0.23272  0.56748  1.0000
  C   C2980     1.0  0.84853  0.37908  0.56319  1.0000
  Fe  Fe499     1.0  0.62644  0.12940  0.56857  1.0000
  H   H2958     1.0  0.88022  0.29560  0.55887  1.0000
  H   H2959     1.0  0.69956  0.13527  0.43035  1.0000
  H   H2960     1.0  0.59063  0.20023  0.51278  1.0000
  H   H2961     1.0  0.91215  0.18437  0.57351  1.0000
  C   C2981     1.0  0.86474  0.20109  0.56087  1.0000
  H   H2962     1.0  0.53311  0.19146  0.39570  1.0000
  H   H2963     1.0  0.70332  0.02182  0.40960  1.0000
  S   S992      1.0  0.77810  0.07527  0.37852  1.0000
  C   C2982     1.0  0.71483  0.01913  0.40215  1.0000
  H   H2964     1.0  0.79452  0.31575  0.37652  1.0000
  H   H2965     1.0  0.77675  0.45491  0.38140  1.0000
  C   C2983     1.0  0.79010  0.07501  0.55902  1.0000
  S   S993      1.0  0.77478  0.03948  0.38318  1.0000
  Fe  Fe500     1.0  0.60322  0.15988  0.56822  1.0000
  H   H2966     1.0  0.70371  0.23518  0.37985  1.0000
  H   H2967     1.0  0.83507  0.31023  0.39771  1.0000
  C   C2984     1.0  0.86762  0.17389  0.57387  1.0000
  H   H2968     1.0  0.98118  0.11574  0.38386  1.0000
  H   H2969     1.0  0.84131  0.10095  0.40359  1.0000
  H   H2970     1.0  0.89524  0.15683  0.38935  1.0000
  C   C2985     1.0  0.98663  0.18414  0.41515  1.0000
  Fe  Fe501     1.0  0.98891  0.23189  0.44416  1.0000
  H   H2971     1.0  0.78530  0.29300  0.37583  1.0000
  C   C2986     1.0  0.79118  0.06007  0.56855  1.0000
  H   H2972     1.0  0.91201  0.24942  0.56994  1.0000
  C   C2987     1.0  0.83495  0.42078  0.56642  1.0000
  C   C2988     1.0  0.98946  0.20360  0.42684  1.0000
  H   H2973     1.0  0.72984  0.19998  0.37963  1.0000
  Fe  Fe502     1.0  0.98811  0.24819  0.46908  1.0000
  Fe  Fe503     1.0  0.99094  0.28112  0.54898  1.0000
  H   H2974     1.0  0.77127  0.19442  0.40120  1.0000
  H   H2975     1.0  0.82719  0.43125  0.56157  1.0000
  H   H2976     1.0  0.71468  0.99473  0.40636  1.0000
  S   S994      1.0  0.70499  0.98774  0.51244  1.0000
  C   C2989     1.0  0.98956  0.10494  0.38671  1.0000
  H   H2977     1.0  0.93957  0.20166  0.57197  1.0000
  H   H2978     1.0  0.65882  0.18099  0.38066  1.0000
  H   H2979     1.0  0.65946  0.13238  0.38133  1.0000
  H   H2980     1.0  0.74850  0.07766  0.56958  1.0000
  S   S995      1.0  0.97776  0.28461  0.57275  1.0000
  H   H2981     1.0  0.76084  0.43883  0.37769  1.0000
  H   H2982     1.0  0.63667  0.15414  0.37960  1.0000
  H   H2983     1.0  0.76531  0.09362  0.57409  1.0000
  C   C2990     1.0  0.55374  0.15983  0.38084  1.0000
  C   C2991     1.0  0.52635  0.18250  0.37975  1.0000
  H   H2984     1.0  0.51552  0.19121  0.37933  1.0000
  S   S996      1.0  0.86546  0.16266  0.37780  1.0000
  H   H2985     1.0  0.56432  0.15084  0.38164  1.0000
  H   H2986     1.0  0.88722  0.19425  0.37904  1.0000
  H   H2987     1.0  0.79130  0.00438  0.57529  1.0000
  H   H2988     1.0  0.99065  0.10968  0.40808  1.0000
  H   H2989     1.0  0.61343  0.98380  0.51824  1.0000
  S   S997      1.0  0.88723  0.12721  0.37797  1.0000
  H   H2990     1.0  0.99069  0.17269  0.41261  1.0000
  H   H2991     1.0  0.65423  0.98387  0.49585  1.0000
  H   H2992     1.0  0.75594  0.00915  0.37623  1.0000
  S   S998      1.0  0.79776  0.40827  0.57472  1.0000
  H   H2993     1.0  0.98342  0.33774  0.57527  1.0000
  H   H2994     1.0  0.85842  0.12525  0.57525  1.0000
  H   H2995     1.0  0.56171  0.12285  0.59728  1.0000
  Fe  Fe504     1.0  0.79877  0.05746  0.61659  1.0000
  S   S999      1.0  0.81867  0.05862  0.59567  1.0000
  S   S1000     1.0  0.78988  0.03546  0.62886  1.0000
  Fe  Fe505     1.0  0.79359  0.09185  0.61651  1.0000
  S   S1001     1.0  0.81258  0.09550  0.59532  1.0000
  S   S1002     1.0  0.78319  0.11387  0.62538  1.0000
  Fe  Fe506     1.0  0.80288  0.08082  0.58639  1.0000
  H   H2996     1.0  0.57834  0.14072  0.57982  1.0000
  Fe  Fe507     1.0  0.82629  0.07325  0.60694  1.0000
  S   S1003     1.0  0.85137  0.07215  0.60670  1.0000
  S   S1004     1.0  0.78249  0.07898  0.60657  1.0000
  S   S1005     1.0  0.80784  0.07020  0.62881  1.0000
  H   H2997     1.0  0.56376  0.10368  0.64149  1.0000
  H   H2998     1.0  0.67518  0.18536  0.60102  1.0000
  S   S1006     1.0  0.51273  0.11147  0.66396  1.0000
  Fe  Fe508     1.0  0.58794  0.18510  0.73366  1.0000
  S   S1007     1.0  0.56243  0.19315  0.74382  1.0000
  S   S1008     1.0  0.59919  0.19883  0.71102  1.0000
  Fe  Fe509     1.0  0.59225  0.15779  0.76094  1.0000
  C   C2992     1.0  0.64982  0.09875  0.58316  1.0000
  H   H2999     1.0  0.50659  0.99740  0.76588  1.0000
  Fe  Fe510     1.0  0.56210  0.16771  0.74969  1.0000
  S   S1009     1.0  0.54461  0.15598  0.74687  1.0000
  S   S1010     1.0  0.84938  0.47050  0.72976  1.0000
  S   S1011     1.0  0.70147  0.08626  0.58397  1.0000
  S   S1012     1.0  0.58713  0.16003  0.73787  1.0000
  S   S1013     1.0  0.59585  0.18212  0.75541  1.0000
  Fe  Fe511     1.0  0.69894  0.15414  0.64332  1.0000
  S   S1014     1.0  0.69648  0.17463  0.62342  1.0000
  S   S1015     1.0  0.70939  0.12997  0.63916  1.0000
  Fe  Fe512     1.0  0.68116  0.17367  0.66733  1.0000
  S   S1016     1.0  0.67727  0.19587  0.64941  1.0000
  S   S1017     1.0  0.67190  0.17135  0.69300  1.0000
  Fe  Fe513     1.0  0.67177  0.18114  0.63656  1.0000
  Fe  Fe514     1.0  0.70238  0.18720  0.63812  1.0000
  S   S1018     1.0  0.72175  0.20024  0.62716  1.0000
  S   S1019     1.0  0.67383  0.15959  0.65542  1.0000
  S   S1020     1.0  0.70673  0.16603  0.65712  1.0000
  Fe  Fe515     1.0  0.75646  0.24917  0.65752  1.0000
  S   S1021     1.0  0.77640  0.24059  0.63911  1.0000
  S   S1022     1.0  0.73148  0.24713  0.66109  1.0000
  Fe  Fe516     1.0  0.77785  0.25724  0.67294  1.0000
  S   S1023     1.0  0.79955  0.24895  0.65598  1.0000
  S   S1024     1.0  0.77922  0.26505  0.69362  1.0000
  Fe  Fe517     1.0  0.78518  0.26139  0.63817  1.0000
  S   S1025     1.0  0.79850  0.27274  0.61529  1.0000
  Fe  Fe518     1.0  0.78900  0.22883  0.65831  1.0000
  S   S1026     1.0  0.80064  0.20360  0.65886  1.0000
  S   S1027     1.0  0.76407  0.27136  0.65497  1.0000
  S   S1028     1.0  0.76847  0.23590  0.67697  1.0000
  N   N250      1.0  0.91586  0.20094  0.58346  1.0000
  C   C2993     1.0  0.66557  0.18216  0.59884  1.0000
  H   H3000     1.0  0.64158  0.17655  0.66151  1.0000
  C   C2994     1.0  0.84209  0.22594  0.59554  1.0000
  H   H3001     1.0  0.92205  0.08171  0.62391  1.0000
  C   C2995     1.0  0.59421  0.23935  0.75105  1.0000
  C   C2996     1.0  0.74528  0.07513  0.58246  1.0000
  H   H3002     1.0  0.93273  0.09804  0.63419  1.0000
  H   H3003     1.0  0.60725  0.24950  0.76049  1.0000
  H   H3004     1.0  0.83023  0.40262  0.74962  1.0000
  H   H3005     1.0  0.90846  0.42783  0.77136  1.0000
  H   H3006     1.0  0.53481  0.01366  0.72506  1.0000
  Fe  Fe519     1.0  0.87750  0.13410  0.62924  1.0000
  S   S1029     1.0  0.88758  0.14558  0.64174  1.0000
  S   S1030     1.0  0.85987  0.11908  0.64154  1.0000
  Fe  Fe520     1.0  0.89346  0.14950  0.59762  1.0000
  S   S1031     1.0  0.90516  0.16233  0.60684  1.0000
  C   C2997     1.0  0.96098  0.21656  0.64770  1.0000
  Fe  Fe521     1.0  0.90993  0.14002  0.62426  1.0000
  S   S1032     1.0  0.93353  0.13066  0.63045  1.0000
  Fe  Fe522     1.0  0.88207  0.16705  0.62342  1.0000
  S   S1033     1.0  0.87253  0.19144  0.62693  1.0000
  S   S1034     1.0  0.90039  0.12649  0.61338  1.0000
  S   S1035     1.0  0.86986  0.15627  0.61263  1.0000
  C   C2998     1.0  0.75403  0.11036  0.58820  1.0000
  H   H3007     1.0  0.53390  0.99835  0.71715  1.0000
  N   N251      1.0  0.96330  0.22113  0.63188  1.0000
  N   N252      1.0  0.54138  0.99072  0.73856  1.0000
  H   H3008     1.0  0.89871  0.20629  0.61983  1.0000
  H   H3009     1.0  0.53193  0.13758  0.70775  1.0000
  N   N253      1.0  0.58853  0.12737  0.62083  1.0000
  C   C2999     1.0  0.76412  0.41403  0.66930  1.0000
  C   C3000     1.0  0.70026  0.14621  0.60061  1.0000
  C   C3001     1.0  0.78800  0.48115  0.68882  1.0000
  C   C3002     1.0  0.74164  0.28550  0.69738  1.0000
  H   H3010     1.0  0.53808  0.13466  0.73327  1.0000
  C   C3003     1.0  0.94718  0.24551  0.57848  1.0000
  C   C3004     1.0  0.50310  0.00347  0.74254  1.0000
  H   H3011     1.0  0.59477  0.16616  0.70199  1.0000
  H   H3012     1.0  0.85014  0.36813  0.71581  1.0000
  Fe  Fe523     1.0  0.79667  0.35000  0.73123  1.0000
  C   C3005     1.0  0.53562  0.16084  0.69901  1.0000
  H   H3013     1.0  0.62813  0.17836  0.61548  1.0000
  H   H3014     1.0  0.84398  0.14080  0.61797  1.0000
  C   C3006     1.0  0.52771  0.07691  0.72722  1.0000
  C   C3007     1.0  0.84174  0.42070  0.57830  1.0000
  H   H3015     1.0  0.79647  0.47755  0.67847  1.0000
  H   H3016     1.0  0.50075  0.06903  0.72292  1.0000
  H   H3017     1.0  0.81516  0.01062  0.58463  1.0000
  H   H3018     1.0  0.67901  0.11507  0.58328  1.0000
  Fe  Fe524     1.0  0.86234  0.46059  0.74899  1.0000
  S   S1036     1.0  0.88743  0.44814  0.74325  1.0000
  Fe  Fe525     1.0  0.82966  0.46118  0.74713  1.0000
  S   S1037     1.0  0.81404  0.45046  0.74027  1.0000
  H   H3019     1.0  0.81858  0.26073  0.58748  1.0000
  H   H3020     1.0  0.83220  0.30154  0.58337  1.0000
  H   H3021     1.0  0.75472  0.06578  0.58697  1.0000
  Fe  Fe526     1.0  0.82733  0.42254  0.64090  1.0000
  S   S1038     1.0  0.81175  0.44655  0.63780  1.0000
  S   S1039     1.0  0.83007  0.40302  0.62914  1.0000
  Fe  Fe527     1.0  0.83872  0.42690  0.66720  1.0000
  S   S1040     1.0  0.82431  0.45113  0.66624  1.0000
  S   S1041     1.0  0.85291  0.41762  0.68545  1.0000
  Fe  Fe528     1.0  0.80545  0.44138  0.66390  1.0000
  S   S1042     1.0  0.78128  0.44917  0.67771  1.0000
  Fe  Fe529     1.0  0.83211  0.45410  0.64055  1.0000
  S   S1043     1.0  0.81927  0.41675  0.66683  1.0000
  S   S1044     1.0  0.84832  0.43051  0.64157  1.0000
  H   H3022     1.0  0.82450  0.26763  0.63135  1.0000
  H   H3023     1.0  0.98454  0.23617  0.65378  1.0000
  Fe  Fe530     1.0  0.78215  0.34134  0.70944  1.0000
  S   S1045     1.0  0.75769  0.34943  0.72238  1.0000
  S   S1046     1.0  0.78479  0.33398  0.68716  1.0000
  Fe  Fe531     1.0  0.76621  0.36981  0.72317  1.0000
  S   S1047     1.0  0.75041  0.39352  0.71927  1.0000
  S   S1048     1.0  0.79003  0.36282  0.70852  1.0000
  C   C3008     1.0  0.83062  0.01132  0.62359  1.0000
  C   C3009     1.0  0.83117  0.36276  0.76981  1.0000
  H   H3024     1.0  0.59346  0.14909  0.60724  1.0000
  S   S1049     1.0  0.54202  0.12509  0.66597  1.0000
  H   H3025     1.0  0.81284  0.12279  0.60446  1.0000
  C   C3010     1.0  0.89991  0.45562  0.74929  1.0000
  H   H3026     1.0  0.50698  0.16057  0.73587  1.0000
  C   C3011     1.0  0.97322  0.23086  0.62377  1.0000
  H   H3027     1.0  0.86618  0.45475  0.67822  1.0000
  C   C3012     1.0  0.63903  0.17831  0.60692  1.0000
  C   C3013     1.0  0.54077  0.00164  0.72355  1.0000
  H   H3028     1.0  0.74116  0.21367  0.68525  1.0000
  C   C3014     1.0  0.80525  0.40645  0.59103  1.0000
  Fe  Fe532     1.0  0.49657  0.13161  0.67351  1.0000
  N   N254      1.0  0.61693  0.18373  0.66927  1.0000
  H   H3029     1.0  0.81115  0.38922  0.71080  1.0000
  C   C3015     1.0  0.54090  0.99601  0.75125  1.0000
  C   C3016     1.0  0.81513  0.23389  0.60674  1.0000
  C   C3017     1.0  0.50429  0.00677  0.75607  1.0000
  H   H3030     1.0  0.84083  0.04221  0.62780  1.0000
  C   C3018     1.0  0.95584  0.21497  0.62340  1.0000
  H   H3031     1.0  0.79693  0.43082  0.59143  1.0000
  C   C3019     1.0  0.74325  0.20559  0.67784  1.0000
  C   C3020     1.0  0.65784  0.08315  0.58512  1.0000
  C   C3021     1.0  0.49398  0.08158  0.68694  1.0000
  C   C3022     1.0  0.83172  0.35574  0.75780  1.0000
  H   H3032     1.0  0.64448  0.15441  0.68398  1.0000
  H   H3033     1.0  0.76358  0.11644  0.58415  1.0000
  S   S1050     1.0  0.50576  0.02588  0.77335  1.0000
  H   H3034     1.0  0.77580  0.36771  0.68016  1.0000
  S   S1051     1.0  0.77330  0.35865  0.74584  1.0000
  H   H3035     1.0  0.86880  0.46916  0.69527  1.0000
  C   C3023     1.0  0.58364  0.09810  0.62312  1.0000
  H   H3036     1.0  0.71986  0.20150  0.68542  1.0000
  H   H3037     1.0  0.51772  0.07169  0.75174  1.0000
  C   C3024     1.0  0.85000  0.03194  0.60790  1.0000
  C   C3025     1.0  0.75034  0.30842  0.72741  1.0000
  C   C3026     1.0  0.98522  0.32343  0.61814  1.0000
  S   S1052     1.0  0.96155  0.47907  0.72422  1.0000
  H   H3038     1.0  0.98949  0.29881  0.62000  1.0000
  H   H3039     1.0  0.72129  0.08723  0.60345  1.0000
  H   H3040     1.0  0.70468  0.14758  0.60981  1.0000
  Fe  Fe533     1.0  0.49802  0.98683  0.71652  1.0000
  C   C3027     1.0  0.77322  0.43403  0.69106  1.0000
  C   C3028     1.0  0.75699  0.43648  0.69656  1.0000
  C   C3029     1.0  0.75011  0.42407  0.70576  1.0000
  C   C3030     1.0  0.75945  0.40917  0.70948  1.0000
  C   C3031     1.0  0.77574  0.40688  0.70468  1.0000
  C   C3032     1.0  0.78262  0.41934  0.69557  1.0000
  H   H3041     1.0  0.74965  0.44784  0.69327  1.0000
  H   H3042     1.0  0.73750  0.42591  0.70959  1.0000
  H   H3043     1.0  0.78300  0.39550  0.70782  1.0000
  H   H3044     1.0  0.79515  0.41754  0.69206  1.0000
  C   C3033     1.0  0.82488  0.44020  0.72587  1.0000
  C   C3034     1.0  0.81717  0.43706  0.71627  1.0000
  C   C3035     1.0  0.82579  0.42981  0.70403  1.0000
  C   C3036     1.0  0.84212  0.42539  0.70156  1.0000
  C   C3037     1.0  0.84980  0.42799  0.71151  1.0000
  C   C3038     1.0  0.84119  0.43555  0.72358  1.0000
  H   H3045     1.0  0.80453  0.44039  0.71816  1.0000
  H   H3046     1.0  0.81978  0.42758  0.69654  1.0000
  H   H3047     1.0  0.86244  0.42453  0.70963  1.0000
  H   H3048     1.0  0.84720  0.43772  0.73112  1.0000
  H   H3049     1.0  0.73430  0.07075  0.58609  1.0000
  C   C3039     1.0  0.91579  0.45363  0.74193  1.0000
  C   C3040     1.0  0.92599  0.45917  0.74696  1.0000
  C   C3041     1.0  0.80375  0.48102  0.70656  1.0000
  S   S1053     1.0  0.62156  0.14767  0.58208  1.0000
  H   H3050     1.0  0.79747  0.05669  0.57774  1.0000
  H   H3051     1.0  0.92021  0.44785  0.73230  1.0000
  H   H3052     1.0  0.93825  0.45759  0.74123  1.0000
  H   H3053     1.0  0.89138  0.11847  0.67109  1.0000
  C   C3042     1.0  0.82130  0.02416  0.64567  1.0000
  H   H3054     1.0  0.97587  0.32617  0.61200  1.0000
  H   H3055     1.0  0.51098  0.05023  0.69455  1.0000
  H   H3056     1.0  0.75266  0.31428  0.73504  1.0000
  H   H3057     1.0  0.79617  0.36731  0.67216  1.0000
  C   C3043     1.0  0.76745  0.39774  0.67325  1.0000
  C   C3044     1.0  0.60912  0.22064  0.73612  1.0000
  H   H3058     1.0  0.60398  0.09617  0.60429  1.0000
  C   C3045     1.0  0.90452  0.46822  0.76703  1.0000
  C   C3046     1.0  0.61975  0.15857  0.69435  1.0000
  H   H3059     1.0  0.78350  0.36794  0.65989  1.0000
  C   C3047     1.0  0.55666  0.16355  0.60517  1.0000
  S   S1054     1.0  0.75437  0.32243  0.76440  1.0000
  H   H3060     1.0  0.94576  0.20769  0.59385  1.0000
  C   C3048     1.0  0.93415  0.20607  0.59482  1.0000
  C   C3049     1.0  0.59849  0.11808  0.61121  1.0000
  S   S1055     1.0  0.77201  0.34377  0.58911  1.0000
  C   C3050     1.0  0.81423  0.21841  0.61367  1.0000
  Fe  Fe534     1.0  0.52357  0.14416  0.67553  1.0000
  H   H3061     1.0  0.73535  0.01119  0.57638  1.0000
  S   S1056     1.0  0.64954  0.18628  0.62811  1.0000
  N   N255      1.0  0.82890  0.23746  0.59763  1.0000
  H   H3062     1.0  0.82874  0.02003  0.65435  1.0000
  H   H3063     1.0  0.82244  0.42933  0.76662  1.0000
  C   C3051     1.0  0.80352  0.41973  0.59665  1.0000
  C   C3052     1.0  0.81071  0.41884  0.60867  1.0000
  C   C3053     1.0  0.81962  0.40461  0.61512  1.0000
  C   C3054     1.0  0.82094  0.39128  0.60981  1.0000
  H   H3064     1.0  0.67498  0.15358  0.62330  1.0000
  S   S1057     1.0  0.85952  0.27701  0.58096  1.0000
  H   H3065     1.0  0.80970  0.42922  0.61262  1.0000
  C   C3055     1.0  0.70974  0.14736  0.58565  1.0000
  C   C3056     1.0  0.75074  0.29248  0.73191  1.0000
  H   H3066     1.0  0.84148  0.36070  0.77437  1.0000
  H   H3067     1.0  0.78604  0.31294  0.63800  1.0000
  H   H3068     1.0  0.83942  0.43116  0.58266  1.0000
  H   H3069     1.0  0.84798  0.38482  0.69969  1.0000
  N   N256      1.0  0.83071  0.38678  0.72036  1.0000
  C   C3057     1.0  0.74732  0.31667  0.71293  1.0000
  N   N257      1.0  0.59496  0.22910  0.74239  1.0000
  H   H3070     1.0  0.75342  0.28593  0.74301  1.0000
  H   H3071     1.0  0.66817  0.14006  0.59417  1.0000
  H   H3072     1.0  0.86265  0.16456  0.58197  1.0000
  H   H3073     1.0  0.49948  0.04601  0.74444  1.0000
  C   C3058     1.0  0.56788  0.15905  0.59237  1.0000
  H   H3074     1.0  0.94603  0.20975  0.63124  1.0000
  H   H3075     1.0  0.85409  0.46378  0.66441  1.0000
  H   H3076     1.0  0.60131  0.14161  0.62457  1.0000
  H   H3077     1.0  0.57581  0.21799  0.75097  1.0000
  H   H3078     1.0  0.56839  0.12956  0.63935  1.0000
  C   C3059     1.0  0.74462  0.30886  0.70318  1.0000
  H   H3079     1.0  0.74012  0.12508  0.60394  1.0000
  C   C3060     1.0  0.78878  0.41303  0.65072  1.0000
  C   C3061     1.0  0.73131  0.19878  0.67792  1.0000
  H   H3080     1.0  0.52893  0.06527  0.72583  1.0000
  C   C3062     1.0  0.62305  0.22259  0.73817  1.0000
  H   H3081     1.0  0.53898  0.15667  0.62533  1.0000
  C   C3063     1.0  0.95395  0.16565  0.64155  1.0000
  C   C3064     1.0  0.96313  0.15097  0.63977  1.0000
  C   C3065     1.0  0.95680  0.14033  0.63628  1.0000
  C   C3066     1.0  0.94132  0.14438  0.63438  1.0000
  C   C3067     1.0  0.93219  0.15916  0.63594  1.0000
  C   C3068     1.0  0.93847  0.16972  0.63961  1.0000
  C   C3069     1.0  0.83986  0.00994  0.60887  1.0000
  H   H3082     1.0  0.96389  0.12891  0.63513  1.0000
  H   H3083     1.0  0.92020  0.16235  0.63461  1.0000
  H   H3084     1.0  0.93125  0.18100  0.64111  1.0000
  C   C3070     1.0  0.78232  0.28382  0.69100  1.0000
  C   C3071     1.0  0.78120  0.29491  0.67715  1.0000
  C   C3072     1.0  0.78233  0.31022  0.67596  1.0000
  C   C3073     1.0  0.78449  0.31449  0.68861  1.0000
  C   C3074     1.0  0.78591  0.30331  0.70231  1.0000
  C   C3075     1.0  0.78487  0.28801  0.70348  1.0000
  H   H3085     1.0  0.77914  0.29178  0.66751  1.0000
  H   H3086     1.0  0.78122  0.31887  0.66535  1.0000
  H   H3087     1.0  0.78771  0.30646  0.71207  1.0000
  H   H3088     1.0  0.78582  0.27945  0.71418  1.0000
  C   C3076     1.0  0.79029  0.29208  0.60745  1.0000
  C   C3077     1.0  0.77587  0.29985  0.61491  1.0000
  C   C3078     1.0  0.77019  0.31570  0.60899  1.0000
  C   C3079     1.0  0.77900  0.32380  0.59574  1.0000
  C   C3080     1.0  0.79329  0.31595  0.58812  1.0000
  C   C3081     1.0  0.79879  0.30004  0.59387  1.0000
  H   H3089     1.0  0.76914  0.29373  0.62526  1.0000
  H   H3090     1.0  0.75905  0.32173  0.61482  1.0000
  H   H3091     1.0  0.98790  0.30897  0.58047  1.0000
  H   H3092     1.0  0.80967  0.29385  0.58786  1.0000
  C   C3082     1.0  0.82089  0.20011  0.65106  1.0000
  C   C3083     1.0  0.82912  0.18499  0.64966  1.0000
  C   C3084     1.0  0.84511  0.18217  0.64253  1.0000
  C   C3085     1.0  0.85289  0.19447  0.63689  1.0000
  C   C3086     1.0  0.84475  0.20951  0.63854  1.0000
  C   C3087     1.0  0.82876  0.21234  0.64555  1.0000
  H   H3093     1.0  0.82309  0.17548  0.65397  1.0000
  H   H3094     1.0  0.85138  0.17050  0.64139  1.0000
  H   H3095     1.0  0.85075  0.21905  0.63416  1.0000
  H   H3096     1.0  0.82253  0.22400  0.64650  1.0000
  C   C3088     1.0  0.72356  0.21411  0.63609  1.0000
  C   C3089     1.0  0.73731  0.21979  0.63107  1.0000
  C   C3090     1.0  0.73967  0.23011  0.63850  1.0000
  C   C3091     1.0  0.72824  0.23498  0.65094  1.0000
  C   C3092     1.0  0.71423  0.22968  0.65568  1.0000
  C   C3093     1.0  0.71194  0.21914  0.64837  1.0000
  H   H3097     1.0  0.74623  0.21611  0.62144  1.0000
  H   H3098     1.0  0.75025  0.23444  0.63444  1.0000
  H   H3099     1.0  0.70527  0.23350  0.66522  1.0000
  H   H3100     1.0  0.70124  0.21489  0.65225  1.0000
  H   H3101     1.0  0.83798  0.27473  0.63743  1.0000
  C   C3094     1.0  0.61954  0.19181  0.70646  1.0000
  C   C3095     1.0  0.62843  0.19848  0.69235  1.0000
  C   C3096     1.0  0.64457  0.19233  0.68817  1.0000
  C   C3097     1.0  0.65189  0.17969  0.69825  1.0000
  C   C3098     1.0  0.64306  0.17338  0.71258  1.0000
  C   C3099     1.0  0.62688  0.17931  0.71662  1.0000
  H   H3102     1.0  0.62281  0.20823  0.68452  1.0000
  H   H3103     1.0  0.65135  0.19738  0.67719  1.0000
  H   H3104     1.0  0.64869  0.16360  0.72040  1.0000
  H   H3105     1.0  0.62010  0.17402  0.72749  1.0000
  C   C3100     1.0  0.54267  0.15758  0.72790  1.0000
  C   C3101     1.0  0.53997  0.17297  0.70220  1.0000
  C   C3102     1.0  0.54362  0.17131  0.71656  1.0000
  H   H3106     1.0  0.54019  0.18382  0.69366  1.0000
  H   H3107     1.0  0.54653  0.18088  0.71907  1.0000
  H   H3108     1.0  0.77271  0.43434  0.65529  1.0000
  H   H3109     1.0  0.71733  0.99228  0.58196  1.0000
  H   H3110     1.0  0.96689  0.21807  0.66832  1.0000
  H   H3111     1.0  0.75911  0.39193  0.68231  1.0000
  H   H3112     1.0  0.76710  0.20770  0.66754  1.0000
  C   C3103     1.0  0.49646  0.16344  0.71662  1.0000
  H   H3113     1.0  0.50113  0.17362  0.71004  1.0000
  C   C3104     1.0  0.85476  0.46268  0.67659  1.0000
  S   S1058     1.0  0.53532  0.08574  0.69555  1.0000
  C   C3105     1.0  0.82753  0.20657  0.61122  1.0000
  C   C3106     1.0  0.73399  0.18907  0.66768  1.0000
  H   H3114     1.0  0.80709  0.14471  0.62495  1.0000
  H   H3115     1.0  0.53945  0.00835  0.75049  1.0000
  H   H3116     1.0  0.58149  0.08684  0.62380  1.0000
  H   H3117     1.0  0.85212  0.20125  0.60056  1.0000
  H   H3118     1.0  0.91619  0.11065  0.65546  1.0000
  H   H3119     1.0  0.83258  0.11851  0.58033  1.0000
  H   H3120     1.0  0.87858  0.09084  0.65683  1.0000
  S   S1059     1.0  0.50912  0.12797  0.69241  1.0000
  C   C3107     1.0  0.85362  0.08536  0.61624  1.0000
  C   C3108     1.0  0.86743  0.09095  0.61168  1.0000
  C   C3109     1.0  0.86943  0.10141  0.61925  1.0000
  C   C3110     1.0  0.85782  0.10595  0.63177  1.0000
  C   C3111     1.0  0.84414  0.10014  0.63650  1.0000
  C   C3112     1.0  0.84190  0.09014  0.62857  1.0000
  H   H3121     1.0  0.87652  0.08733  0.60212  1.0000
  H   H3122     1.0  0.87998  0.10587  0.61544  1.0000
  H   H3123     1.0  0.83513  0.10352  0.64621  1.0000
  H   H3124     1.0  0.83123  0.08586  0.63224  1.0000
  C   C3113     1.0  0.76267  0.11806  0.63014  1.0000
  C   C3114     1.0  0.75443  0.13336  0.63069  1.0000
  C   C3115     1.0  0.73801  0.13703  0.63382  1.0000
  C   C3116     1.0  0.72982  0.12534  0.63664  1.0000
  C   C3117     1.0  0.73805  0.10996  0.63651  1.0000
  C   C3118     1.0  0.75447  0.10635  0.63310  1.0000
  H   H3125     1.0  0.76076  0.14244  0.62839  1.0000
  H   H3126     1.0  0.73172  0.14894  0.63379  1.0000
  H   H3127     1.0  0.73173  0.10086  0.63887  1.0000
  H   H3128     1.0  0.76078  0.09448  0.63291  1.0000
  H   H3129     1.0  0.96458  0.20573  0.61799  1.0000
  C   C3119     1.0  0.76776  0.01049  0.58822  1.0000
  H   H3130     1.0  0.49661  0.04032  0.72074  1.0000
  S   S1060     1.0  0.96129  0.17907  0.64654  1.0000
  C   C3120     1.0  0.80256  0.99567  0.60350  1.0000
  C   C3121     1.0  0.80756  0.00959  0.59609  1.0000
  C   C3122     1.0  0.80295  0.02216  0.60344  1.0000
  C   C3123     1.0  0.79371  0.02076  0.61848  1.0000
  C   C3124     1.0  0.78836  0.00696  0.62578  1.0000
  C   C3125     1.0  0.79263  0.99448  0.61824  1.0000
  C   C3126     1.0  0.50296  0.02213  0.75681  1.0000
  H   H3131     1.0  0.80697  0.03273  0.59759  1.0000
  H   H3132     1.0  0.78117  0.00580  0.63743  1.0000
  H   H3133     1.0  0.60824  0.12204  0.60263  1.0000
  H   H3134     1.0  0.81502  0.03645  0.64570  1.0000
  H   H3135     1.0  0.79727  0.41884  0.64197  1.0000
  H   H3136     1.0  0.57140  0.23751  0.73951  1.0000
  C   C3127     1.0  0.84161  0.37729  0.70975  1.0000
  H   H3137     1.0  0.84069  0.27403  0.61732  1.0000
  N   N258      1.0  0.68551  0.14366  0.60358  1.0000
  C   C3128     1.0  0.57642  0.12216  0.63185  1.0000
  C   C3129     1.0  0.50015  0.03422  0.74406  1.0000
  N   N259      1.0  0.74340  0.08918  0.58805  1.0000
  H   H3138     1.0  0.80512  0.46852  0.71025  1.0000
  C   C3130     1.0  0.73049  0.09375  0.59901  1.0000
  Fe  Fe535     1.0  0.52647  0.10927  0.68140  1.0000
  C   C3131     1.0  0.72899  0.10686  0.60473  1.0000
  C   C3132     1.0  0.88651  0.10909  0.66993  1.0000
  S   S1061     1.0  0.85483  0.48235  0.75811  1.0000
  H   H3139     1.0  0.72903  0.28909  0.69709  1.0000
  H   H3140     1.0  0.78876  0.98375  0.62407  1.0000
  Fe  Fe536     1.0  0.76707  0.33750  0.74373  1.0000
  S   S1062     1.0  0.57966  0.17183  0.58003  1.0000
  S   S1063     1.0  0.97593  0.45113  0.75194  1.0000
  H   H3141     1.0  0.68083  0.13257  0.62745  1.0000
  H   H3142     1.0  0.98893  0.24407  0.62505  1.0000
  C   C3133     1.0  0.64057  0.17437  0.59278  1.0000
  C   C3134     1.0  0.60388  0.18076  0.68032  1.0000
  H   H3143     1.0  0.75334  0.42065  0.67514  1.0000
  H   H3144     1.0  0.74745  0.32896  0.70909  1.0000
  H   H3145     1.0  0.68423  0.99180  0.58702  1.0000
  Fe  Fe537     1.0  0.95659  0.47253  0.75027  1.0000
  H   H3146     1.0  0.58069  0.15023  0.62562  1.0000
  C   C3135     1.0  0.67572  0.14297  0.61929  1.0000
  C   C3136     1.0  0.56032  0.13420  0.59952  1.0000
  H   H3147     1.0  0.88544  0.10036  0.68109  1.0000
  H   H3148     1.0  0.79273  0.40567  0.72835  1.0000
  N   N260      1.0  0.83093  0.02287  0.63019  1.0000
  H   H3149     1.0  0.83923  0.00101  0.60353  1.0000
  H   H3150     1.0  0.89473  0.07813  0.63541  1.0000
  C   C3137     1.0  0.53533  0.14690  0.71011  1.0000
  N   N261      1.0  0.74496  0.29324  0.70770  1.0000
  C   C3138     1.0  0.52114  0.08061  0.74181  1.0000
  C   C3139     1.0  0.74801  0.28502  0.72185  1.0000
  C   C3140     1.0  0.78427  0.37229  0.66971  1.0000
  H   H3151     1.0  0.60974  0.21225  0.72955  1.0000
  C   C3141     1.0  0.52401  0.10716  0.73079  1.0000
  H   H3152     1.0  0.52109  0.05627  0.70548  1.0000
  C   C3142     1.0  0.91491  0.08706  0.63346  1.0000
  H   H3153     1.0  0.71887  0.11032  0.61362  1.0000
  C   C3143     1.0  0.51469  0.06025  0.69593  1.0000
  N   N262      1.0  0.78108  0.38934  0.66597  1.0000
  C   C3144     1.0  0.90773  0.20545  0.60931  1.0000
  C   C3145     1.0  0.77495  0.42170  0.65809  1.0000
  Fe  Fe538     1.0  0.99037  0.46742  0.75167  1.0000
  C   C3146     1.0  0.67361  0.07916  0.58608  1.0000
  H   H3154     1.0  0.52317  0.06435  0.68523  1.0000
  H   H3155     1.0  0.80477  0.24304  0.60876  1.0000
  H   H3156     1.0  0.82781  0.38024  0.61478  1.0000
  Fe  Fe539     1.0  0.57035  0.18832  0.76616  1.0000
  S   S1064     1.0  0.50687  0.10160  0.76036  1.0000
  C   C3147     1.0  0.93057  0.20268  0.58245  1.0000
  C   C3148     1.0  0.60791  0.24165  0.75328  1.0000
  H   H3157     1.0  0.77130  0.01317  0.59733  1.0000
  H   H3158     1.0  0.87462  0.11465  0.66759  1.0000
  H   H3159     1.0  0.85654  0.01963  0.58942  1.0000
  C   C3149     1.0  0.77905  0.00544  0.57577  1.0000
  C   C3150     1.0  0.84961  0.12730  0.58563  1.0000
  H   H3160     1.0  0.73613  0.35372  0.75604  1.0000
  H   H3161     1.0  0.49874  0.07943  0.67534  1.0000
  C   C3151     1.0  0.73681  0.33282  0.77410  1.0000
  C   C3152     1.0  0.49986  0.15608  0.73120  1.0000
  C   C3153     1.0  0.67997  0.14180  0.59198  1.0000
  C   C3154     1.0  0.81381  0.39219  0.59781  1.0000
  C   C3155     1.0  0.79166  0.39676  0.65477  1.0000
  C   C3156     1.0  0.80462  0.36829  0.75769  1.0000
  C   C3157     1.0  0.98082  0.23660  0.63152  1.0000
  C   C3158     1.0  0.85086  0.40689  0.58511  1.0000
  H   H3162     1.0  0.81770  0.48184  0.72167  1.0000
  H   H3163     1.0  0.59250  0.18840  0.67964  1.0000
  S   S1065     1.0  0.84106  0.47568  0.62747  1.0000
  N   N263      1.0  0.85324  0.47796  0.67969  1.0000
  H   H3164     1.0  0.85308  0.22876  0.58862  1.0000
  C   C3159     1.0  0.81842  0.35849  0.75171  1.0000
  H   H3165     1.0  0.85735  0.04026  0.60181  1.0000
  H   H3166     1.0  0.80229  0.41240  0.74795  1.0000
  C   C3160     1.0  0.75193  0.01240  0.58859  1.0000
  C   C3161     1.0  0.66699  0.17854  0.58458  1.0000
  H   H3167     1.0  0.85986  0.38253  0.58551  1.0000
  H   H3168     1.0  0.65207  0.07423  0.58533  1.0000
  C   C3162     1.0  0.82596  0.39984  0.74106  1.0000
  H   H3169     1.0  0.95348  0.20848  0.65414  1.0000
  H   H3170     1.0  0.95105  0.22439  0.61425  1.0000
  S   S1066     1.0  0.49982  0.01158  0.71246  1.0000
  C   C3163     1.0  0.99031  0.33540  0.62056  1.0000
  C   C3164     1.0  0.49457  0.14255  0.73940  1.0000
  H   H3171     1.0  0.97542  0.23408  0.61121  1.0000
  H   H3172     1.0  0.63424  0.21583  0.73318  1.0000
  H   H3173     1.0  0.82289  0.00333  0.62949  1.0000
  C   C3165     1.0  0.50051  0.01557  0.72972  1.0000
  H   H3174     1.0  0.72127  0.14976  0.58331  1.0000
  H   H3175     1.0  0.79638  0.33368  0.61691  1.0000
  H   H3176     1.0  0.72444  0.18431  0.66744  1.0000
  C   C3166     1.0  0.59117  0.14279  0.61958  1.0000
  C   C3167     1.0  0.75776  0.20241  0.66776  1.0000
  C   C3168     1.0  0.60508  0.16814  0.69301  1.0000
  S   S1067     1.0  0.50962  0.14945  0.65718  1.0000
  C   C3169     1.0  0.54924  0.13859  0.61244  1.0000
  H   H3177     1.0  0.74873  0.27255  0.72526  1.0000
  C   C3170     1.0  0.89430  0.46287  0.76189  1.0000
  H   H3178     1.0  0.82708  0.19454  0.61676  1.0000
  S   S1068     1.0  0.79106  0.32770  0.73082  1.0000
  C   C3171     1.0  0.62240  0.23318  0.74682  1.0000
  N   N264      1.0  0.74822  0.18619  0.65767  1.0000
  C   C3172     1.0  0.57377  0.10748  0.63313  1.0000
  N   N265      1.0  0.82225  0.29224  0.62524  1.0000
  C   C3173     1.0  0.82832  0.30376  0.61414  1.0000
  C   C3174     1.0  0.80744  0.29553  0.63411  1.0000
  C   C3175     1.0  0.81913  0.31884  0.61098  1.0000
  C   C3176     1.0  0.79799  0.31052  0.63138  1.0000
  C   C3177     1.0  0.80382  0.32217  0.61957  1.0000
  C   C3178     1.0  0.83187  0.27638  0.62802  1.0000
  H   H3179     1.0  0.84021  0.30121  0.60739  1.0000
  H   H3180     1.0  0.80267  0.28642  0.64301  1.0000
  H   H3181     1.0  0.82377  0.32778  0.60173  1.0000
  H   H3182     1.0  0.49760  0.13639  0.75047  1.0000
  C   C3179     1.0  0.75504  0.09732  0.58263  1.0000
  C   C3180     1.0  0.54752  0.15322  0.61537  1.0000
  C   C3181     1.0  0.90452  0.20223  0.59667  1.0000
  H   H3183     1.0  0.62094  0.14911  0.70444  1.0000
  H   H3184     1.0  0.74480  0.27259  0.70113  1.0000
  C   C3182     1.0  0.84159  0.21033  0.60218  1.0000
  H   H3185     1.0  0.58827  0.11914  0.75966  1.0000
  H   H3186     1.0  0.53366  0.12688  0.76791  1.0000
  H   H3187     1.0  0.53474  0.11212  0.70644  1.0000
  H   H3188     1.0  0.85557  0.40656  0.59485  1.0000
  C   C3183     1.0  0.63295  0.16151  0.68287  1.0000
  H   H3189     1.0  0.84598  0.19106  0.57678  1.0000
  C   C3184     1.0  0.74089  0.11516  0.59929  1.0000
  H   H3190     1.0  0.79344  0.38324  0.77384  1.0000
  C   C3185     1.0  0.53875  0.14531  0.72455  1.0000
  C   C3186     1.0  0.59616  0.10336  0.61214  1.0000
  C   C3187     1.0  0.76006  0.19264  0.65769  1.0000
  C   C3188     1.0  0.75084  0.17643  0.64659  1.0000
  H   H3191     1.0  0.77132  0.19047  0.64973  1.0000
  H   H3192     1.0  0.75344  0.18342  0.63454  1.0000
  H   H3193     1.0  0.76069  0.16626  0.64843  1.0000
  H   H3194     1.0  0.74030  0.17199  0.64771  1.0000
  C   C3189     1.0  0.51854  0.09595  0.74338  1.0000
  C   C3190     1.0  0.53173  0.08860  0.71433  1.0000
  H   H3195     1.0  0.74256  0.31531  0.69184  1.0000
  C   C3191     1.0  0.65159  0.18202  0.61005  1.0000
  C   C3192     1.0  0.97834  0.23218  0.64766  1.0000
  C   C3193     1.0  0.81026  0.40526  0.74016  1.0000
  H   H3196     1.0  0.80246  0.39012  0.64894  1.0000
  H   H3197     1.0  0.71168  0.36831  0.77026  1.0000
  H   H3198     1.0  0.83534  0.37104  0.70551  1.0000
  H   H3199     1.0  0.84830  0.38650  0.73167  1.0000
  H   H3200     1.0  0.63084  0.17151  0.59049  1.0000
  H   H3201     1.0  0.81527  0.38192  0.59359  1.0000
  C   C3194     1.0  0.58044  0.22649  0.74065  1.0000
  H   H3202     1.0  0.74306  0.01657  0.59804  1.0000
  C   C3195     1.0  0.81586  0.13363  0.62711  1.0000
  C   C3196     1.0  0.80491  0.40150  0.72915  1.0000
  H   H3203     1.0  0.97499  0.14765  0.64140  1.0000
  H   H3204     1.0  0.82151  0.13360  0.63640  1.0000
  H   H3205     1.0  0.58238  0.22190  0.73012  1.0000
  Fe  Fe540     1.0  0.52696  0.12889  0.64910  1.0000
  H   H3206     1.0  0.74877  0.28850  0.68544  1.0000
  S   S1069     1.0  0.52940  0.16389  0.68163  1.0000
  C   C3197     1.0  0.63127  0.17412  0.67025  1.0000
  S   S1070     1.0  0.81956  0.35043  0.73601  1.0000
  H   H3207     1.0  0.55516  0.17496  0.60732  1.0000
  S   S1071     1.0  0.53821  0.12526  0.62493  1.0000
  S   S1072     1.0  0.93293  0.47303  0.76627  1.0000
  C   C3198     1.0  0.85315  0.39332  0.57984  1.0000
  C   C3199     1.0  0.49514  0.07579  0.71346  1.0000
  C   C3200     1.0  0.93100  0.24990  0.57938  1.0000
  C   C3201     1.0  0.83611  0.39066  0.73093  1.0000
  H   H3208     1.0  0.58296  0.24551  0.75664  1.0000
  C   C3202     1.0  0.61561  0.19700  0.65603  1.0000
  H   H3209     1.0  0.62583  0.20253  0.65292  1.0000
  H   H3210     1.0  0.61541  0.19298  0.64576  1.0000
  H   H3211     1.0  0.60492  0.20613  0.65865  1.0000
  N   N266      1.0  0.82747  0.13164  0.61272  1.0000
  C   C3203     1.0  0.84139  0.13602  0.60967  1.0000
  C   C3204     1.0  0.82409  0.12582  0.60218  1.0000
  C   C3205     1.0  0.85275  0.13373  0.59619  1.0000
  H   H3212     1.0  0.55281  0.00170  0.71643  1.0000
  H   H3213     1.0  0.80340  0.21564  0.62122  1.0000
  C   C3206     1.0  0.84057  0.03302  0.62262  1.0000
  H   H3214     1.0  0.86406  0.13658  0.59408  1.0000
  C   C3207     1.0  0.81538  0.39222  0.71925  1.0000
  C   C3208     1.0  0.83514  0.12347  0.58853  1.0000
  H   H3215     1.0  0.52227  0.11892  0.73204  1.0000
  H   H3216     1.0  0.96052  0.41316  0.77156  1.0000
  C   C3209     1.0  0.56978  0.14430  0.58965  1.0000
  H   H3217     1.0  0.56121  0.12586  0.75563  1.0000
  Fe  Fe541     1.0  0.97755  0.25922  0.57781  1.0000
  N   N267      1.0  0.89638  0.10155  0.65732  1.0000
  C   C3210     1.0  0.89052  0.09231  0.65199  1.0000
  C   C3211     1.0  0.91145  0.10338  0.65125  1.0000
  C   C3212     1.0  0.89963  0.08505  0.63990  1.0000
  C   C3213     1.0  0.92092  0.09619  0.63922  1.0000
  C   C3214     1.0  0.53077  0.10341  0.71630  1.0000
  C   C3215     1.0  0.92034  0.46646  0.75952  1.0000
  C   C3216     1.0  0.74760  0.00937  0.57651  1.0000
  H   H3218     1.0  0.88223  0.46384  0.76806  1.0000
  C   C3217     1.0  0.49885  0.03096  0.73055  1.0000
  H   H3219     1.0  0.66352  0.14253  0.61979  1.0000
  C   C3218     1.0  0.73044  0.34818  0.76743  1.0000
  S   S1073     1.0  0.95529  0.25124  0.59067  1.0000
  H   H3220     1.0  0.80965  0.12383  0.63158  1.0000
  C   C3219     1.0  0.96847  0.22199  0.65582  1.0000
  S   S1074     1.0  0.84336  0.44930  0.76557  1.0000
  Fe  Fe542     1.0  0.98214  0.45881  0.72605  1.0000
  N   N268      1.0  0.50104  0.07293  0.69887  1.0000
  C   C3220     1.0  0.80410  0.37539  0.76954  1.0000
  H   H3221     1.0  0.67994  0.06714  0.58715  1.0000
  C   C3221     1.0  0.57943  0.11333  0.76788  1.0000
  H   H3222     1.0  0.84527  0.45707  0.68460  1.0000
  H   H3223     1.0  0.78473  0.47050  0.69709  1.0000
  C   C3222     1.0  0.92263  0.20740  0.60834  1.0000
  S   S1075     1.0  0.63095  0.10404  0.57956  1.0000
  C   C3223     1.0  0.68124  0.09072  0.58537  1.0000
  H   H3224     1.0  0.50466  0.99152  0.74192  1.0000
  H   H3225     1.0  0.92522  0.20987  0.61809  1.0000
  H   H3226     1.0  0.92355  0.25683  0.58756  1.0000
  H   H3227     1.0  0.63307  0.23464  0.74876  1.0000
  H   H3228     1.0  0.79450  0.37093  0.75278  1.0000
  C   C3224     1.0  0.84954  0.02039  0.60096  1.0000
  H   H3229     1.0  0.84247  0.34819  0.75319  1.0000
  S   S1076     1.0  0.56722  0.16363  0.77327  1.0000
  C   C3225     1.0  0.54159  0.98567  0.76559  1.0000
  H   H3230     1.0  0.80004  0.32209  0.57777  1.0000
  H   H3231     1.0  0.98321  0.47394  0.69514  1.0000
  H   H3232     1.0  0.49513  0.16866  0.68688  1.0000
  Fe  Fe543     1.0  0.98734  0.17494  0.64466  1.0000
  H   H3233     1.0  0.81206  0.01729  0.64923  1.0000
  H   H3234     1.0  0.67779  0.17878  0.57589  1.0000
  S   S1077     1.0  0.61069  0.13835  0.77032  1.0000
  Fe  Fe544     1.0  0.83461  0.47210  0.77309  1.0000
  C   C3226     1.0  0.56405  0.11723  0.76579  1.0000
  C   C3227     1.0  0.67302  0.10619  0.58408  1.0000
  S   S1078     1.0  0.80881  0.36232  0.57859  1.0000
  C   C3228     1.0  0.86113  0.47930  0.68976  1.0000
  H   H3235     1.0  0.89293  0.20060  0.59755  1.0000
  C   C3229     1.0  0.53676  0.11445  0.77392  1.0000
  H   H3236     1.0  0.83204  0.25896  0.59929  1.0000
  H   H3237     1.0  0.80926  0.41619  0.77362  1.0000
  C   C3230     1.0  0.65735  0.11025  0.58282  1.0000
  H   H3238     1.0  0.80994  0.48252  0.64641  1.0000
  C   C3231     1.0  0.65459  0.17437  0.58162  1.0000
  H   H3239     1.0  0.65124  0.12233  0.58128  1.0000
  S   S1079     1.0  0.99176  0.44199  0.71046  1.0000
  H   H3240     1.0  0.98498  0.34748  0.61624  1.0000
  C   C3232     1.0  0.84168  0.30642  0.57547  1.0000
  C   C3233     1.0  0.82974  0.25379  0.59080  1.0000
  C   C3234     1.0  0.68915  0.14284  0.57689  1.0000
  H   H3241     1.0  0.53564  0.10701  0.76676  1.0000
  H   H3242     1.0  0.83919  0.25492  0.58017  1.0000
  H   H3243     1.0  0.59567  0.19956  0.77524  1.0000
  H   H3244     1.0  0.73621  0.98311  0.59919  1.0000
  H   H3245     1.0  0.87622  0.42953  0.77472  1.0000
  H   H3246     1.0  0.56925  0.04065  0.83998  1.0000
  Fe  Fe545     1.0  0.53832  0.09550  0.83850  1.0000
  S   S1080     1.0  0.55846  0.07537  0.83501  1.0000
  S   S1081     1.0  0.52357  0.10629  0.82090  1.0000
  Fe  Fe546     1.0  0.54348  0.09669  0.86937  1.0000
  S   S1082     1.0  0.56386  0.07615  0.86892  1.0000
  S   S1083     1.0  0.53383  0.11277  0.88602  1.0000
  Fe  Fe547     1.0  0.57093  0.08786  0.84386  1.0000
  H   H3247     1.0  0.57464  0.08617  0.80157  1.0000
  Fe  Fe548     1.0  0.54939  0.06553  0.86013  1.0000
  S   S1084     1.0  0.54493  0.04115  0.86817  1.0000
  S   S1085     1.0  0.55157  0.10903  0.84489  1.0000
  S   S1086     1.0  0.52822  0.08507  0.86307  1.0000
  Fe  Fe549     1.0  0.56084  0.16695  0.93873  1.0000
  S   S1087     1.0  0.58363  0.17148  0.93917  1.0000
  S   S1088     1.0  0.53938  0.18639  0.93871  1.0000
  Fe  Fe550     1.0  0.57511  0.13323  0.93652  1.0000
  S   S1089     1.0  0.59895  0.13522  0.93706  1.0000
  S   S1090     1.0  0.57385  0.11018  0.93325  1.0000
  Fe  Fe551     1.0  0.58618  0.14841  0.95590  1.0000
  C   C3235     1.0  0.59462  0.48095  0.90805  1.0000
  Fe  Fe552     1.0  0.59365  0.15808  0.92045  1.0000
  S   S1091     1.0  0.60928  0.16726  0.89816  1.0000
  S   S1092     1.0  0.56265  0.14456  0.95671  1.0000
  S   S1093     1.0  0.57071  0.15525  0.91863  1.0000
  H   H3248     1.0  0.79442  0.41949  0.82857  1.0000
  Fe  Fe553     1.0  0.58466  0.27977  0.82702  1.0000
  S   S1094     1.0  0.56967  0.30395  0.82340  1.0000
  Fe  Fe554     1.0  0.58843  0.24834  0.84889  1.0000
  S   S1095     1.0  0.61235  0.23959  0.83520  1.0000
  S   S1096     1.0  0.57510  0.23541  0.87094  1.0000
  Fe  Fe555     1.0  0.61668  0.26313  0.83310  1.0000
  S   S1097     1.0  0.64001  0.26594  0.83479  1.0000
  S   S1098     1.0  0.59377  0.27084  0.84880  1.0000
  S   S1099     1.0  0.57726  0.25793  0.82835  1.0000
  H   H3249     1.0  0.95866  0.45764  0.80658  1.0000
  C   C3236     1.0  0.98542  0.39990  0.89546  1.0000
  Fe  Fe556     1.0  0.54652  0.42623  0.88593  1.0000
  S   S1100     1.0  0.55202  0.43986  0.86143  1.0000
  S   S1101     1.0  0.52869  0.41096  0.89543  1.0000
  Fe  Fe557     1.0  0.56941  0.43850  0.89600  1.0000
  S   S1102     1.0  0.57711  0.45247  0.87223  1.0000
  S   S1103     1.0  0.57802  0.44302  0.91459  1.0000
  Fe  Fe558     1.0  0.55166  0.45946  0.87190  1.0000
  Fe  Fe559     1.0  0.57692  0.43161  0.86423  1.0000
  S   S1104     1.0  0.59579  0.42247  0.84537  1.0000
  S   S1105     1.0  0.54383  0.44663  0.89623  1.0000
  S   S1106     1.0  0.57159  0.41671  0.88815  1.0000
  Fe  Fe560     1.0  0.68356  0.43954  0.91558  1.0000
  C   C3237     1.0  0.51572  0.25908  0.88973  1.0000
  S   S1107     1.0  0.70242  0.44327  0.89418  1.0000
  Fe  Fe561     1.0  0.65346  0.45489  0.93478  1.0000
  S   S1108     1.0  0.50330  0.38332  0.85343  1.0000
  H   H3250     1.0  0.80871  0.40713  0.80645  1.0000
  Fe  Fe562     1.0  0.65687  0.42310  0.92864  1.0000
  S   S1109     1.0  0.64628  0.40729  0.92182  1.0000
  H   H3251     1.0  0.58638  0.39136  0.86904  1.0000
  S   S1110     1.0  0.65869  0.44641  0.91290  1.0000
  H   H3252     1.0  0.51299  0.27151  0.88478  1.0000
  Fe  Fe563     1.0  0.74220  0.35322  0.92574  1.0000
  S   S1111     1.0  0.76287  0.35754  0.90652  1.0000
  S   S1112     1.0  0.72002  0.34956  0.92242  1.0000
  Fe  Fe564     1.0  0.76300  0.37625  0.91776  1.0000
  H   H3253     1.0  0.57755  0.02330  0.82138  1.0000
  Fe  Fe565     1.0  0.77696  0.34209  0.92358  1.0000
  S   S1113     1.0  0.79727  0.32314  0.91669  1.0000
  Fe  Fe566     1.0  0.69584  0.33582  0.85608  1.0000
  S   S1114     1.0  0.69360  0.36037  0.84235  1.0000
  S   S1115     1.0  0.71874  0.32719  0.86381  1.0000
  Fe  Fe567     1.0  0.66427  0.33347  0.85252  1.0000
  S   S1116     1.0  0.66003  0.35787  0.83835  1.0000
  S   S1117     1.0  0.64249  0.32388  0.85828  1.0000
  Fe  Fe568     1.0  0.68520  0.35177  0.82627  1.0000
  S   S1118     1.0  0.69240  0.36047  0.80049  1.0000
  Fe  Fe569     1.0  0.66886  0.36397  0.85578  1.0000
  S   S1119     1.0  0.65747  0.38389  0.86784  1.0000
  S   S1120     1.0  0.68899  0.32677  0.83900  1.0000
  S   S1121     1.0  0.67153  0.34001  0.87091  1.0000
  S   S1122     1.0  0.63756  0.47754  0.93952  1.0000
  H   H3254     1.0  0.55889  0.28137  0.85042  1.0000
  H   H3255     1.0  0.84567  0.44541  0.79681  1.0000
  C   C3238     1.0  0.60699  0.18224  0.81110  1.0000
  C   C3239     1.0  0.97640  0.39281  0.79556  1.0000
  H   H3256     1.0  0.51177  0.13150  0.86686  1.0000
  Fe  Fe570     1.0  0.83463  0.39133  0.83068  1.0000
  S   S1123     1.0  0.84490  0.39560  0.80518  1.0000
  S   S1124     1.0  0.82317  0.41061  0.84347  1.0000
  Fe  Fe571     1.0  0.84307  0.35636  0.83423  1.0000
  S   S1125     1.0  0.85451  0.35791  0.80888  1.0000
  S   S1126     1.0  0.84326  0.33310  0.85077  1.0000
  Fe  Fe572     1.0  0.86495  0.37636  0.81173  1.0000
  S   S1127     1.0  0.88967  0.38026  0.80126  1.0000
  Fe  Fe573     1.0  0.83336  0.37703  0.80501  1.0000
  H   H3257     1.0  0.73406  0.37599  0.78878  1.0000
  S   S1128     1.0  0.85514  0.37309  0.83734  1.0000
  S   S1129     1.0  0.82141  0.37429  0.83024  1.0000
  H   H3258     1.0  0.75882  0.35948  0.77768  1.0000
  H   H3259     1.0  0.61360  0.21219  0.78061  1.0000
  S   S1130     1.0  0.68233  0.41628  0.97287  1.0000
  H   H3260     1.0  0.60391  0.33068  0.82394  1.0000
  H   H3261     1.0  0.49970  0.44857  0.89995  1.0000
  H   H3262     1.0  0.77532  0.33457  0.77742  1.0000
  H   H3263     1.0  0.78635  0.44835  0.82419  1.0000
  H   H3264     1.0  0.60641  0.30709  0.81445  1.0000
  H   H3265     1.0  0.78145  0.32987  0.79554  1.0000
  H   H3266     1.0  0.54452  0.01044  0.79714  1.0000
  S   S1131     1.0  0.51028  0.27581  0.94759  1.0000
  S   S1132     1.0  0.49866  0.24490  0.97227  1.0000
  H   H3267     1.0  0.94796  0.40915  0.79067  1.0000
  C   C3240     1.0  0.79691  0.42664  0.81695  1.0000
  H   H3268     1.0  0.72199  0.47484  0.95792  1.0000
  H   H3269     1.0  0.88852  0.42824  0.82705  1.0000
  C   C3241     1.0  0.53360  0.01594  0.80384  1.0000
  S   S1133     1.0  0.97011  0.38507  0.83005  1.0000
  C   C3242     1.0  0.97760  0.45659  0.81680  1.0000
  C   C3243     1.0  0.50444  0.12458  0.86564  1.0000
  H   H3270     1.0  0.98528  0.38784  0.90118  1.0000
  C   C3244     1.0  0.58328  0.10198  0.78074  1.0000
  H   H3271     1.0  0.49764  0.37950  0.88692  1.0000
  C   C3245     1.0  0.49821  0.11404  0.87849  1.0000
  H   H3272     1.0  0.63297  0.29194  0.80454  1.0000
  Fe  Fe574     1.0  0.96599  0.42659  0.83421  1.0000
  H   H3273     1.0  0.75297  0.32283  0.81773  1.0000
  C   C3246     1.0  0.51066  0.45157  0.85574  1.0000
  C   C3247     1.0  0.91462  0.39379  0.83103  1.0000
  C   C3248     1.0  0.89895  0.39254  0.83646  1.0000
  C   C3249     1.0  0.89133  0.38831  0.82746  1.0000
  C   C3250     1.0  0.89930  0.38514  0.81294  1.0000
  C   C3251     1.0  0.91502  0.38645  0.80742  1.0000
  C   C3252     1.0  0.92270  0.39071  0.81646  1.0000
  H   H3274     1.0  0.89260  0.39497  0.84767  1.0000
  H   H3275     1.0  0.87921  0.38776  0.83173  1.0000
  H   H3276     1.0  0.92129  0.38403  0.79619  1.0000
  H   H3277     1.0  0.93482  0.39150  0.81227  1.0000
  H   H3278     1.0  0.79110  0.30210  0.90092  1.0000
  H   H3279     1.0  0.59004  0.15872  0.79349  1.0000
  C   C3253     1.0  0.53331  0.02775  0.81080  1.0000
  C   C3254     1.0  0.60108  0.21598  0.78451  1.0000
  S   S1134     1.0  0.75623  0.33606  0.94221  1.0000
  C   C3255     1.0  0.59061  0.21086  0.92334  1.0000
  H   H3280     1.0  0.98688  0.44219  0.87349  1.0000
  H   H3281     1.0  0.52147  0.47027  0.85434  1.0000
  H   H3282     1.0  0.76876  0.31364  0.92053  1.0000
  C   C3256     1.0  0.70924  0.34948  0.79036  1.0000
  C   C3257     1.0  0.71562  0.33411  0.79702  1.0000
  C   C3258     1.0  0.72932  0.32576  0.78884  1.0000
  H   H3283     1.0  0.79283  0.38027  0.97022  1.0000
  H   H3284     1.0  0.97419  0.46218  0.77972  1.0000
  H   H3285     1.0  0.62356  0.20383  0.89563  1.0000
  H   H3286     1.0  0.71003  0.32864  0.80844  1.0000
  H   H3287     1.0  0.73421  0.31386  0.79403  1.0000
  S   S1135     1.0  0.49352  0.34787  0.88587  1.0000
  C   C3259     1.0  0.98055  0.42056  0.78927  1.0000
  C   C3260     1.0  0.80926  0.32655  0.89798  1.0000
  C   C3261     1.0  0.80607  0.34038  0.88687  1.0000
  C   C3262     1.0  0.81636  0.34265  0.87218  1.0000
  C   C3263     1.0  0.82966  0.33099  0.86863  1.0000
  C   C3264     1.0  0.83249  0.31710  0.87964  1.0000
  C   C3265     1.0  0.82239  0.31492  0.89423  1.0000
  H   H3288     1.0  0.79594  0.34944  0.88966  1.0000
  H   H3289     1.0  0.81408  0.35338  0.86368  1.0000
  H   H3290     1.0  0.84272  0.30805  0.87692  1.0000
  H   H3291     1.0  0.82488  0.30419  0.90271  1.0000
  C   C3266     1.0  0.71971  0.34485  0.90526  1.0000
  C   C3267     1.0  0.70575  0.34239  0.90379  1.0000
  C   C3268     1.0  0.70525  0.33762  0.89075  1.0000
  C   C3269     1.0  0.71878  0.33508  0.87918  1.0000
  C   C3270     1.0  0.73266  0.33798  0.88039  1.0000
  C   C3271     1.0  0.73311  0.34296  0.89337  1.0000
  H   H3292     1.0  0.69534  0.34387  0.91294  1.0000
  H   H3293     1.0  0.69453  0.33529  0.88999  1.0000
  H   H3294     1.0  0.74316  0.33608  0.87143  1.0000
  H   H3295     1.0  0.74394  0.34480  0.89441  1.0000
  C   C3272     1.0  0.82617  0.45785  0.81130  1.0000
  C   C3273     1.0  0.81583  0.45689  0.82583  1.0000
  C   C3274     1.0  0.81557  0.44240  0.83617  1.0000
  C   C3275     1.0  0.82572  0.42893  0.83199  1.0000
  C   C3276     1.0  0.83700  0.43016  0.81810  1.0000
  C   C3277     1.0  0.83713  0.44457  0.80766  1.0000
  H   H3296     1.0  0.80753  0.46722  0.82879  1.0000
  H   H3297     1.0  0.80702  0.44156  0.84707  1.0000
  H   H3298     1.0  0.84560  0.42003  0.81539  1.0000
  H   H3299     1.0  0.62976  0.17090  0.79966  1.0000
  H   H3300     1.0  0.54757  0.09348  0.79738  1.0000
  C   C3278     1.0  0.55418  0.21294  0.95785  1.0000
  C   C3279     1.0  0.72077  0.43173  0.89687  1.0000
  C   C3280     1.0  0.72262  0.42243  0.91143  1.0000
  C   C3281     1.0  0.73716  0.41261  0.91323  1.0000
  C   C3282     1.0  0.74987  0.41209  0.90050  1.0000
  C   C3283     1.0  0.74816  0.42176  0.88605  1.0000
  C   C3284     1.0  0.73359  0.43152  0.88422  1.0000
  H   H3301     1.0  0.71291  0.42291  0.92135  1.0000
  H   H3302     1.0  0.73858  0.40570  0.92455  1.0000
  H   H3303     1.0  0.73221  0.43881  0.87298  1.0000
  H   H3304     1.0  0.52802  0.11285  0.78512  1.0000
  H   H3305     1.0  0.64968  0.45776  0.96505  1.0000
  H   H3306     1.0  0.62177  0.23958  0.88095  1.0000
  S   S1136     1.0  0.82438  0.47537  0.79740  1.0000
  C   C3285     1.0  0.90700  0.43278  0.80698  1.0000
  C   C3286     1.0  0.59089  0.20890  0.78130  1.0000
  H   H3307     1.0  0.61878  0.15565  0.78836  1.0000
  C   C3287     1.0  0.61318  0.41248  0.85141  1.0000
  C   C3288     1.0  0.62545  0.40468  0.84140  1.0000
  C   C3289     1.0  0.63917  0.39599  0.84633  1.0000
  C   C3290     1.0  0.64065  0.39514  0.86127  1.0000
  C   C3291     1.0  0.62854  0.40327  0.87114  1.0000
  C   C3292     1.0  0.61477  0.41190  0.86626  1.0000
  H   H3308     1.0  0.62430  0.40525  0.82984  1.0000
  H   H3309     1.0  0.64869  0.39019  0.83846  1.0000
  H   H3310     1.0  0.62980  0.40283  0.88257  1.0000
  H   H3311     1.0  0.60542  0.41810  0.87396  1.0000
  C   C3293     1.0  0.59653  0.43215  0.91737  1.0000
  C   C3294     1.0  0.60388  0.41901  0.91105  1.0000
  C   C3295     1.0  0.61890  0.41080  0.91323  1.0000
  C   C3296     1.0  0.62678  0.41615  0.92106  1.0000
  C   C3297     1.0  0.61940  0.42924  0.92737  1.0000
  C   C3298     1.0  0.60417  0.43700  0.92583  1.0000
  H   H3312     1.0  0.59792  0.41510  0.90469  1.0000
  H   H3313     1.0  0.62454  0.40046  0.90870  1.0000
  H   H3314     1.0  0.62538  0.43333  0.93356  1.0000
  H   H3315     1.0  0.59836  0.44681  0.93120  1.0000
  C   C3299     1.0  0.53323  0.23381  0.89054  1.0000
  H   H3316     1.0  0.87357  0.42052  0.81286  1.0000
  H   H3317     1.0  0.82726  0.41161  0.78021  1.0000
  H   H3318     1.0  0.51998  0.00209  0.80019  1.0000
  H   H3319     1.0  0.54429  0.22650  0.88609  1.0000
  H   H3320     1.0  0.96834  0.40144  0.88264  1.0000
  H   H3321     1.0  0.53529  0.99084  0.90065  1.0000
  H   H3322     1.0  0.52378  0.24001  0.94510  1.0000
  H   H3323     1.0  0.65604  0.40908  0.88638  1.0000
  H   H3324     1.0  0.95283  0.42796  0.78280  1.0000
  C   C3300     1.0  0.51077  0.39044  0.86524  1.0000
  C   C3301     1.0  0.50610  0.38674  0.88142  1.0000
  C   C3302     1.0  0.51210  0.39272  0.89052  1.0000
  C   C3303     1.0  0.52273  0.40252  0.88355  1.0000
  C   C3304     1.0  0.52760  0.40604  0.86738  1.0000
  C   C3305     1.0  0.52996  0.24972  0.88394  1.0000
  C   C3306     1.0  0.77180  0.33025  0.79017  1.0000
  H   H3325     1.0  0.53579  0.41356  0.86188  1.0000
  C   C3307     1.0  0.64066  0.28147  0.84226  1.0000
  C   C3308     1.0  0.65520  0.28466  0.84113  1.0000
  C   C3309     1.0  0.65600  0.29751  0.84619  1.0000
  C   C3310     1.0  0.64224  0.30713  0.85257  1.0000
  C   C3311     1.0  0.62774  0.30374  0.85401  1.0000
  C   C3312     1.0  0.62694  0.29103  0.84878  1.0000
  H   H3326     1.0  0.66587  0.27726  0.83616  1.0000
  H   H3327     1.0  0.66724  0.29995  0.84517  1.0000
  H   H3328     1.0  0.61705  0.31111  0.85898  1.0000
  H   H3329     1.0  0.61569  0.28872  0.84970  1.0000
  C   C3313     1.0  0.55253  0.30512  0.83812  1.0000
  C   C3314     1.0  0.54142  0.20212  0.94470  1.0000
  C   C3315     1.0  0.53092  0.21643  0.94199  1.0000
  C   C3316     1.0  0.53197  0.22897  0.94724  1.0000
  C   C3317     1.0  0.54347  0.22714  0.95535  1.0000
  H   H3330     1.0  0.50075  0.06021  0.84386  1.0000
  C   C3318     1.0  0.55298  0.20038  0.95271  1.0000
  H   H3331     1.0  0.61183  0.18892  0.81593  1.0000
  H   H3332     1.0  0.78431  0.34549  0.96741  1.0000
  C   C3319     1.0  0.54525  0.98858  0.89120  1.0000
  H   H3333     1.0  0.87189  0.41352  0.79079  1.0000
  C   C3320     1.0  0.59904  0.18543  0.88957  1.0000
  C   C3321     1.0  0.60588  0.19362  0.87513  1.0000
  C   C3322     1.0  0.59822  0.20873  0.86892  1.0000
  C   C3323     1.0  0.58388  0.21578  0.87727  1.0000
  C   C3324     1.0  0.57687  0.20739  0.89148  1.0000
  C   C3325     1.0  0.58435  0.19221  0.89752  1.0000
  H   H3334     1.0  0.61720  0.18839  0.86888  1.0000
  H   H3335     1.0  0.60360  0.21496  0.85786  1.0000
  H   H3336     1.0  0.56588  0.21273  0.89813  1.0000
  H   H3337     1.0  0.57889  0.18601  0.90861  1.0000
  Fe  Fe575     1.0  0.67485  0.42683  0.95018  1.0000
  S   S1137     1.0  0.50758  0.30740  0.87598  1.0000
  C   C3326     1.0  0.74557  0.31080  0.92271  1.0000
  Fe  Fe576     1.0  0.94822  0.40264  0.83656  1.0000
  H   H3338     1.0  0.58079  0.13402  0.79167  1.0000
  H   H3339     1.0  0.57499  0.11490  0.81645  1.0000
  C   C3327     1.0  0.59028  0.12585  0.79640  1.0000
  H   H3340     1.0  0.52182  0.21771  0.93610  1.0000
  C   C3328     1.0  0.59520  0.22801  0.79261  1.0000
  S   S1138     1.0  0.59580  0.09013  0.83387  1.0000
  S   S1139     1.0  0.76768  0.39885  0.90235  1.0000
  H   H3341     1.0  0.52499  0.21507  0.90808  1.0000
  C   C3329     1.0  0.97074  0.45845  0.80440  1.0000
  C   C3330     1.0  0.61105  0.16358  0.79554  1.0000
  H   H3342     1.0  0.66020  0.33438  0.80242  1.0000
  C   C3331     1.0  0.54492  0.11173  0.89928  1.0000
  C   C3332     1.0  0.55664  0.09863  0.90293  1.0000
  C   C3333     1.0  0.56530  0.09815  0.91358  1.0000
  C   C3334     1.0  0.56249  0.11089  0.92037  1.0000
  C   C3335     1.0  0.55088  0.12406  0.91658  1.0000
  C   C3336     1.0  0.54202  0.12441  0.90618  1.0000
  H   H3343     1.0  0.55887  0.08877  0.89776  1.0000
  H   H3344     1.0  0.57424  0.08792  0.91653  1.0000
  H   H3345     1.0  0.54853  0.13384  0.92191  1.0000
  H   H3346     1.0  0.53291  0.13454  0.90344  1.0000
  C   C3337     1.0  0.51064  0.09451  0.82288  1.0000
  Fe  Fe577     1.0  0.60153  0.25063  0.81447  1.0000
  S   S1140     1.0  0.60848  0.23719  0.79540  1.0000
  N   N269      1.0  0.59112  0.18395  0.81374  1.0000
  C   C3338     1.0  0.60399  0.37913  0.88246  1.0000
  C   C3339     1.0  0.51127  0.08016  0.83355  1.0000
  C   C3340     1.0  0.62896  0.32877  0.81907  1.0000
  H   H3347     1.0  0.52042  0.07570  0.84000  1.0000
  C   C3341     1.0  0.55953  0.01032  0.83284  1.0000
  C   C3342     1.0  0.54649  0.00887  0.84508  1.0000
  C   C3343     1.0  0.54164  0.01887  0.85545  1.0000
  C   C3344     1.0  0.54986  0.03032  0.85374  1.0000
  C   C3345     1.0  0.56268  0.03202  0.84128  1.0000
  C   C3346     1.0  0.56747  0.02207  0.83085  1.0000
  H   H3348     1.0  0.54022  0.99995  0.84672  1.0000
  H   H3349     1.0  0.53170  0.01752  0.86506  1.0000
  H   H3350     1.0  0.62202  0.35501  0.90478  1.0000
  C   C3347     1.0  0.51083  0.46069  0.87787  1.0000
  C   C3348     1.0  0.54118  0.31908  0.83794  1.0000
  C   C3349     1.0  0.76874  0.39035  0.96856  1.0000
  C   C3350     1.0  0.58699  0.11496  0.81044  1.0000
  H   H3351     1.0  0.59112  0.46999  0.91363  1.0000
  H   H3352     1.0  0.62410  0.35747  0.84924  1.0000
  H   H3353     1.0  0.72282  0.44709  0.95568  1.0000
  C   C3351     1.0  0.62494  0.36063  0.87133  1.0000
  S   S1141     1.0  0.54335  0.24201  0.96383  1.0000
  C   C3352     1.0  0.61683  0.31094  0.81400  1.0000
  H   H3354     1.0  0.54301  0.32917  0.82872  1.0000
  H   H3355     1.0  0.63580  0.35199  0.87187  1.0000
  H   H3356     1.0  0.57625  0.00351  0.86845  1.0000
  H   H3357     1.0  0.97670  0.43285  0.78462  1.0000
  H   H3358     1.0  0.51903  0.04349  0.82541  1.0000
  C   C3353     1.0  0.90406  0.42794  0.78359  1.0000
  C   C3354     1.0  0.97621  0.42291  0.87705  1.0000
  H   H3359     1.0  0.76969  0.38497  0.95912  1.0000
  C   C3355     1.0  0.74161  0.30340  0.90114  1.0000
  H   H3360     1.0  0.90020  0.47359  0.77695  1.0000
  N   N270      1.0  0.97133  0.40953  0.79014  1.0000
  C   C3356     1.0  0.61799  0.11485  0.79445  1.0000
  H   H3361     1.0  0.78727  0.30150  0.88306  1.0000
  C   C3357     1.0  0.61437  0.23261  0.87934  1.0000
  C   C3358     1.0  0.76120  0.31065  0.91507  1.0000
  C   C3359     1.0  0.95738  0.41525  0.78349  1.0000
  H   H3362     1.0  0.57242  0.17702  0.80954  1.0000
  H   H3363     1.0  0.96908  0.42890  0.86854  1.0000
  C   C3360     1.0  0.97575  0.40758  0.88495  1.0000
  N   N271      1.0  0.71078  0.38473  0.89641  1.0000
  C   C3361     1.0  0.70020  0.38554  0.91018  1.0000
  C   C3362     1.0  0.70660  0.38219  0.88429  1.0000
  C   C3363     1.0  0.68500  0.38366  0.91213  1.0000
  C   C3364     1.0  0.69149  0.38026  0.88585  1.0000
  C   C3365     1.0  0.68062  0.38106  0.89986  1.0000
  C   C3366     1.0  0.72648  0.38731  0.89433  1.0000
  H   H3364     1.0  0.70358  0.38731  0.91986  1.0000
  H   H3365     1.0  0.71502  0.38146  0.87341  1.0000
  H   H3366     1.0  0.67667  0.38421  0.92313  1.0000
  H   H3367     1.0  0.68825  0.37799  0.87632  1.0000
  H   H3368     1.0  0.66885  0.37961  0.90126  1.0000
  H   H3369     1.0  0.72685  0.39960  0.88842  1.0000
  H   H3370     1.0  0.72978  0.38494  0.90565  1.0000
  H   H3371     1.0  0.73545  0.37937  0.88745  1.0000
  N   N272      1.0  0.52983  0.34127  0.88907  1.0000
  C   C3367     1.0  0.52329  0.34635  0.90261  1.0000
  C   C3368     1.0  0.53075  0.32622  0.88867  1.0000
  C   C3369     1.0  0.51774  0.33614  0.91628  1.0000
  C   C3370     1.0  0.52528  0.31573  0.90210  1.0000
  C   C3371     1.0  0.51885  0.32072  0.91600  1.0000
  C   C3372     1.0  0.53481  0.35221  0.87461  1.0000
  H   H3372     1.0  0.52206  0.35841  0.90285  1.0000
  H   H3373     1.0  0.53539  0.32233  0.87784  1.0000
  H   H3374     1.0  0.51233  0.34020  0.92698  1.0000
  H   H3375     1.0  0.52566  0.30393  0.90159  1.0000
  H   H3376     1.0  0.51453  0.31272  0.92650  1.0000
  H   H3377     1.0  0.54588  0.34663  0.86752  1.0000
  H   H3378     1.0  0.52562  0.35604  0.86769  1.0000
  H   H3379     1.0  0.53681  0.36274  0.87684  1.0000
  S   S1142     1.0  0.56636  0.99757  0.81996  1.0000
  C   C3373     1.0  0.97959  0.46089  0.78919  1.0000
  C   C3374     1.0  0.63168  0.30252  0.80833  1.0000
  C   C3375     1.0  0.51931  0.03444  0.81979  1.0000
  C   C3376     1.0  0.61832  0.36366  0.85849  1.0000
  C   C3377     1.0  0.50158  0.12584  0.85117  1.0000
  C   C3378     1.0  0.49905  0.09994  0.81426  1.0000
  C   C3379     1.0  0.57175  0.09485  0.79143  1.0000
  C   C3380     1.0  0.52160  0.40004  0.85827  1.0000
  C   C3381     1.0  0.49663  0.23001  0.92128  1.0000
  S   S1143     1.0  0.60798  0.27354  0.81109  1.0000
  C   C3382     1.0  0.80520  0.41973  0.80443  1.0000
  H   H3380     1.0  0.63826  0.36327  0.89221  1.0000
  S   S1144     1.0  0.95709  0.40868  0.85417  1.0000
  N   N273      1.0  0.75726  0.34015  0.79696  1.0000
  H   H3381     1.0  0.62424  0.09582  0.81312  1.0000
  C   C3383     1.0  0.74898  0.33457  0.81142  1.0000
  S   S1145     1.0  0.50144  0.06251  0.78898  1.0000
  H   H3382     1.0  0.49942  0.21706  0.92373  1.0000
  H   H3383     1.0  0.49413  0.42218  0.90178  1.0000
  H   H3384     1.0  0.62191  0.22394  0.87247  1.0000
  S   S1146     1.0  0.67860  0.45023  0.93606  1.0000
  H   H3385     1.0  0.51403  0.45210  0.84336  1.0000
  H   H3386     1.0  0.58545  0.20474  0.82220  1.0000
  C   C3384     1.0  0.79240  0.44283  0.81449  1.0000
  H   H3387     1.0  0.72835  0.33922  0.82948  1.0000
  C   C3385     1.0  0.79624  0.45191  0.79961  1.0000
  C   C3386     1.0  0.75226  0.35499  0.78907  1.0000
  H   H3388     1.0  0.60595  0.24042  0.87228  1.0000
  N   N274      1.0  0.59515  0.11643  0.88858  1.0000
  C   C3387     1.0  0.60264  0.10410  0.88168  1.0000
  C   C3388     1.0  0.58177  0.12615  0.88460  1.0000
  C   C3389     1.0  0.59672  0.10120  0.87051  1.0000
  C   C3390     1.0  0.57547  0.12352  0.87356  1.0000
  C   C3391     1.0  0.58304  0.11097  0.86648  1.0000
  C   C3392     1.0  0.60180  0.11932  0.90004  1.0000
  H   H3389     1.0  0.61322  0.09640  0.88487  1.0000
  H   H3390     1.0  0.57566  0.13577  0.89026  1.0000
  H   H3391     1.0  0.60259  0.09140  0.86502  1.0000
  H   H3392     1.0  0.56454  0.13087  0.87085  1.0000
  H   H3393     1.0  0.57828  0.10872  0.85797  1.0000
  H   H3394     1.0  0.59361  0.12826  0.90621  1.0000
  H   H3395     1.0  0.60409  0.10853  0.90911  1.0000
  H   H3396     1.0  0.61283  0.12342  0.89431  1.0000
  H   H3397     1.0  0.57926  0.18806  0.83608  1.0000
  C   C3393     1.0  0.80442  0.44460  0.78732  1.0000
  C   C3394     1.0  0.71658  0.35643  0.77548  1.0000
  S   S1147     1.0  0.98915  0.41137  0.82689  1.0000
  C   C3395     1.0  0.65525  0.45531  0.97469  1.0000
  C   C3396     1.0  0.58068  0.19434  0.82373  1.0000
  H   H3398     1.0  0.51427  0.46840  0.88275  1.0000
  H   H3399     1.0  0.58717  0.99136  0.84655  1.0000
  C   C3397     1.0  0.72969  0.35879  0.80996  1.0000
  N   N275      1.0  0.50816  0.23667  0.90832  1.0000
  C   C3398     1.0  0.88138  0.41914  0.78283  1.0000
  H   H3400     1.0  0.91365  0.43608  0.81321  1.0000
  H   H3401     1.0  0.65576  0.33060  0.82339  1.0000
  N   N276      1.0  0.50598  0.01810  0.81420  1.0000
  H   H3402     1.0  0.66782  0.31559  0.81380  1.0000
  N   N277      1.0  0.81658  0.38299  0.88703  1.0000
  C   C3399     1.0  0.82994  0.37729  0.87716  1.0000
  C   C3400     1.0  0.81091  0.37361  0.90071  1.0000
  C   C3401     1.0  0.83822  0.36191  0.88106  1.0000
  C   C3402     1.0  0.81897  0.35821  0.90508  1.0000
  C   C3403     1.0  0.83273  0.35237  0.89517  1.0000
  C   C3404     1.0  0.80785  0.39900  0.88249  1.0000
  H   H3403     1.0  0.83420  0.38461  0.86613  1.0000
  H   H3404     1.0  0.80001  0.37801  0.90823  1.0000
  H   H3405     1.0  0.84859  0.35727  0.87304  1.0000
  H   H3406     1.0  0.81433  0.35066  0.91580  1.0000
  H   H3407     1.0  0.83879  0.34029  0.89814  1.0000
  H   H3408     1.0  0.81596  0.40702  0.87668  1.0000
  H   H3409     1.0  0.80062  0.39946  0.87437  1.0000
  H   H3410     1.0  0.79992  0.40344  0.89267  1.0000
  H   H3411     1.0  0.59940  0.37769  0.84752  1.0000
  C   C3405     1.0  0.81735  0.37271  0.77560  1.0000
  H   H3412     1.0  0.60988  0.19100  0.92115  1.0000
  H   H3413     1.0  0.62167  0.37551  0.90174  1.0000
  H   H3414     1.0  0.65644  0.30059  0.80408  1.0000
  C   C3406     1.0  0.51485  0.46175  0.86189  1.0000
  N   N278      1.0  0.64348  0.32033  0.81366  1.0000
  H   H3415     1.0  0.52532  0.40289  0.84576  1.0000
  C   C3407     1.0  0.73575  0.30712  0.91569  1.0000
  C   C3408     1.0  0.62527  0.36541  0.89611  1.0000
  C   C3409     1.0  0.56879  0.22565  0.79448  1.0000
  C   C3410     1.0  0.60441  0.37482  0.85763  1.0000
  H   H3416     1.0  0.56897  0.19878  0.82075  1.0000
  C   C3411     1.0  0.52485  0.30683  0.86137  1.0000
  C   C3412     1.0  0.50017  0.07134  0.83570  1.0000
  H   H3417     1.0  0.70398  0.43468  0.95125  1.0000
  N   N279      1.0  0.89022  0.42365  0.79132  1.0000
  H   H3418     1.0  0.50819  0.39003  0.90302  1.0000
  C   C3413     1.0  0.88447  0.42405  0.80666  1.0000
  C   C3414     1.0  0.51975  0.01118  0.80573  1.0000
  C   C3415     1.0  0.89283  0.42849  0.81474  1.0000
  N   N280      1.0  0.76686  0.30700  0.90080  1.0000
  H   H3419     1.0  0.54398  0.03152  0.80944  1.0000
  H   H3420     1.0  0.74186  0.39207  0.96257  1.0000
  H   H3421     1.0  0.53577  0.16958  0.97242  1.0000
  H   H3422     1.0  0.79326  0.46453  0.79768  1.0000
  H   H3423     1.0  0.96955  0.38491  0.79544  1.0000
  C   C3416     1.0  0.50492  0.25232  0.90204  1.0000
  C   C3417     1.0  0.52220  0.22744  0.90288  1.0000
  C   C3418     1.0  0.60494  0.20293  0.91594  1.0000
  H   H3424     1.0  0.67022  0.41949  0.87270  1.0000
  N   N281      1.0  0.60609  0.22501  0.89445  1.0000
  Fe  Fe578     1.0  0.97896  0.40480  0.80961  1.0000
  C   C3419     1.0  0.59210  0.23292  0.90169  1.0000
  H   H3425     1.0  0.58443  0.20523  0.93447  1.0000
  C   C3420     1.0  0.58411  0.22595  0.91621  1.0000
  H   H3426     1.0  0.55626  0.22943  0.79839  1.0000
  H   H3427     1.0  0.72348  0.30772  0.92128  1.0000
  N   N282      1.0  0.80896  0.42871  0.78987  1.0000
  H   H3428     1.0  0.58682  0.24452  0.89603  1.0000
  C   C3421     1.0  0.57900  0.23279  0.79769  1.0000
  H   H3429     1.0  0.57283  0.23208  0.92178  1.0000
  C   C3422     1.0  0.73834  0.36447  0.79537  1.0000
  C   C3423     1.0  0.55577  0.99844  0.88546  1.0000
  C   C3424     1.0  0.73507  0.34379  0.81814  1.0000
  C   C3425     1.0  0.50568  0.02938  0.82146  1.0000
  H   H3430     1.0  0.75799  0.42147  0.87621  1.0000
  S   S1148     1.0  0.92320  0.39995  0.84262  1.0000
  N   N283      1.0  0.61796  0.36860  0.88291  1.0000
  H   H3431     1.0  0.51865  0.33071  0.84930  1.0000
  C   C3426     1.0  0.59707  0.38248  0.86976  1.0000
  H   H3432     1.0  0.62780  0.33892  0.82351  1.0000
  C   C3427     1.0  0.61542  0.32419  0.81936  1.0000
  C   C3428     1.0  0.65749  0.32550  0.81323  1.0000
  S   S1149     1.0  0.77900  0.36115  0.93328  1.0000
  H   H3433     1.0  0.63002  0.11462  0.78825  1.0000
  H   H3434     1.0  0.56944  0.47838  0.90170  1.0000
  S   S1150     1.0  0.81632  0.38325  0.78930  1.0000
  C   C3429     1.0  0.64496  0.30744  0.80818  1.0000
  H   H3435     1.0  0.59837  0.38540  0.89168  1.0000
  C   C3430     1.0  0.58501  0.17556  0.80761  1.0000
  C   C3431     1.0  0.52735  0.31994  0.84957  1.0000
  Fe  Fe579     1.0  0.49830  0.28845  0.96675  1.0000
  N   N284      1.0  0.64616  0.43066  0.87317  1.0000
  C   C3432     1.0  0.64724  0.43094  0.85795  1.0000
  C   C3433     1.0  0.63292  0.43856  0.88150  1.0000
  C   C3434     1.0  0.63492  0.43946  0.85065  1.0000
  C   C3435     1.0  0.62030  0.44703  0.87463  1.0000
  C   C3436     1.0  0.62136  0.44750  0.85908  1.0000
  C   C3437     1.0  0.65867  0.42080  0.88096  1.0000
  H   H3436     1.0  0.65743  0.42411  0.85154  1.0000
  H   H3437     1.0  0.63199  0.43814  0.89361  1.0000
  H   H3438     1.0  0.63562  0.43931  0.83871  1.0000
  H   H3439     1.0  0.60965  0.45288  0.88144  1.0000
  H   H3440     1.0  0.61155  0.45374  0.85364  1.0000
  H   H3441     1.0  0.65971  0.42585  0.89021  1.0000
  C   C3438     1.0  0.91258  0.43270  0.79125  1.0000
  C   C3439     1.0  0.74100  0.40162  0.96823  1.0000
  S   S1151     1.0  0.96752  0.44999  0.83562  1.0000
  H   H3442     1.0  0.66846  0.47317  0.96414  1.0000
  C   C3440     1.0  0.71608  0.44019  0.96540  1.0000
  C   C3441     1.0  0.61472  0.10419  0.80852  1.0000
  H   H3443     1.0  0.56294  0.21144  0.96429  1.0000
  C   C3442     1.0  0.61260  0.21024  0.90144  1.0000
  H   H3444     1.0  0.55390  0.00859  0.89020  1.0000
  S   S1152     1.0  0.49729  0.31337  0.96535  1.0000
  C   C3443     1.0  0.78309  0.30766  0.89277  1.0000
  C   C3444     1.0  0.57469  0.21371  0.78622  1.0000
  H   H3445     1.0  0.49905  0.43273  0.86084  1.0000
  C   C3445     1.0  0.55646  0.09912  0.78905  1.0000
  H   H3446     1.0  0.50674  0.13365  0.84099  1.0000
  S   S1153     1.0  0.74096  0.37343  0.93555  1.0000
  H   H3447     1.0  0.57433  0.24214  0.80386  1.0000
  C   C3446     1.0  0.55016  0.29215  0.85013  1.0000
  Fe  Fe580     1.0  0.75692  0.35669  0.95041  1.0000
  C   C3447     1.0  0.53642  0.29306  0.86177  1.0000
  C   C3448     1.0  0.61719  0.17211  0.80189  1.0000
  H   H3448     1.0  0.49393  0.25970  0.90655  1.0000
  C   C3449     1.0  0.56839  0.99553  0.87308  1.0000
  H   H3449     1.0  0.71864  0.36589  0.81470  1.0000
  H   H3450     1.0  0.53853  0.25472  0.87441  1.0000
  H   H3451     1.0  0.73390  0.30111  0.89532  1.0000
  H   H3452     1.0  0.49628  0.23371  0.93191  1.0000
  C   C3450     1.0  0.60583  0.12566  0.78831  1.0000
  C   C3451     1.0  0.59925  0.10409  0.81650  1.0000
  H   H3453     1.0  0.76155  0.30115  0.88222  1.0000
  C   C3452     1.0  0.70535  0.43323  0.96289  1.0000
  S   S1154     1.0  0.68213  0.41557  0.92981  1.0000
  Fe  Fe581     1.0  0.51895  0.25646  0.96632  1.0000
  S   S1155     1.0  0.95543  0.42201  0.81722  1.0000
  C   C3453     1.0  0.50255  0.44950  0.88751  1.0000
  H   H3454     1.0  0.50073  0.11274  0.88971  1.0000
  S   S1156     1.0  0.64921  0.43215  0.95048  1.0000
  H   H3455     1.0  0.78409  0.32001  0.88809  1.0000
  C   C3454     1.0  0.98621  0.43040  0.87984  1.0000
  H   H3456     1.0  0.74097  0.31417  0.93381  1.0000
  H   H3457     1.0  0.57919  0.17699  0.97145  1.0000
  H   H3458     1.0  0.73996  0.41281  0.95952  1.0000
  Fe  Fe582     1.0  0.97981  0.39296  0.84580  1.0000
  C   C3455     1.0  0.59487  0.16529  0.79843  1.0000
  C   C3456     1.0  0.75726  0.30355  0.89374  1.0000
  H   H3459     1.0  0.56038  0.18915  0.95582  1.0000
  H   H3460     1.0  0.77016  0.31826  0.79185  1.0000
  H   H3461     1.0  0.53481  0.28306  0.87109  1.0000
  H   H3462     1.0  0.59514  0.09892  0.78257  1.0000
  N   N285      1.0  0.49824  0.43975  0.88137  1.0000
  C   C3457     1.0  0.50222  0.44064  0.86570  1.0000
  H   H3463     1.0  0.61272  0.47604  0.92091  1.0000
  C   C3458     1.0  0.66579  0.46399  0.97422  1.0000
  S   S1157     1.0  0.56160  0.20469  0.78275  1.0000
  H   H3464     1.0  0.92332  0.43650  0.78495  1.0000
  H   H3465     1.0  0.49847  0.11103  0.80603  1.0000
  C   C3459     1.0  0.81736  0.42114  0.77691  1.0000
  H   H3466     1.0  0.66681  0.48175  0.91835  1.0000
  H   H3467     1.0  0.49485  0.03462  0.82849  1.0000
  N   N286      1.0  0.55275  0.11034  0.77644  1.0000
  H   H3468     1.0  0.80724  0.45173  0.77577  1.0000
  C   C3460     1.0  0.99206  0.38630  0.80031  1.0000
  N   N287      1.0  0.57036  0.98326  0.86648  1.0000
  H   H3469     1.0  0.88922  0.41046  0.77609  1.0000
  N   N288      1.0  0.75468  0.39896  0.97481  1.0000
  C   C3461     1.0  0.78189  0.38770  0.97474  1.0000
  H   H3470     1.0  0.54069  0.98995  0.77574  1.0000
  C   C3462     1.0  0.51767  0.77936  0.98637  1.0000
  Fe  Fe583     1.0  0.78579  0.65671  0.06527  1.0000
  S   S1158     1.0  0.79645  0.63633  0.08196  1.0000
  S   S1159     1.0  0.76887  0.67693  0.07420  1.0000
  Fe  Fe584     1.0  0.80238  0.64255  0.03737  1.0000
  S   S1160     1.0  0.81446  0.62073  0.05165  1.0000
  S   S1161     1.0  0.80564  0.64778  0.01131  1.0000
  Fe  Fe585     1.0  0.79126  0.62220  0.06849  1.0000
  S   S1162     1.0  0.78008  0.60222  0.08209  1.0000
  Fe  Fe586     1.0  0.81874  0.63676  0.06389  1.0000
  S   S1163     1.0  0.84218  0.63072  0.07044  1.0000
  S   S1164     1.0  0.77872  0.64256  0.05320  1.0000
  S   S1165     1.0  0.80862  0.65857  0.04822  1.0000
  S   S1166     1.0  0.71253  0.64668  0.14561  1.0000
  Fe  Fe587     1.0  0.56762  0.86839  0.06627  1.0000
  S   S1167     1.0  0.54605  0.87885  0.08217  1.0000
  S   S1168     1.0  0.58626  0.84823  0.07463  1.0000
  Fe  Fe588     1.0  0.55702  0.88792  0.03682  1.0000
  S   S1169     1.0  0.53501  0.90049  0.05045  1.0000
  S   S1170     1.0  0.55926  0.89371  0.01071  1.0000
  Fe  Fe589     1.0  0.54988  0.90151  0.06583  1.0000
  S   S1171     1.0  0.54419  0.92317  0.07551  1.0000
  Fe  Fe590     1.0  0.53323  0.87699  0.06547  1.0000
  S   S1172     1.0  0.51036  0.86969  0.07104  1.0000
  S   S1173     1.0  0.57232  0.89117  0.05074  1.0000
  S   S1174     1.0  0.55438  0.86429  0.05110  1.0000
  Fe  Fe591     1.0  0.57582  0.95097  0.12984  1.0000
  S   S1175     1.0  0.58997  0.96020  0.14035  1.0000
  S   S1176     1.0  0.58711  0.93542  0.11263  1.0000
  Fe  Fe592     1.0  0.54529  0.96510  0.14900  1.0000
  H   H3471     1.0  0.55402  0.89577  0.98072  1.0000
  N   N289      1.0  0.55675  0.78860  0.98239  1.0000
  H   H3472     1.0  0.60799  0.96279  0.09383  1.0000
  C   C3463     1.0  0.66310  0.58533  0.15835  1.0000
  Fe  Fe593     1.0  0.57367  0.95270  0.16295  1.0000
  N   N290      1.0  0.50447  0.75966  0.09900  1.0000
  Fe  Fe594     1.0  0.67086  0.66970  0.16048  1.0000
  S   S1177     1.0  0.56117  0.94152  0.15272  1.0000
  H   H3473     1.0  0.64588  0.54835  0.07072  1.0000
  C   C3464     1.0  0.55660  0.88356  0.98631  1.0000
  H   H3474     1.0  0.70032  0.50219  0.07240  1.0000
  H   H3475     1.0  0.65648  0.60842  0.00052  1.0000
  H   H3476     1.0  0.69800  0.62630  0.97900  1.0000
  C   C3465     1.0  0.89882  0.56697  0.14309  1.0000
  H   H3477     1.0  0.73504  0.57668  0.98970  1.0000
  H   H3478     1.0  0.60734  0.51334  0.07259  1.0000
  H   H3479     1.0  0.80245  0.65229  0.98008  1.0000
  H   H3480     1.0  0.61931  0.69305  0.14923  1.0000
  S   S1178     1.0  0.69122  0.50257  0.02227  1.0000
  H   H3481     1.0  0.59889  0.54518  0.13538  1.0000
  Fe  Fe595     1.0  0.87255  0.64179  0.16059  1.0000
  S   S1179     1.0  0.86209  0.63526  0.14462  1.0000
  C   C3466     1.0  0.61669  0.53154  0.12056  1.0000
  Fe  Fe596     1.0  0.90313  0.64436  0.13784  1.0000
  S   S1180     1.0  0.89547  0.63862  0.11929  1.0000
  S   S1181     1.0  0.92778  0.64806  0.13268  1.0000
  Fe  Fe597     1.0  0.87225  0.65406  0.12668  1.0000
  S   S1182     1.0  0.85715  0.66921  0.11009  1.0000
  Fe  Fe598     1.0  0.88581  0.62021  0.13823  1.0000
  S   S1183     1.0  0.88897  0.59785  0.13116  1.0000
  S   S1184     1.0  0.88081  0.66207  0.14323  1.0000
  S   S1185     1.0  0.89541  0.62450  0.15626  1.0000
  S   S1186     1.0  0.66449  0.55427  0.99447  1.0000
  Fe  Fe599     1.0  0.73995  0.57062  0.04455  1.0000
  S   S1187     1.0  0.72499  0.59452  0.03931  1.0000
  S   S1188     1.0  0.76587  0.56792  0.03852  1.0000
  Fe  Fe600     1.0  0.71224  0.55525  0.05753  1.0000
  S   S1189     1.0  0.69466  0.57773  0.05350  1.0000
  S   S1190     1.0  0.70554  0.53241  0.06938  1.0000
  Fe  Fe601     1.0  0.71148  0.58295  0.03061  1.0000
  S   S1191     1.0  0.70607  0.59223  0.00697  1.0000
  Fe  Fe602     1.0  0.70991  0.58701  0.06255  1.0000
  S   S1192     1.0  0.70162  0.60069  0.08109  1.0000
  S   S1193     1.0  0.72784  0.55959  0.03389  1.0000
  S   S1194     1.0  0.72602  0.56399  0.06860  1.0000
  C   C3467     1.0  0.68143  0.60805  0.08361  1.0000
  C   C3468     1.0  0.67246  0.60965  0.09836  1.0000
  C   C3469     1.0  0.65779  0.61625  0.07356  1.0000
  C   C3470     1.0  0.67414  0.61148  0.07118  1.0000
  H   H3482     1.0  0.67808  0.60698  0.10800  1.0000
  H   H3483     1.0  0.65210  0.61859  0.06402  1.0000
  H   H3484     1.0  0.68108  0.61040  0.05973  1.0000
  H   H3485     1.0  0.70068  0.54509  0.03818  1.0000
  C   C3471     1.0  0.67667  0.56423  0.99782  1.0000
  C   C3472     1.0  0.67640  0.56440  0.01305  1.0000
  C   C3473     1.0  0.68573  0.57268  0.01590  1.0000
  C   C3474     1.0  0.69529  0.58089  0.00352  1.0000
  C   C3475     1.0  0.69578  0.58051  0.98827  1.0000
  C   C3476     1.0  0.68643  0.57222  0.98542  1.0000
  H   H3486     1.0  0.66888  0.55820  0.02265  1.0000
  H   H3487     1.0  0.68524  0.57299  0.02767  1.0000
  H   H3488     1.0  0.67497  0.51295  0.99707  1.0000
  H   H3489     1.0  0.75420  0.53283  0.04549  1.0000
  C   C3477     1.0  0.73994  0.51473  0.03926  1.0000
  H   H3490     1.0  0.53219  0.82730  0.02808  1.0000
  C   C3478     1.0  0.50259  0.72206  0.08461  1.0000
  H   H3491     1.0  0.55195  0.68158  0.12012  1.0000
  C   C3479     1.0  0.71810  0.48759  0.97559  1.0000
  H   H3492     1.0  0.79324  0.67853  0.02163  1.0000
  C   C3480     1.0  0.70098  0.52438  0.05647  1.0000
  H   H3493     1.0  0.53317  0.87806  0.03046  1.0000
  C   C3481     1.0  0.64878  0.61716  0.08845  1.0000
  C   C3482     1.0  0.50853  0.74922  0.11191  1.0000
  C   C3483     1.0  0.96021  0.64487  0.15675  1.0000
  C   C3484     1.0  0.95260  0.64680  0.14473  1.0000
  C   C3485     1.0  0.93677  0.64612  0.14807  1.0000
  H   H3494     1.0  0.57553  0.72615  0.15707  1.0000
  H   H3495     1.0  0.78436  0.60002  0.99886  1.0000
  H   H3496     1.0  0.97245  0.64532  0.15402  1.0000
  H   H3497     1.0  0.95907  0.64875  0.13280  1.0000
  S   S1195     1.0  0.64644  0.68079  0.17149  1.0000
  H   H3498     1.0  0.60528  0.52174  0.08876  1.0000
  C   C3486     1.0  0.69320  0.71232  0.16221  1.0000
  S   S1196     1.0  0.57015  0.82235  0.14672  1.0000
  Fe  Fe603     1.0  0.57581  0.79620  0.15336  1.0000
  N   N291      1.0  0.52414  0.86670  0.01882  1.0000
  H   H3499     1.0  0.55646  0.80079  0.99938  1.0000
  C   C3487     1.0  0.55973  0.67125  0.12512  1.0000
  C   C3488     1.0  0.52896  0.83903  0.02137  1.0000
  Fe  Fe604     1.0  0.50840  0.80122  0.01142  1.0000
  S   S1197     1.0  0.69322  0.61179  0.16897  1.0000
  S   S1198     1.0  0.55265  0.75832  0.14275  1.0000
  C   C3489     1.0  0.63369  0.62944  0.17045  1.0000
  C   C3490     1.0  0.68078  0.56182  0.12797  1.0000
  S   S1199     1.0  0.57461  0.60006  0.15372  1.0000
  H   H3500     1.0  0.57115  0.66506  0.10322  1.0000
  S   S1200     1.0  0.51614  0.80961  0.98592  1.0000
  C   C3491     1.0  0.75051  0.59088  0.99949  1.0000
  S   S1201     1.0  0.52575  0.80257  0.05806  1.0000
  S   S1202     1.0  0.61638  0.60513  0.13688  1.0000
  H   H3501     1.0  0.51836  0.88094  0.99764  1.0000
  H   H3502     1.0  0.50079  0.73938  0.13630  1.0000
  H   H3503     1.0  0.92707  0.60093  0.13412  1.0000
  C   C3492     1.0  0.53604  0.72040  0.17021  1.0000
  C   C3493     1.0  0.58383  0.84202  0.09484  1.0000
  C   C3494     1.0  0.57399  0.85167  0.10468  1.0000
  C   C3495     1.0  0.57038  0.84573  0.12074  1.0000
  C   C3496     1.0  0.57646  0.83009  0.12694  1.0000
  C   C3497     1.0  0.58690  0.82066  0.11720  1.0000
  C   C3498     1.0  0.59077  0.82671  0.10118  1.0000
  H   H3504     1.0  0.56906  0.86364  0.09990  1.0000
  H   H3505     1.0  0.56247  0.85309  0.12831  1.0000
  H   H3506     1.0  0.59193  0.80870  0.12199  1.0000
  H   H3507     1.0  0.59877  0.81936  0.09365  1.0000
  C   C3499     1.0  0.55694  0.92715  0.08454  1.0000
  C   C3500     1.0  0.57185  0.91770  0.08511  1.0000
  C   C3501     1.0  0.58118  0.92059  0.09345  1.0000
  C   C3502     1.0  0.57550  0.93264  0.10157  1.0000
  C   C3503     1.0  0.56070  0.94224  0.10077  1.0000
  C   C3504     1.0  0.55156  0.93961  0.09213  1.0000
  H   H3508     1.0  0.57615  0.90815  0.07920  1.0000
  H   H3509     1.0  0.59271  0.91324  0.09386  1.0000
  H   H3510     1.0  0.55624  0.95161  0.10690  1.0000
  H   H3511     1.0  0.54004  0.94697  0.09169  1.0000
  C   C3505     1.0  0.51365  0.85057  0.06894  1.0000
  C   C3506     1.0  0.52775  0.84021  0.07107  1.0000
  C   C3507     1.0  0.53109  0.82532  0.06813  1.0000
  C   C3508     1.0  0.52045  0.82081  0.06282  1.0000
  H   H3512     1.0  0.62180  0.53879  0.08444  1.0000
  C   C3509     1.0  0.50271  0.84592  0.06411  1.0000
  H   H3513     1.0  0.53613  0.84379  0.07483  1.0000
  H   H3514     1.0  0.54209  0.81739  0.06955  1.0000
  C   C3510     1.0  0.69484  0.51089  0.03555  1.0000
  Fe  Fe605     1.0  0.49333  0.70639  0.12423  1.0000
  H   H3515     1.0  0.73970  0.53056  0.06351  1.0000
  N   N292      1.0  0.93616  0.59448  0.16898  1.0000
  C   C3511     1.0  0.55985  0.87918  0.00119  1.0000
  C   C3512     1.0  0.56330  0.86337  0.00825  1.0000
  C   C3513     1.0  0.56343  0.85205  0.00056  1.0000
  C   C3514     1.0  0.52196  0.85663  0.99820  1.0000
  C   C3515     1.0  0.83657  0.66598  0.17379  1.0000
  H   H3516     1.0  0.56614  0.85983  0.01954  1.0000
  H   H3517     1.0  0.56615  0.83985  0.00613  1.0000
  C   C3516     1.0  0.84612  0.64193  0.08107  1.0000
  C   C3517     1.0  0.83590  0.65586  0.08402  1.0000
  C   C3518     1.0  0.83939  0.66431  0.09281  1.0000
  C   C3519     1.0  0.85284  0.65861  0.09905  1.0000
  C   C3520     1.0  0.86288  0.64457  0.09627  1.0000
  C   C3521     1.0  0.85967  0.63642  0.08709  1.0000
  H   H3518     1.0  0.82542  0.66020  0.07940  1.0000
  H   H3519     1.0  0.83158  0.67518  0.09490  1.0000
  H   H3520     1.0  0.87324  0.64003  0.10102  1.0000
  H   H3521     1.0  0.86758  0.62563  0.08488  1.0000
  C   C3522     1.0  0.75035  0.67283  0.08361  1.0000
  C   C3523     1.0  0.74402  0.66372  0.07807  1.0000
  C   C3524     1.0  0.72883  0.66139  0.08496  1.0000
  C   C3525     1.0  0.72013  0.66761  0.09783  1.0000
  C   C3526     1.0  0.72659  0.67630  0.10373  1.0000
  C   C3527     1.0  0.74157  0.67918  0.09641  1.0000
  H   H3522     1.0  0.75063  0.65880  0.06823  1.0000
  H   H3523     1.0  0.72385  0.65469  0.08037  1.0000
  H   H3524     1.0  0.71989  0.68116  0.11366  1.0000
  H   H3525     1.0  0.74639  0.68625  0.10073  1.0000
  C   C3528     1.0  0.77663  0.59252  0.06984  1.0000
  C   C3529     1.0  0.78301  0.59572  0.05387  1.0000
  C   C3530     1.0  0.78005  0.58786  0.04425  1.0000
  C   C3531     1.0  0.77040  0.57711  0.05056  1.0000
  C   C3532     1.0  0.76386  0.57411  0.06649  1.0000
  C   C3533     1.0  0.76711  0.58167  0.07614  1.0000
  H   H3526     1.0  0.79032  0.60416  0.04892  1.0000
  H   H3527     1.0  0.78504  0.59030  0.03192  1.0000
  H   H3528     1.0  0.75656  0.56570  0.07145  1.0000
  H   H3529     1.0  0.76219  0.57915  0.08848  1.0000
  C   C3534     1.0  0.77037  0.63633  0.99158  1.0000
  C   C3535     1.0  0.76985  0.63184  0.00757  1.0000
  C   C3536     1.0  0.78105  0.63466  0.01366  1.0000
  C   C3537     1.0  0.79271  0.64224  0.00381  1.0000
  C   C3538     1.0  0.79343  0.64644  0.98777  1.0000
  C   C3539     1.0  0.92989  0.59461  0.14523  1.0000
  H   H3530     1.0  0.76063  0.62632  0.01532  1.0000
  H   H3531     1.0  0.78050  0.63118  0.02599  1.0000
  H   H3532     1.0  0.88312  0.59499  0.16416  1.0000
  N   N293      1.0  0.69390  0.50662  0.97881  1.0000
  H   H3533     1.0  0.51851  0.75552  0.98685  1.0000
  C   C3540     1.0  0.67352  0.57799  0.16817  1.0000
  C   C3541     1.0  0.78176  0.67092  0.17005  1.0000
  C   C3542     1.0  0.66927  0.55123  0.09101  1.0000
  C   C3543     1.0  0.61193  0.70448  0.14607  1.0000
  H   H3534     1.0  0.62696  0.63715  0.16215  1.0000
  H   H3535     1.0  0.55608  0.77429  0.00517  1.0000
  H   H3536     1.0  0.61661  0.50228  0.08836  1.0000
  H   H3537     1.0  0.49787  0.82757  0.05688  1.0000
  C   C3544     1.0  0.69918  0.50898  0.06092  1.0000
  C   C3545     1.0  0.51612  0.79464  0.97757  1.0000
  S   S1203     1.0  0.55633  0.97559  0.16135  1.0000
  H   H3538     1.0  0.67383  0.56600  0.17433  1.0000
  C   C3546     1.0  0.53116  0.72440  0.14472  1.0000
  C   C3547     1.0  0.52590  0.84146  0.00674  1.0000
  Fe  Fe606     1.0  0.59861  0.59110  0.14009  1.0000
  S   S1204     1.0  0.58542  0.49590  0.13868  1.0000
  C   C3548     1.0  0.64397  0.53820  0.06826  1.0000
  C   C3549     1.0  0.65611  0.61391  0.10084  1.0000
  C   C3550     1.0  0.52285  0.87989  0.02552  1.0000
  C   C3551     1.0  0.69946  0.53313  0.04164  1.0000
  C   C3552     1.0  0.74671  0.49746  0.06215  1.0000
  N   N294      1.0  0.67385  0.55446  0.10365  1.0000
  H   H3539     1.0  0.54819  0.62339  0.16340  1.0000
  H   H3540     1.0  0.58641  0.63338  0.14253  1.0000
  H   H3541     1.0  0.53210  0.64588  0.14876  1.0000
  C   C3553     1.0  0.70781  0.49912  0.98304  1.0000
  H   H3542     1.0  0.52265  0.89101  0.01667  1.0000
  H   H3543     1.0  0.63677  0.50198  0.06017  1.0000
  C   C3554     1.0  0.52109  0.86920  0.00447  1.0000
  H   H3544     1.0  0.68343  0.71634  0.15600  1.0000
  H   H3545     1.0  0.55673  0.63112  0.10639  1.0000
  C   C3555     1.0  0.93002  0.57875  0.15030  1.0000
  S   S1205     1.0  0.62864  0.54533  0.11287  1.0000
  C   C3556     1.0  0.63031  0.53274  0.07596  1.0000
  S   S1206     1.0  0.68979  0.68173  0.14496  1.0000
  H   H3546     1.0  0.75969  0.51967  0.06244  1.0000
  H   H3547     1.0  0.73061  0.50541  0.02546  1.0000
  C   C3557     1.0  0.55609  0.77495  0.99322  1.0000
  C   C3558     1.0  0.51586  0.76103  0.08412  1.0000
  N   N295      1.0  0.83416  0.60244  0.10314  1.0000
  C   C3559     1.0  0.82808  0.61575  0.10874  1.0000
  C   C3560     1.0  0.84839  0.59336  0.10548  1.0000
  C   C3561     1.0  0.83605  0.61998  0.11738  1.0000
  C   C3562     1.0  0.85666  0.59723  0.11409  1.0000
  C   C3563     1.0  0.85039  0.61059  0.12011  1.0000
  C   C3564     1.0  0.82588  0.59830  0.09380  1.0000
  H   H3548     1.0  0.81728  0.62345  0.10611  1.0000
  H   H3549     1.0  0.85350  0.58315  0.10055  1.0000
  H   H3550     1.0  0.83147  0.63079  0.12138  1.0000
  H   H3551     1.0  0.86801  0.59011  0.11588  1.0000
  H   H3552     1.0  0.85690  0.61389  0.12647  1.0000
  H   H3553     1.0  0.81312  0.60356  0.09633  1.0000
  H   H3554     1.0  0.83071  0.60252  0.08126  1.0000
  H   H3555     1.0  0.82713  0.58549  0.09621  1.0000
  C   C3565     1.0  0.57063  0.66182  0.11560  1.0000
  C   C3566     1.0  0.69628  0.52642  0.03122  1.0000
  C   C3567     1.0  0.54322  0.64010  0.12655  1.0000
  C   C3568     1.0  0.59163  0.63887  0.11164  1.0000
  C   C3569     1.0  0.61354  0.51414  0.08109  1.0000
  C   C3570     1.0  0.55520  0.76168  0.98909  1.0000
  S   S1207     1.0  0.58130  0.48428  0.10228  1.0000
  H   H3556     1.0  0.57656  0.89776  0.12355  1.0000
  H   H3557     1.0  0.55430  0.75098  0.99778  1.0000
  H   H3558     1.0  0.50860  0.64151  0.14296  1.0000
  H   H3559     1.0  0.70314  0.70484  0.15561  1.0000
  N   N296      1.0  0.62781  0.51991  0.07296  1.0000
  C   C3571     1.0  0.74257  0.58325  0.97983  1.0000
  Fe  Fe607     1.0  0.70527  0.66455  0.16019  1.0000
  H   H3560     1.0  0.67203  0.62120  0.14708  1.0000
  H   H3561     1.0  0.60986  0.75425  0.11969  1.0000
  H   H3562     1.0  0.51954  0.77671  0.99800  1.0000
  C   C3572     1.0  0.63870  0.51221  0.06245  1.0000
  H   H3563     1.0  0.69693  0.72285  0.16230  1.0000
  H   H3564     1.0  0.73860  0.52622  0.03170  1.0000
  Fe  Fe608     1.0  0.51491  0.67419  0.12823  1.0000
  H   H3565     1.0  0.59190  0.69968  0.16425  1.0000
  H   H3566     1.0  0.52690  0.83164  0.00185  1.0000
  H   H3567     1.0  0.61542  0.49584  0.11690  1.0000
  H   H3568     1.0  0.92746  0.57265  0.14306  1.0000
  C   C3573     1.0  0.68857  0.62181  0.97800  1.0000
  H   H3569     1.0  0.52041  0.71894  0.06389  1.0000
  C   C3574     1.0  0.57917  0.64420  0.13752  1.0000
  H   H3570     1.0  0.59391  0.62637  0.11758  1.0000
  H   H3571     1.0  0.65681  0.55706  0.09100  1.0000
  H   H3572     1.0  0.65115  0.73138  0.13632  1.0000
  C   C3575     1.0  0.69622  0.50220  0.05042  1.0000
  H   H3573     1.0  0.60287  0.64278  0.10786  1.0000
  H   H3574     1.0  0.57333  0.60887  0.12104  1.0000
  S   S1208     1.0  0.60395  0.58900  0.11530  1.0000
  N   N297      1.0  0.76872  0.68024  0.02566  1.0000
  C   C3576     1.0  0.76930  0.67534  0.01272  1.0000
  C   C3577     1.0  0.75563  0.68054  0.03743  1.0000
  C   C3578     1.0  0.75675  0.67007  0.01155  1.0000
  C   C3579     1.0  0.74293  0.67520  0.03673  1.0000
  C   C3580     1.0  0.74358  0.66984  0.02372  1.0000
  C   C3581     1.0  0.78193  0.68589  0.02651  1.0000
  H   H3575     1.0  0.51116  0.63394  0.11845  1.0000
  H   H3576     1.0  0.75504  0.68474  0.04756  1.0000
  C   C3582     1.0  0.62148  0.72526  0.16774  1.0000
  H   H3577     1.0  0.73273  0.67515  0.04627  1.0000
  C   C3583     1.0  0.68307  0.51845  0.98690  1.0000
  H   H3578     1.0  0.77411  0.67801  0.14846  1.0000
  H   H3579     1.0  0.78127  0.69811  0.01987  1.0000
  H   H3580     1.0  0.78200  0.68537  0.03873  1.0000
  S   S1209     1.0  0.75535  0.63366  0.98469  1.0000
  C   C3584     1.0  0.50208  0.73920  0.05923  1.0000
  C   C3585     1.0  0.68249  0.60182  0.16330  1.0000
  H   H3581     1.0  0.69327  0.57773  0.11017  1.0000
  H   H3582     1.0  0.51556  0.77351  0.07836  1.0000
  C   C3586     1.0  0.68324  0.58612  0.17050  1.0000
  C   C3587     1.0  0.51717  0.76734  0.98004  1.0000
  C   C3588     1.0  0.67694  0.61827  0.99120  1.0000
  H   H3583     1.0  0.52724  0.93737  0.17212  1.0000
  S   S1210     1.0  0.55955  0.84169  0.97705  1.0000
  H   H3584     1.0  0.53077  0.84993  0.03844  1.0000
  H   H3585     1.0  0.64915  0.61447  0.11239  1.0000
  H   H3586     1.0  0.75848  0.59767  0.01615  1.0000
  H   H3587     1.0  0.71102  0.50204  0.99221  1.0000
  C   C3589     1.0  0.66292  0.60081  0.15028  1.0000
  C   C3590     1.0  0.65507  0.53049  0.05741  1.0000
  C   C3591     1.0  0.68268  0.56530  0.10058  1.0000
  H   H3588     1.0  0.66568  0.53464  0.05127  1.0000
  C   C3592     1.0  0.59307  0.52340  0.13690  1.0000
  S   S1211     1.0  0.70110  0.66465  0.10623  1.0000
  S   S1212     1.0  0.62839  0.62037  0.09208  1.0000
  C   C3593     1.0  0.52807  0.85187  0.02723  1.0000
  S   S1213     1.0  0.64984  0.57477  0.15790  1.0000
  H   H3589     1.0  0.56726  0.64965  0.15986  1.0000
  S   S1214     1.0  0.61448  0.56809  0.14776  1.0000
  H   H3590     1.0  0.66076  0.53922  0.12106  1.0000
  C   C3594     1.0  0.54288  0.73348  0.16517  1.0000
  C   C3595     1.0  0.68638  0.56904  0.11268  1.0000
  S   S1215     1.0  0.52468  0.78508  0.02604  1.0000
  C   C3596     1.0  0.53802  0.73742  0.13967  1.0000
  H   H3591     1.0  0.58660  0.74567  0.13545  1.0000
  N   N298      1.0  0.55930  0.81636  0.09684  1.0000
  C   C3597     1.0  0.55904  0.80273  0.10778  1.0000
  C   C3598     1.0  0.55152  0.83030  0.10078  1.0000
  C   C3599     1.0  0.55073  0.80282  0.12306  1.0000
  C   C3600     1.0  0.54309  0.83081  0.11594  1.0000
  C   C3601     1.0  0.54281  0.81697  0.12716  1.0000
  C   C3602     1.0  0.56868  0.81602  0.08108  1.0000
  H   H3592     1.0  0.56541  0.79169  0.10478  1.0000
  H   H3593     1.0  0.55221  0.84116  0.09230  1.0000
  H   H3594     1.0  0.55059  0.79201  0.13173  1.0000
  S   S1216     1.0  0.51860  0.69814  0.12564  1.0000
  H   H3595     1.0  0.53675  0.81724  0.13909  1.0000
  H   H3596     1.0  0.56714  0.80640  0.07690  1.0000
  H   H3597     1.0  0.56533  0.82711  0.07271  1.0000
  H   H3598     1.0  0.58125  0.81444  0.08089  1.0000
  N   N299      1.0  0.72819  0.61828  0.09180  1.0000
  C   C3603     1.0  0.73635  0.61213  0.10334  1.0000
  C   C3604     1.0  0.71254  0.62487  0.09522  1.0000
  C   C3605     1.0  0.72886  0.61265  0.11877  1.0000
  C   C3606     1.0  0.70468  0.62554  0.11051  1.0000
  C   C3607     1.0  0.71291  0.61938  0.12234  1.0000
  C   C3608     1.0  0.73614  0.61696  0.07584  1.0000
  H   H3599     1.0  0.74873  0.60677  0.10064  1.0000
  H   H3600     1.0  0.70597  0.62956  0.08613  1.0000
  H   H3601     1.0  0.73538  0.60787  0.12789  1.0000
  H   H3602     1.0  0.69233  0.63101  0.11308  1.0000
  H   H3603     1.0  0.70694  0.61984  0.13425  1.0000
  H   H3604     1.0  0.74832  0.61864  0.07315  1.0000
  H   H3605     1.0  0.73653  0.60523  0.07432  1.0000
  H   H3606     1.0  0.72995  0.62583  0.06728  1.0000
  H   H3607     1.0  0.66102  0.51130  0.04606  1.0000
  S   S1217     1.0  0.55579  0.78591  0.16868  1.0000
  S   S1218     1.0  0.59259  0.78417  0.16882  1.0000
  C   C3609     1.0  0.55855  0.66695  0.14113  1.0000
  Fe  Fe609     1.0  0.62148  0.56717  0.12256  1.0000
  S   S1219     1.0  0.62354  0.75313  0.14672  1.0000
  H   H3608     1.0  0.52679  0.72091  0.13675  1.0000
  N   N300      1.0  0.74572  0.51180  0.05226  1.0000
  N   N301      1.0  0.55210  0.90588  0.12419  1.0000
  C   C3610     1.0  0.54979  0.91607  0.13345  1.0000
  C   C3611     1.0  0.54091  0.90680  0.11648  1.0000
  C   C3612     1.0  0.53616  0.92783  0.13482  1.0000
  C   C3613     1.0  0.52720  0.91848  0.11751  1.0000
  C   C3614     1.0  0.52486  0.92907  0.12672  1.0000
  C   C3615     1.0  0.56642  0.89358  0.12297  1.0000
  H   H3609     1.0  0.55871  0.91539  0.13948  1.0000
  H   H3610     1.0  0.54282  0.89894  0.10889  1.0000
  H   H3611     1.0  0.53448  0.93617  0.14185  1.0000
  H   H3612     1.0  0.51877  0.91961  0.11071  1.0000
  H   H3613     1.0  0.51444  0.93839  0.12738  1.0000
  H   H3614     1.0  0.93290  0.61470  0.15077  1.0000
  H   H3615     1.0  0.56952  0.89008  0.11165  1.0000
  C   C3616     1.0  0.49945  0.63696  0.14156  1.0000
  S   S1220     1.0  0.58399  0.77784  0.13941  1.0000
  H   H3616     1.0  0.65499  0.60650  0.14254  1.0000
  H   H3617     1.0  0.58971  0.81523  0.17474  1.0000
  C   C3617     1.0  0.56836  0.65335  0.14740  1.0000
  C   C3618     1.0  0.76139  0.59515  0.00472  1.0000
  C   C3619     1.0  0.89209  0.58174  0.14634  1.0000
  C   C3620     1.0  0.89263  0.57091  0.17343  1.0000
  C   C3621     1.0  0.55484  0.62948  0.11883  1.0000
  N   N302      1.0  0.89686  0.67792  0.09597  1.0000
  C   C3622     1.0  0.90863  0.67482  0.10367  1.0000
  C   C3623     1.0  0.88412  0.68983  0.09836  1.0000
  C   C3624     1.0  0.90761  0.68354  0.11435  1.0000
  C   C3625     1.0  0.88261  0.69862  0.10913  1.0000
  C   C3626     1.0  0.89446  0.69542  0.11717  1.0000
  C   C3627     1.0  0.89802  0.66886  0.08467  1.0000
  H   H3618     1.0  0.91878  0.66538  0.10185  1.0000
  H   H3619     1.0  0.87478  0.69228  0.09225  1.0000
  H   H3620     1.0  0.91684  0.68083  0.12065  1.0000
  H   H3621     1.0  0.87220  0.70766  0.11137  1.0000
  H   H3622     1.0  0.89337  0.70199  0.12571  1.0000
  H   H3623     1.0  0.90678  0.65766  0.08626  1.0000
  H   H3624     1.0  0.88659  0.66588  0.08611  1.0000
  H   H3625     1.0  0.90135  0.67570  0.07270  1.0000
  H   H3626     1.0  0.54983  0.67399  0.14868  1.0000
  C   C3628     1.0  0.50618  0.83105  0.06089  1.0000
  H   H3627     1.0  0.51215  0.88108  0.03496  1.0000
  S   S1221     1.0  0.49352  0.78471  0.05475  1.0000
  C   C3629     1.0  0.59662  0.70821  0.15454  1.0000
  H   H3628     1.0  0.62822  0.74093  0.11730  1.0000
  C   C3630     1.0  0.61559  0.74231  0.11777  1.0000
  H   H3629     1.0  0.58743  0.63950  0.10120  1.0000
  N   N303      1.0  0.58007  0.64842  0.12186  1.0000
  H   H3630     1.0  0.68671  0.57134  0.08878  1.0000
  Fe  Fe610     1.0  0.50575  0.77171  0.03585  1.0000
  H   H3631     1.0  0.67073  0.53847  0.09250  1.0000
  C   C3631     1.0  0.66833  0.54730  0.11862  1.0000
  C   C3632     1.0  0.59752  0.50956  0.13152  1.0000
  H   H3632     1.0  0.52012  0.85858  0.98660  1.0000
  C   C3633     1.0  0.55759  0.80254  0.98671  1.0000
  C   C3634     1.0  0.77597  0.59643  0.99500  1.0000
  C   C3635     1.0  0.76414  0.65908  0.16420  1.0000
  H   H3633     1.0  0.69512  0.53319  0.01973  1.0000
  S   S1222     1.0  0.53237  0.65644  0.11567  1.0000
  H   H3634     1.0  0.75754  0.65867  0.15620  1.0000
  Fe  Fe611     1.0  0.62272  0.60149  0.11264  1.0000
  H   H3635     1.0  0.66679  0.54568  0.14290  1.0000
  H   H3636     1.0  0.62999  0.71296  0.12763  1.0000
  C   C3636     1.0  0.56431  0.61689  0.12711  1.0000
  H   H3637     1.0  0.67606  0.52746  0.97916  1.0000
  C   C3637     1.0  0.49763  0.74775  0.12610  1.0000
  C   C3638     1.0  0.56204  0.61475  0.14318  1.0000
  C   C3639     1.0  0.54080  0.63776  0.14265  1.0000
  Fe  Fe612     1.0  0.51127  0.79933  0.04367  1.0000
  S   S1223     1.0  0.52159  0.69935  0.16664  1.0000
  H   H3638     1.0  0.69486  0.49032  0.05395  1.0000
  C   C3640     1.0  0.73541  0.50302  0.03564  1.0000
  H   H3639     1.0  0.73392  0.66549  0.02303  1.0000
  Fe  Fe613     1.0  0.63285  0.58210  0.14210  1.0000
  C   C3641     1.0  0.55002  0.62500  0.15097  1.0000
  C   C3642     1.0  0.67168  0.55089  0.13100  1.0000
  Fe  Fe614     1.0  0.59877  0.76449  0.15669  1.0000
  C   C3643     1.0  0.67256  0.60913  0.15286  1.0000
  C   C3644     1.0  0.64434  0.72521  0.14663  1.0000
  H   H3640     1.0  0.75088  0.49523  0.07268  1.0000
  Fe  Fe615     1.0  0.69540  0.66286  0.13186  1.0000
  S   S1224     1.0  0.50657  0.66950  0.15409  1.0000
  C   C3645     1.0  0.50933  0.72590  0.06871  1.0000
  H   H3641     1.0  0.90133  0.56546  0.13132  1.0000
  C   C3646     1.0  0.61174  0.50660  0.12087  1.0000
  H   H3642     1.0  0.53885  0.74395  0.12781  1.0000
  H   H3643     1.0  0.63242  0.51502  0.10742  1.0000
  H   H3644     1.0  0.59002  0.95709  0.08149  1.0000
  H   H3645     1.0  0.53725  0.84191  0.11905  1.0000
  S   S1225     1.0  0.51154  0.74571  0.04008  1.0000
  H   H3646     1.0  0.67664  0.55539  0.07953  1.0000
  H   H3647     1.0  0.50838  0.71203  0.09205  1.0000
  S   S1226     1.0  0.67489  0.65250  0.14586  1.0000
  C   C3647     1.0  0.62135  0.51750  0.11551  1.0000
  C   C3648     1.0  0.63025  0.73329  0.15445  1.0000
  S   S1227     1.0  0.64087  0.57972  0.11744  1.0000
  Fe  Fe616     1.0  0.56526  0.76626  0.15620  1.0000
  H   H3648     1.0  0.52803  0.75560  0.08557  1.0000
  H   H3649     1.0  0.66001  0.70293  0.14540  1.0000
  Fe  Fe617     1.0  0.50908  0.69396  0.15134  1.0000
  H   H3650     1.0  0.68317  0.56494  0.13749  1.0000
  C   C3649     1.0  0.65245  0.51740  0.05447  1.0000
  H   H3651     1.0  0.65628  0.60363  0.97532  1.0000
  S   S1228     1.0  0.51934  0.96832  0.15336  1.0000
  C   C3650     1.0  0.54391  0.74201  0.14986  1.0000
  C   C3651     1.0  0.60257  0.53443  0.13136  1.0000
  H   H3652     1.0  0.56887  0.80602  0.98055  1.0000
  H   H3653     1.0  0.62526  0.60925  0.17154  1.0000
  C   C3652     1.0  0.64942  0.70910  0.15182  1.0000
  H   H3654     1.0  0.94764  0.61020  0.17221  1.0000
  C   C3653     1.0  0.58749  0.96830  0.08454  1.0000
  C   C3654     1.0  0.95201  0.64225  0.17221  1.0000
  H   H3655     1.0  0.58215  0.52572  0.14524  1.0000
  H   H3656     1.0  0.73909  0.59022  0.00698  1.0000
  C   C3655     1.0  0.57377  0.97920  0.08217  1.0000
  C   C3656     1.0  0.61795  0.71583  0.13391  1.0000
  H   H3657     1.0  0.78896  0.67946  0.16687  1.0000
  C   C3657     1.0  0.88871  0.58367  0.16154  1.0000
  H   H3658     1.0  0.84335  0.66491  0.16228  1.0000
  C   C3658     1.0  0.51184  0.95995  0.17263  1.0000
  C   C3659     1.0  0.59382  0.73413  0.13837  1.0000
  C   C3660     1.0  0.93308  0.57086  0.16484  1.0000
  H   H3659     1.0  0.70329  0.58670  0.97866  1.0000
  H   H3660     1.0  0.90888  0.54300  0.15231  1.0000
  C   C3661     1.0  0.73663  0.48831  0.04554  1.0000
  C   C3662     1.0  0.77345  0.67010  0.15976  1.0000
  Fe  Fe618     1.0  0.69156  0.63756  0.16054  1.0000
  S   S1229     1.0  0.55892  0.97390  0.12533  1.0000
  S   S1230     1.0  0.72280  0.67408  0.16603  1.0000
  C   C3663     1.0  0.50088  0.63266  0.12776  1.0000
  H   H3661     1.0  0.91629  0.64316  0.16624  1.0000
  S   S1231     1.0  0.49658  0.81701  0.02798  1.0000
  C   C3664     1.0  0.59769  0.97164  0.09144  1.0000
  N   N304      1.0  0.60901  0.73054  0.13044  1.0000
  C   C3665     1.0  0.56004  0.85641  0.98576  1.0000
  C   C3666     1.0  0.64057  0.70105  0.16503  1.0000
  S   S1232     1.0  0.58048  0.75195  0.17293  1.0000
  C   C3667     1.0  0.93309  0.60233  0.15476  1.0000
  N   N305      1.0  0.75417  0.58768  0.98508  1.0000
  C   C3668     1.0  0.92853  0.64360  0.16353  1.0000
  H   H3662     1.0  0.67749  0.61988  0.00228  1.0000
  C   C3669     1.0  0.66521  0.61177  0.99022  1.0000
  H   H3663     1.0  0.93280  0.55859  0.16901  1.0000
  H   H3664     1.0  0.56482  0.88322  0.13250  1.0000
  H   H3665     1.0  0.81746  0.68339  0.16555  1.0000
  C   C3670     1.0  0.58744  0.72308  0.15059  1.0000
  C   C3671     1.0  0.74231  0.48546  0.05887  1.0000
  C   C3672     1.0  0.53007  0.71585  0.16002  1.0000
  H   H3666     1.0  0.54792  0.81239  0.98342  1.0000
  C   C3673     1.0  0.77942  0.59363  0.98013  1.0000
  H   H3667     1.0  0.75740  0.66592  0.00138  1.0000
  H   H3668     1.0  0.49618  0.75077  0.01004  1.0000
  C   C3674     1.0  0.62666  0.70917  0.17305  1.0000
  C   C3675     1.0  0.90307  0.55429  0.15494  1.0000
  H   H3669     1.0  0.54725  0.73700  0.17317  1.0000
  H   H3670     1.0  0.77964  0.67519  0.00334  1.0000
  C   C3676     1.0  0.75002  0.52432  0.05611  1.0000
  C   C3677     1.0  0.93606  0.57897  0.17414  1.0000
  H   H3671     1.0  0.66954  0.69759  0.17320  1.0000
  H   H3672     1.0  0.61410  0.74136  0.10653  1.0000
  H   H3673     1.0  0.51309  0.75529  0.07636  1.0000
  C   C3678     1.0  0.78233  0.64342  0.98164  1.0000
  C   C3679     1.0  0.90031  0.55635  0.17004  1.0000
  H   H3674     1.0  0.64453  0.64712  0.17164  1.0000
  H   H3675     1.0  0.56558  0.97649  0.07724  1.0000
  H   H3676     1.0  0.61074  0.73143  0.17398  1.0000
  C   C3680     1.0  0.55662  0.87222  0.97862  1.0000
  H   H3677     1.0  0.68944  0.52462  0.99112  1.0000
  H   H3678     1.0  0.52019  0.74186  0.11129  1.0000
  C   C3681     1.0  0.66515  0.60902  0.97607  1.0000
  Fe  Fe619     1.0  0.57162  0.98244  0.13800  1.0000
  C   C3682     1.0  0.76830  0.58927  0.97531  1.0000
  Fe  Fe620     1.0  0.57895  0.86272  0.23767  1.0000
  S   S1233     1.0  0.60353  0.85274  0.22634  1.0000
  S   S1234     1.0  0.56138  0.87996  0.22484  1.0000
  Fe  Fe621     1.0  0.58145  0.84147  0.26873  1.0000
  S   S1235     1.0  0.60600  0.82911  0.26009  1.0000
  S   S1236     1.0  0.57011  0.83694  0.29408  1.0000
  Fe  Fe622     1.0  0.60986  0.85305  0.24816  1.0000
  S   S1237     1.0  0.63298  0.85697  0.24900  1.0000
  Fe  Fe623     1.0  0.59771  0.82961  0.23911  1.0000
  S   S1238     1.0  0.60735  0.81056  0.22563  1.0000
  S   S1239     1.0  0.58577  0.86550  0.25824  1.0000
  S   S1240     1.0  0.57263  0.83955  0.24900  1.0000
  H   H3679     1.0  0.91642  0.87595  0.33303  1.0000
  S   S1241     1.0  0.50178  0.96980  0.23694  1.0000
  H   H3680     1.0  0.97071  0.66753  0.21597  1.0000
  H   H3681     1.0  0.96395  0.59586  0.20521  1.0000
  H   H3682     1.0  0.96589  0.60702  0.25757  1.0000
  N   N306      1.0  0.79547  0.72991  0.23204  1.0000
  C   C3683     1.0  0.98389  0.51957  0.23959  1.0000
  H   H3683     1.0  0.55114  0.81431  0.20023  1.0000
  C   C3684     1.0  0.53227  0.96866  0.19900  1.0000
  S   S1242     1.0  0.56534  0.77555  0.20868  1.0000
  S   S1243     1.0  0.86773  0.81460  0.36740  1.0000
  H   H3684     1.0  0.97621  0.56963  0.20000  1.0000
  H   H3685     1.0  0.93549  0.50705  0.20761  1.0000
  H   H3686     1.0  0.92571  0.52584  0.26747  1.0000
  Fe  Fe624     1.0  0.57298  0.77297  0.18379  1.0000
  C   C3685     1.0  0.93613  0.64170  0.17554  1.0000
  H   H3687     1.0  0.97377  0.48439  0.29340  1.0000
  H   H3688     1.0  0.81783  0.71805  0.22125  1.0000
  C   C3686     1.0  0.51964  0.91204  0.29505  1.0000
  H   H3689     1.0  0.98353  0.55012  0.25380  1.0000
  C   C3687     1.0  0.55970  0.81756  0.18927  1.0000
  H   H3690     1.0  0.78414  0.97083  0.35584  1.0000
  C   C3688     1.0  0.85325  0.52053  0.30557  1.0000
  C   C3689     1.0  0.78070  0.66075  0.18457  1.0000
  Fe  Fe625     1.0  0.78136  0.68362  0.21765  1.0000
  S   S1244     1.0  0.75607  0.69446  0.22553  1.0000
  S   S1245     1.0  0.79442  0.69015  0.19301  1.0000
  Fe  Fe626     1.0  0.78331  0.66154  0.24871  1.0000
  S   S1246     1.0  0.75801  0.67005  0.25931  1.0000
  S   S1247     1.0  0.80142  0.64439  0.26092  1.0000
  Fe  Fe627     1.0  0.75363  0.66986  0.23638  1.0000
  S   S1248     1.0  0.73437  0.66024  0.23385  1.0000
  Fe  Fe628     1.0  0.76270  0.69387  0.24756  1.0000
  S   S1249     1.0  0.75345  0.71463  0.25887  1.0000
  S   S1250     1.0  0.77860  0.65900  0.22701  1.0000
  S   S1251     1.0  0.78832  0.68538  0.23848  1.0000
  H   H3691     1.0  0.91596  0.49552  0.20301  1.0000
  C   C3690     1.0  0.83961  0.69045  0.36689  1.0000
  Fe  Fe629     1.0  0.96643  0.85880  0.36338  1.0000
  C   C3691     1.0  0.49977  0.94701  0.20367  1.0000
  H   H3692     1.0  0.93815  0.57278  0.18556  1.0000
  S   S1252     1.0  0.50599  0.89232  0.34136  1.0000
  H   H3693     1.0  0.70705  0.70686  0.18573  1.0000
  H   H3694     1.0  0.94638  0.63961  0.22058  1.0000
  C   C3692     1.0  0.98630  0.57030  0.20364  1.0000
  C   C3693     1.0  0.97973  0.49200  0.29564  1.0000
  C   C3694     1.0  0.75344  0.63762  0.18299  1.0000
  H   H3695     1.0  0.98133  0.50641  0.33501  1.0000
  H   H3696     1.0  0.55060  0.88822  0.25530  1.0000
  H   H3697     1.0  0.94236  0.49921  0.23348  1.0000
  Fe  Fe630     1.0  0.83554  0.56310  0.32016  1.0000
  S   S1253     1.0  0.82315  0.55110  0.31063  1.0000
  S   S1254     1.0  0.85914  0.56834  0.30764  1.0000
  Fe  Fe631     1.0  0.80183  0.56905  0.31767  1.0000
  S   S1255     1.0  0.78449  0.58125  0.30247  1.0000
  S   S1256     1.0  0.81468  0.58220  0.32523  1.0000
  C   C3695     1.0  0.76272  0.60372  0.32863  1.0000
  S   S1257     1.0  0.77608  0.94249  0.36264  1.0000
  C   C3696     1.0  0.77119  0.64997  0.18870  1.0000
  H   H3698     1.0  0.60691  0.87185  0.29836  1.0000
  C   C3697     1.0  0.90526  0.84510  0.31039  1.0000
  H   H3699     1.0  0.72700  0.84179  0.32876  1.0000
  H   H3700     1.0  0.66186  0.68206  0.19952  1.0000
  C   C3698     1.0  0.50955  0.95213  0.30820  1.0000
  C   C3699     1.0  0.98136  0.49065  0.31069  1.0000
  C   C3700     1.0  0.55877  0.90725  0.20309  1.0000
  H   H3701     1.0  0.73193  0.86977  0.30072  1.0000
  C   C3701     1.0  0.67168  0.68762  0.19672  1.0000
  N   N307      1.0  0.76299  0.64931  0.17858  1.0000
  H   H3702     1.0  0.81769  0.70210  0.33961  1.0000
  C   C3702     1.0  0.98654  0.50270  0.28339  1.0000
  H   H3703     1.0  0.87841  0.49933  0.28148  1.0000
  H   H3704     1.0  0.79222  0.78928  0.36925  1.0000
  H   H3705     1.0  0.52385  0.92204  0.29574  1.0000
  H   H3706     1.0  0.82995  0.87261  0.35932  1.0000
  H   H3707     1.0  0.72653  0.75068  0.32521  1.0000
  Fe  Fe632     1.0  0.85819  0.84648  0.33180  1.0000
  S   S1258     1.0  0.87437  0.82338  0.32924  1.0000
  S   S1259     1.0  0.85067  0.86588  0.31254  1.0000
  Fe  Fe633     1.0  0.85648  0.81350  0.34903  1.0000
  S   S1260     1.0  0.84820  0.79183  0.35142  1.0000
  Fe  Fe634     1.0  0.88426  0.82650  0.34778  1.0000
  S   S1261     1.0  0.91019  0.81978  0.34728  1.0000
  S   S1262     1.0  0.83945  0.83633  0.35003  1.0000
  S   S1263     1.0  0.86968  0.85052  0.34842  1.0000
  Fe  Fe635     1.0  0.78911  0.74813  0.30632  1.0000
  S   S1264     1.0  0.77141  0.74372  0.32855  1.0000
  S   S1265     1.0  0.79792  0.72950  0.29229  1.0000
  Fe  Fe636     1.0  0.79278  0.77775  0.31261  1.0000
  S   S1266     1.0  0.77521  0.77562  0.33512  1.0000
  S   S1267     1.0  0.80397  0.79829  0.30659  1.0000
  Fe  Fe637     1.0  0.78712  0.75046  0.33917  1.0000
  S   S1268     1.0  0.79407  0.73953  0.36202  1.0000
  Fe  Fe638     1.0  0.76120  0.76930  0.32230  1.0000
  S   S1269     1.0  0.73505  0.77787  0.32757  1.0000
  S   S1270     1.0  0.80582  0.75290  0.31749  1.0000
  S   S1271     1.0  0.77779  0.77343  0.29911  1.0000
  Fe  Fe639     1.0  0.66196  0.88338  0.30575  1.0000
  S   S1272     1.0  0.66880  0.85743  0.31326  1.0000
  S   S1273     1.0  0.64429  0.89479  0.29072  1.0000
  Fe  Fe640     1.0  0.68133  0.88874  0.32570  1.0000
  S   S1274     1.0  0.68950  0.86311  0.33454  1.0000
  S   S1275     1.0  0.68599  0.90514  0.33729  1.0000
  Fe  Fe641     1.0  0.69270  0.86167  0.30987  1.0000
  S   S1276     1.0  0.71441  0.84886  0.29613  1.0000
  Fe  Fe642     1.0  0.66462  0.86189  0.33696  1.0000
  S   S1277     1.0  0.65075  0.84868  0.35838  1.0000
  S   S1278     1.0  0.68626  0.88753  0.30070  1.0000
  S   S1279     1.0  0.65628  0.88764  0.32970  1.0000
  Fe  Fe643     1.0  0.78986  0.92982  0.34389  1.0000
  S   S1280     1.0  0.81589  0.92463  0.34140  1.0000
  S   S1281     1.0  0.75323  0.92114  0.31692  1.0000
  S   S1282     1.0  0.77443  0.91272  0.35034  1.0000
  H   H3708     1.0  0.54825  0.90471  0.20205  1.0000
  S   S1283     1.0  0.99263  0.58147  0.26293  1.0000
  H   H3709     1.0  0.97564  0.60739  0.20761  1.0000
  C   C3703     1.0  0.64937  0.89947  0.36534  1.0000
  C   C3704     1.0  0.57705  0.84109  0.20468  1.0000
  H   H3710     1.0  0.81653  0.86002  0.36646  1.0000
  C   C3705     1.0  0.91537  0.85023  0.31586  1.0000
  N   N308      1.0  0.68842  0.70353  0.17806  1.0000
  C   C3706     1.0  0.77929  0.62257  0.31454  1.0000
  Fe  Fe644     1.0  0.98013  0.48430  0.24101  1.0000
  S   S1284     1.0  0.78258  0.48359  0.31122  1.0000
  C   C3707     1.0  0.91918  0.49204  0.21418  1.0000
  C   C3708     1.0  0.88909  0.87106  0.30719  1.0000
  H   H3711     1.0  0.54345  0.89133  0.28244  1.0000
  H   H3712     1.0  0.80563  0.95778  0.32350  1.0000
  C   C3709     1.0  0.51910  0.91851  0.25318  1.0000
  C   C3710     1.0  0.68013  0.68590  0.20784  1.0000
  C   C3711     1.0  0.79178  0.72032  0.36993  1.0000
  H   H3713     1.0  0.86026  0.62737  0.25596  1.0000
  Fe  Fe645     1.0  0.90545  0.54951  0.20557  1.0000
  S   S1285     1.0  0.90450  0.57393  0.20680  1.0000
  C   C3712     1.0  0.79506  0.98152  0.31442  1.0000
  Fe  Fe646     1.0  0.90386  0.53665  0.23978  1.0000
  S   S1286     1.0  0.90337  0.55953  0.24424  1.0000
  S   S1287     1.0  0.90044  0.51658  0.25997  1.0000
  Fe  Fe647     1.0  0.88635  0.56931  0.22867  1.0000
  S   S1288     1.0  0.86337  0.58494  0.23625  1.0000
  Fe  Fe648     1.0  0.92153  0.56222  0.22211  1.0000
  S   S1289     1.0  0.94244  0.57226  0.21804  1.0000
  S   S1290     1.0  0.88546  0.54621  0.22582  1.0000
  S   S1291     1.0  0.92403  0.53807  0.21927  1.0000
  H   H3714     1.0  0.87876  0.87926  0.30387  1.0000
  H   H3715     1.0  0.80821  0.72324  0.24985  1.0000
  H   H3716     1.0  0.72746  0.73497  0.36602  1.0000
  C   C3713     1.0  0.93396  0.49413  0.23129  1.0000
  H   H3717     1.0  0.57340  0.84837  0.21312  1.0000
  C   C3714     1.0  0.58576  0.91401  0.20597  1.0000
  H   H3718     1.0  0.98324  0.53473  0.35941  1.0000
  S   S1292     1.0  0.98191  0.55049  0.28689  1.0000
  C   C3715     1.0  0.78408  0.71338  0.36341  1.0000
  Fe  Fe649     1.0  0.97216  0.57623  0.28220  1.0000
  S   S1293     1.0  0.94708  0.58605  0.27980  1.0000
  H   H3719     1.0  0.86903  0.54707  0.27582  1.0000
  C   C3716     1.0  0.82470  0.70275  0.34711  1.0000
  H   H3720     1.0  0.50672  0.91416  0.29939  1.0000
  S   S1294     1.0  0.86055  0.64374  0.18499  1.0000
  H   H3721     1.0  0.81025  0.49691  0.25807  1.0000
  C   C3717     1.0  0.86225  0.53157  0.29756  1.0000
  H   H3722     1.0  0.90754  0.83297  0.30982  1.0000
  H   H3723     1.0  0.76002  0.60541  0.31713  1.0000
  H   H3724     1.0  0.53520  0.71388  0.18209  1.0000
  C   C3718     1.0  0.97801  0.53322  0.24520  1.0000
  H   H3725     1.0  0.77020  0.64232  0.20014  1.0000
  H   H3726     1.0  0.76105  0.73341  0.22278  1.0000
  C   C3719     1.0  0.86663  0.49233  0.25247  1.0000
  H   H3727     1.0  0.96564  0.53844  0.24682  1.0000
  C   C3720     1.0  0.94314  0.57670  0.23510  1.0000
  C   C3721     1.0  0.95761  0.57369  0.23889  1.0000
  C   C3722     1.0  0.95861  0.57681  0.25251  1.0000
  C   C3723     1.0  0.94523  0.58309  0.26245  1.0000
  C   C3724     1.0  0.93061  0.58645  0.25862  1.0000
  C   C3725     1.0  0.92955  0.58314  0.24495  1.0000
  H   H3728     1.0  0.96805  0.56825  0.23169  1.0000
  H   H3729     1.0  0.96977  0.57405  0.25545  1.0000
  H   H3730     1.0  0.92016  0.59146  0.26622  1.0000
  H   H3731     1.0  0.91830  0.58569  0.24197  1.0000
  N   N309      1.0  0.77504  0.61164  0.32755  1.0000
  C   C3726     1.0  0.54073  0.89728  0.25893  1.0000
  C   C3727     1.0  0.93204  0.85203  0.36076  1.0000
  C   C3728     1.0  0.79398  0.61539  0.33907  1.0000
  H   H3732     1.0  0.60917  0.82675  0.17919  1.0000
  C   C3729     1.0  0.87648  0.49975  0.23973  1.0000
  C   C3730     1.0  0.88680  0.50733  0.24204  1.0000
  C   C3731     1.0  0.88756  0.50713  0.25707  1.0000
  H   H3733     1.0  0.98146  0.62559  0.25712  1.0000
  H   H3734     1.0  0.92775  0.61077  0.18340  1.0000
  H   H3735     1.0  0.87593  0.49992  0.22807  1.0000
  H   H3736     1.0  0.89442  0.51302  0.23214  1.0000
  C   C3732     1.0  0.65254  0.62479  0.18606  1.0000
  C   C3733     1.0  0.80189  0.73395  0.24298  1.0000
  H   H3737     1.0  0.92555  0.84190  0.31931  1.0000
  S   S1295     1.0  0.77790  0.94611  0.32541  1.0000
  C   C3734     1.0  0.50190  0.95193  0.29704  1.0000
  H   H3738     1.0  0.64100  0.59181  0.19003  1.0000
  H   H3739     1.0  0.82700  0.74257  0.35527  1.0000
  S   S1296     1.0  0.79467  0.55463  0.34148  1.0000
  H   H3740     1.0  0.76667  0.59093  0.33276  1.0000
  H   H3741     1.0  0.97029  0.60418  0.33715  1.0000
  H   H3742     1.0  0.76093  0.62627  0.18082  1.0000
  C   C3735     1.0  0.81098  0.50395  0.33131  1.0000
  C   C3736     1.0  0.73055  0.74249  0.35434  1.0000
  C   C3737     1.0  0.99077  0.54300  0.35512  1.0000
  C   C3738     1.0  0.62872  0.85108  0.32483  1.0000
  H   H3743     1.0  0.78715  0.66132  0.19261  1.0000
  H   H3744     1.0  0.51608  0.92572  0.19945  1.0000
  C   C3739     1.0  0.70487  0.90910  0.33165  1.0000
  C   C3740     1.0  0.70947  0.91606  0.34093  1.0000
  C   C3741     1.0  0.72438  0.91954  0.33667  1.0000
  C   C3742     1.0  0.73467  0.91637  0.32291  1.0000
  C   C3743     1.0  0.73005  0.90940  0.31361  1.0000
  C   C3744     1.0  0.71524  0.90564  0.31803  1.0000
  H   H3745     1.0  0.70146  0.91881  0.35142  1.0000
  H   H3746     1.0  0.72781  0.92486  0.34392  1.0000
  H   H3747     1.0  0.73790  0.90710  0.30286  1.0000
  H   H3748     1.0  0.71169  0.90048  0.31070  1.0000
  C   C3745     1.0  0.72901  0.79742  0.31839  1.0000
  C   C3746     1.0  0.71446  0.80619  0.32454  1.0000
  C   C3747     1.0  0.70979  0.82200  0.31767  1.0000
  C   C3748     1.0  0.71956  0.82896  0.30445  1.0000
  C   C3749     1.0  0.73396  0.82012  0.29813  1.0000
  C   C3750     1.0  0.73874  0.80442  0.30518  1.0000
  H   H3749     1.0  0.70689  0.80083  0.33478  1.0000
  H   H3750     1.0  0.69866  0.82878  0.32262  1.0000
  H   H3751     1.0  0.74157  0.82549  0.28795  1.0000
  H   H3752     1.0  0.74993  0.79775  0.30031  1.0000
  C   C3751     1.0  0.84119  0.88266  0.31988  1.0000
  C   C3752     1.0  0.82629  0.89077  0.31740  1.0000
  C   C3753     1.0  0.81839  0.90372  0.32400  1.0000
  C   C3754     1.0  0.82563  0.90883  0.33262  1.0000
  C   C3755     1.0  0.84068  0.90097  0.33472  1.0000
  C   C3756     1.0  0.84835  0.88777  0.32858  1.0000
  H   H3753     1.0  0.82072  0.88685  0.31067  1.0000
  H   H3754     1.0  0.80675  0.90978  0.32230  1.0000
  H   H3755     1.0  0.84632  0.90492  0.34137  1.0000
  H   H3756     1.0  0.85987  0.88166  0.33044  1.0000
  C   C3757     1.0  0.83601  0.79379  0.33884  1.0000
  C   C3758     1.0  0.82846  0.78178  0.34071  1.0000
  C   C3759     1.0  0.81843  0.78321  0.33101  1.0000
  C   C3760     1.0  0.81611  0.79655  0.31920  1.0000
  C   C3761     1.0  0.82354  0.80862  0.31744  1.0000
  C   C3762     1.0  0.83341  0.80729  0.32730  1.0000
  H   H3757     1.0  0.83037  0.77137  0.34968  1.0000
  H   H3758     1.0  0.81262  0.77392  0.33259  1.0000
  H   H3759     1.0  0.82179  0.81897  0.30835  1.0000
  H   H3760     1.0  0.83918  0.81662  0.32578  1.0000
  C   C3763     1.0  0.91835  0.83209  0.35289  1.0000
  C   C3764     1.0  0.90889  0.84477  0.35909  1.0000
  C   C3765     1.0  0.91573  0.85468  0.36306  1.0000
  C   C3766     1.0  0.94150  0.83921  0.35478  1.0000
  C   C3767     1.0  0.93465  0.82924  0.35090  1.0000
  H   H3761     1.0  0.89632  0.84698  0.36086  1.0000
  H   H3762     1.0  0.93247  0.86103  0.32672  1.0000
  H   H3763     1.0  0.94347  0.59508  0.18899  1.0000
  H   H3764     1.0  0.94204  0.81943  0.34613  1.0000
  S   S1297     1.0  0.90786  0.54114  0.18421  1.0000
  H   H3765     1.0  0.62047  0.87569  0.31643  1.0000
  S   S1298     1.0  0.98415  0.86441  0.34132  1.0000
  H   H3766     1.0  0.77097  0.80950  0.31961  1.0000
  S   S1299     1.0  0.74481  0.94373  0.35070  1.0000
  C   C3768     1.0  0.81209  0.89483  0.37285  1.0000
  H   H3767     1.0  0.98192  0.58571  0.33287  1.0000
  C   C3769     1.0  0.79378  0.49121  0.31884  1.0000
  H   H3768     1.0  0.94850  0.61394  0.23907  1.0000
  H   H3769     1.0  0.83819  0.65199  0.21178  1.0000
  C   C3770     1.0  0.58610  0.82239  0.18326  1.0000
  H   H3770     1.0  0.86901  0.53505  0.30350  1.0000
  H   H3771     1.0  0.88178  0.62448  0.23257  1.0000
  H   H3772     1.0  0.78188  0.51498  0.31141  1.0000
  N   N310      1.0  0.91228  0.86537  0.31715  1.0000
  H   H3773     1.0  0.85955  0.48663  0.27741  1.0000
  C   C3771     1.0  0.62620  0.87391  0.35601  1.0000
  H   H3774     1.0  0.54259  0.94056  0.21362  1.0000
  C   C3772     1.0  0.52050  0.91555  0.36270  1.0000
  C   C3773     1.0  0.82734  0.71709  0.34705  1.0000
  H   H3775     1.0  0.63058  0.87577  0.34365  1.0000
  C   C3774     1.0  0.77360  0.73040  0.22203  1.0000
  H   H3776     1.0  0.74350  0.87625  0.30982  1.0000
  C   C3775     1.0  0.84415  0.51656  0.29796  1.0000
  Fe  Fe650     1.0  0.80924  0.56654  0.34855  1.0000
  C   C3776     1.0  0.83768  0.73337  0.35707  1.0000
  H   H3777     1.0  0.82237  0.72747  0.33935  1.0000
  C   C3777     1.0  0.79947  0.51374  0.32352  1.0000
  C   C3778     1.0  0.53660  0.89910  0.27426  1.0000
  H   H3778     1.0  0.68849  0.84073  0.25061  1.0000
  C   C3779     1.0  0.59253  0.83842  0.19636  1.0000
  H   H3779     1.0  0.56560  0.80657  0.18524  1.0000
  C   C3780     1.0  0.78364  0.72216  0.21110  1.0000
  H   H3780     1.0  0.92968  0.63975  0.18747  1.0000
  C   C3781     1.0  0.86205  0.53846  0.28196  1.0000
  H   H3781     1.0  0.79687  0.49411  0.27689  1.0000
  H   H3782     1.0  0.95410  0.83709  0.35290  1.0000
  C   C3782     1.0  0.56763  0.89687  0.21348  1.0000
  H   H3783     1.0  0.59526  0.85429  0.29173  1.0000
  C   C3783     1.0  0.63264  0.61385  0.17578  1.0000
  C   C3784     1.0  0.74713  0.71910  0.34558  1.0000
  S   S1300     1.0  0.97083  0.51013  0.23706  1.0000
  C   C3785     1.0  0.67844  0.88181  0.25894  1.0000
  H   H3784     1.0  0.77925  0.71987  0.35348  1.0000
  H   H3785     1.0  0.60105  0.84337  0.19848  1.0000
  C   C3786     1.0  0.76402  0.82133  0.31820  1.0000
  H   H3786     1.0  0.78619  0.97846  0.31073  1.0000
  H   H3787     1.0  0.54398  0.94614  0.23026  1.0000
  C   C3787     1.0  0.85920  0.57628  0.28796  1.0000
  C   C3788     1.0  0.84608  0.57765  0.28222  1.0000
  C   C3789     1.0  0.84696  0.58152  0.26621  1.0000
  C   C3790     1.0  0.86101  0.58398  0.25596  1.0000
  C   C3791     1.0  0.87370  0.58398  0.26170  1.0000
  C   C3792     1.0  0.87282  0.58007  0.27771  1.0000
  H   H3788     1.0  0.83542  0.57520  0.29006  1.0000
  H   H3789     1.0  0.83701  0.58179  0.26182  1.0000
  H   H3790     1.0  0.88430  0.58670  0.25376  1.0000
  H   H3791     1.0  0.88280  0.57966  0.28209  1.0000
  C   C3793     1.0  0.79128  0.62991  0.31332  1.0000
  C   C3794     1.0  0.86719  0.49236  0.26753  1.0000
  Fe  Fe651     1.0  0.49348  0.88328  0.32924  1.0000
  C   C3795     1.0  0.53186  0.90701  0.24836  1.0000
  Fe  Fe652     1.0  0.81733  0.53773  0.33509  1.0000
  C   C3796     1.0  0.81108  0.80537  0.37202  1.0000
  H   H3792     1.0  0.82207  0.80859  0.37177  1.0000
  C   C3797     1.0  0.93891  0.60303  0.17890  1.0000
  H   H3793     1.0  0.63472  0.85261  0.33280  1.0000
  H   H3794     1.0  0.94753  0.53553  0.27007  1.0000
  H   H3795     1.0  0.79976  0.61228  0.34870  1.0000
  N   N311      1.0  0.61342  0.84705  0.30443  1.0000
  C   C3798     1.0  0.77074  0.83356  0.30855  1.0000
  H   H3796     1.0  0.55662  0.92888  0.18605  1.0000
  Fe  Fe653     1.0  0.49780  0.87489  0.36245  1.0000
  C   C3799     1.0  0.83768  0.58780  0.37439  1.0000
  H   H3797     1.0  0.89682  0.88775  0.31398  1.0000
  C   C3800     1.0  0.51530  0.91999  0.26861  1.0000
  C   C3801     1.0  0.51792  0.94441  0.17910  1.0000
  S   S1301     1.0  0.97881  0.83397  0.37057  1.0000
  Fe  Fe654     1.0  0.76099  0.93013  0.33342  1.0000
  C   C3802     1.0  0.89933  0.87575  0.31291  1.0000
  S   S1302     1.0  0.79895  0.57840  0.36872  1.0000
  N   N312      1.0  0.65158  0.60948  0.19109  1.0000
  H   H3798     1.0  0.66050  0.62911  0.18981  1.0000
  H   H3799     1.0  0.73878  0.73587  0.30456  1.0000
  H   H3800     1.0  0.84774  0.73638  0.34763  1.0000
  C   C3803     1.0  0.81743  0.87230  0.36124  1.0000
  H   H3801     1.0  0.83679  0.96555  0.33725  1.0000
  H   H3802     1.0  0.67536  0.89324  0.26164  1.0000
  H   H3803     1.0  0.77859  0.59961  0.35018  1.0000
  H   H3804     1.0  0.74284  0.81482  0.33290  1.0000
  C   C3804     1.0  0.72515  0.67055  0.18515  1.0000
  H   H3805     1.0  0.61419  0.84498  0.28181  1.0000
  H   H3806     1.0  0.74748  0.63619  0.19548  1.0000
  N   N313      1.0  0.73710  0.73324  0.34242  1.0000
  C   C3805     1.0  0.76525  0.71797  0.26936  1.0000
  C   C3806     1.0  0.77939  0.70762  0.27147  1.0000
  C   C3807     1.0  0.78911  0.71110  0.27892  1.0000
  C   C3808     1.0  0.78476  0.72492  0.28431  1.0000
  C   C3809     1.0  0.77047  0.73514  0.28248  1.0000
  C   C3810     1.0  0.76075  0.73167  0.27500  1.0000
  H   H3807     1.0  0.78291  0.69698  0.26727  1.0000
  H   H3808     1.0  0.80016  0.70314  0.28032  1.0000
  H   H3809     1.0  0.76710  0.74589  0.28649  1.0000
  H   H3810     1.0  0.74986  0.73978  0.27329  1.0000
  C   C3811     1.0  0.79666  0.62660  0.27155  1.0000
  C   C3812     1.0  0.78252  0.62307  0.27205  1.0000
  C   C3813     1.0  0.77895  0.60884  0.28116  1.0000
  C   C3814     1.0  0.78955  0.59819  0.28968  1.0000
  C   C3815     1.0  0.80381  0.60162  0.28871  1.0000
  C   C3816     1.0  0.80730  0.61581  0.27984  1.0000
  H   H3811     1.0  0.77427  0.63134  0.26560  1.0000
  H   H3812     1.0  0.76789  0.60620  0.28180  1.0000
  H   H3813     1.0  0.81214  0.59340  0.29493  1.0000
  H   H3814     1.0  0.81817  0.61847  0.27971  1.0000
  C   C3817     1.0  0.81300  0.67763  0.19055  1.0000
  S   S1303     1.0  0.94023  0.86492  0.36543  1.0000
  C   C3818     1.0  0.81884  0.66864  0.20355  1.0000
  C   C3819     1.0  0.79872  0.62620  0.32566  1.0000
  H   H3815     1.0  0.81209  0.66956  0.21508  1.0000
  S   S1304     1.0  0.99228  0.66630  0.17710  1.0000
  H   H3816     1.0  0.61776  0.91688  0.36454  1.0000
  C   C3820     1.0  0.73812  0.67487  0.20294  1.0000
  C   C3821     1.0  0.73074  0.66448  0.21512  1.0000
  C   C3822     1.0  0.72038  0.65729  0.21230  1.0000
  C   C3823     1.0  0.71763  0.66026  0.19732  1.0000
  H   H3817     1.0  0.80820  0.63160  0.32482  1.0000
  H   H3818     1.0  0.74611  0.68047  0.20498  1.0000
  H   H3819     1.0  0.71463  0.64925  0.22171  1.0000
  H   H3820     1.0  0.76572  0.48944  0.34171  1.0000
  C   C3824     1.0  0.63304  0.86069  0.36580  1.0000
  C   C3825     1.0  0.87785  0.49952  0.26983  1.0000
  S   S1305     1.0  0.98151  0.58039  0.30046  1.0000
  H   H3821     1.0  0.54485  0.97386  0.22782  1.0000
  C   C3826     1.0  0.62495  0.91842  0.37175  1.0000
  C   C3827     1.0  0.80540  0.72171  0.22143  1.0000
  H   H3822     1.0  0.60192  0.83375  0.29721  1.0000
  C   C3828     1.0  0.64360  0.63501  0.17570  1.0000
  H   H3823     1.0  0.77364  0.62547  0.30486  1.0000
  C   C3829     1.0  0.66029  0.89148  0.24133  1.0000
  H   H3824     1.0  0.65158  0.88681  0.23857  1.0000
  C   C3830     1.0  0.89207  0.85562  0.30597  1.0000
  H   H3825     1.0  0.51210  0.92614  0.24507  1.0000
  C   C3831     1.0  0.77976  0.73433  0.23238  1.0000
  C   C3832     1.0  0.81163  0.58700  0.37325  1.0000
  C   C3833     1.0  0.92671  0.48330  0.24306  1.0000
  H   H3826     1.0  0.85899  0.55162  0.25388  1.0000
  S   S1306     1.0  0.58284  0.94163  0.18467  1.0000
  C   C3834     1.0  0.53924  0.97663  0.21813  1.0000
  H   H3827     1.0  0.70984  0.65447  0.19519  1.0000
  C   C3835     1.0  0.74827  0.82434  0.32573  1.0000
  C   C3836     1.0  0.84241  0.65703  0.18684  1.0000
  Fe  Fe655     1.0  0.75926  0.92730  0.36713  1.0000
  H   H3828     1.0  0.76262  0.69953  0.33646  1.0000
  H   H3829     1.0  0.66998  0.88159  0.36011  1.0000
  C   C3837     1.0  0.59531  0.80076  0.22158  1.0000
  C   C3838     1.0  0.60207  0.79106  0.21097  1.0000
  C   C3839     1.0  0.59296  0.78323  0.20713  1.0000
  C   C3840     1.0  0.57699  0.78493  0.21391  1.0000
  C   C3841     1.0  0.57023  0.79441  0.22478  1.0000
  C   C3842     1.0  0.57934  0.80242  0.22852  1.0000
  H   H3830     1.0  0.61445  0.78956  0.20572  1.0000
  H   H3831     1.0  0.59844  0.77550  0.19923  1.0000
  H   H3832     1.0  0.55791  0.79563  0.23023  1.0000
  H   H3833     1.0  0.57407  0.80973  0.23686  1.0000
  C   C3843     1.0  0.63338  0.86614  0.26321  1.0000
  C   C3844     1.0  0.62425  0.88104  0.26413  1.0000
  C   C3845     1.0  0.62729  0.88958  0.27310  1.0000
  C   C3846     1.0  0.63933  0.88316  0.28128  1.0000
  C   C3847     1.0  0.64775  0.86790  0.28108  1.0000
  C   C3848     1.0  0.64480  0.85943  0.27206  1.0000
  H   H3834     1.0  0.61553  0.88636  0.25717  1.0000
  H   H3835     1.0  0.62070  0.90139  0.27322  1.0000
  H   H3836     1.0  0.65711  0.86285  0.28717  1.0000
  H   H3837     1.0  0.65190  0.84791  0.27135  1.0000
  C   C3849     1.0  0.55111  0.84852  0.29720  1.0000
  C   C3850     1.0  0.54335  0.85075  0.31213  1.0000
  C   C3851     1.0  0.52832  0.86041  0.31459  1.0000
  C   C3852     1.0  0.52096  0.86758  0.30213  1.0000
  C   C3853     1.0  0.52858  0.86510  0.28728  1.0000
  C   C3854     1.0  0.54373  0.85578  0.28477  1.0000
  H   H3838     1.0  0.54903  0.84514  0.32177  1.0000
  H   H3839     1.0  0.52247  0.86226  0.32610  1.0000
  H   H3840     1.0  0.52286  0.87056  0.27765  1.0000
  H   H3841     1.0  0.54963  0.85407  0.27323  1.0000
  C   C3855     1.0  0.73940  0.83963  0.32338  1.0000
  H   H3842     1.0  0.66284  0.58670  0.20157  1.0000
  C   C3856     1.0  0.49420  0.96272  0.19735  1.0000
  C   C3857     1.0  0.80516  0.48816  0.26780  1.0000
  H   H3843     1.0  0.82359  0.89689  0.36670  1.0000
  H   H3844     1.0  0.54044  0.89675  0.35925  1.0000
  S   S1307     1.0  0.82169  0.51152  0.33950  1.0000
  N   N314      1.0  0.98772  0.58419  0.20535  1.0000
  N   N315      1.0  0.98961  0.49965  0.31341  1.0000
  C   C3858     1.0  0.58113  0.90024  0.21493  1.0000
  H   H3845     1.0  0.69970  0.69146  0.21237  1.0000
  H   H3846     1.0  0.58796  0.89229  0.22298  1.0000
  H   H3847     1.0  0.92841  0.87955  0.31359  1.0000
  N   N316      1.0  0.52386  0.91018  0.27898  1.0000
  C   C3859     1.0  0.69279  0.69305  0.20392  1.0000
  C   C3860     1.0  0.79087  0.50736  0.31732  1.0000
  C   C3861     1.0  0.76155  0.84873  0.30653  1.0000
  C   C3862     1.0  0.73655  0.86749  0.31130  1.0000
  H   H3848     1.0  0.76681  0.85817  0.29885  1.0000
  H   H3849     1.0  0.78298  0.83119  0.30256  1.0000
  H   H3850     1.0  0.72646  0.86927  0.32124  1.0000
  H   H3851     1.0  0.71976  0.75127  0.35202  1.0000
  H   H3852     1.0  0.73923  0.74892  0.35441  1.0000
  Fe  Fe656     1.0  0.85228  0.83842  0.36652  1.0000
  H   H3853     1.0  0.90836  0.86453  0.36779  1.0000
  H   H3854     1.0  0.63570  0.82607  0.33038  1.0000
  C   C3863     1.0  0.57710  0.92424  0.19534  1.0000
  C   C3864     1.0  0.66083  0.59908  0.20219  1.0000
  C   C3865     1.0  0.61297  0.86175  0.30556  1.0000
  H   H3855     1.0  0.55446  0.83593  0.20899  1.0000
  C   C3866     1.0  0.51163  0.93784  0.19454  1.0000
  H   H3856     1.0  0.66949  0.86205  0.23799  1.0000
  H   H3857     1.0  0.80926  0.80927  0.35995  1.0000
  H   H3858     1.0  0.50956  0.94667  0.33257  1.0000
  H   H3859     1.0  0.75188  0.60813  0.33676  1.0000
  C   C3867     1.0  0.61369  0.88491  0.36218  1.0000
  H   H3860     1.0  0.84046  0.54691  0.25693  1.0000
  N   N317      1.0  0.84007  0.62202  0.23281  1.0000
  C   C3868     1.0  0.84296  0.62475  0.24552  1.0000
  C   C3869     1.0  0.85175  0.62069  0.21984  1.0000
  C   C3870     1.0  0.85800  0.62558  0.24570  1.0000
  C   C3871     1.0  0.86689  0.62164  0.21954  1.0000
  C   C3872     1.0  0.87004  0.62396  0.23261  1.0000
  C   C3873     1.0  0.82417  0.62132  0.23291  1.0000
  H   H3861     1.0  0.83361  0.62623  0.25560  1.0000
  H   H3862     1.0  0.84948  0.61874  0.20966  1.0000
  H   H3863     1.0  0.88975  0.57239  0.18517  1.0000
  H   H3864     1.0  0.87607  0.62044  0.20923  1.0000
  H   H3865     1.0  0.61980  0.70302  0.18333  1.0000
  H   H3866     1.0  0.67702  0.67891  0.21943  1.0000
  H   H3867     1.0  0.82422  0.61511  0.22411  1.0000
  H   H3868     1.0  0.81868  0.61488  0.24441  1.0000
  C   C3874     1.0  0.82711  0.96134  0.33574  1.0000
  H   H3869     1.0  0.53254  0.95962  0.19336  1.0000
  N   N318      1.0  0.53903  0.96511  0.21145  1.0000
  C   C3875     1.0  0.81406  0.48782  0.33262  1.0000
  H   H3870     1.0  0.82032  0.95664  0.34739  1.0000
  H   H3871     1.0  0.51553  0.91435  0.35377  1.0000
  Fe  Fe657     1.0  0.98586  0.64296  0.18316  1.0000
  C   C3876     1.0  0.68926  0.86997  0.26619  1.0000
  H   H3872     1.0  0.88405  0.85181  0.30178  1.0000
  C   C3877     1.0  0.67519  0.86442  0.24574  1.0000
  C   C3878     1.0  0.93013  0.49851  0.21678  1.0000
  C   C3879     1.0  0.67606  0.69647  0.18179  1.0000
  N   N319      1.0  0.67145  0.87889  0.24898  1.0000
  H   H3873     1.0  0.74987  0.71453  0.35697  1.0000
  H   H3874     1.0  0.94976  0.67023  0.22283  1.0000
  C   C3880     1.0  0.69291  0.85511  0.26322  1.0000
  S   S1308     1.0  0.96133  0.63887  0.18769  1.0000
  N   N320      1.0  0.74612  0.85161  0.31404  1.0000
  H   H3875     1.0  0.60896  0.89547  0.35455  1.0000
  C   C3881     1.0  0.50363  0.94646  0.32398  1.0000
  S   S1309     1.0  0.83139  0.54838  0.34427  1.0000
  C   C3882     1.0  0.83075  0.68937  0.35723  1.0000
  H   H3876     1.0  0.81689  0.63331  0.23054  1.0000
  H   H3877     1.0  0.80749  0.71109  0.20245  1.0000
  H   H3878     1.0  0.95977  0.66123  0.20648  1.0000
  H   H3879     1.0  0.79708  0.52621  0.32241  1.0000
  H   H3880     1.0  0.84457  0.68010  0.37466  1.0000
  S   S1310     1.0  0.50248  0.88013  0.30478  1.0000
  N   N321      1.0  0.57106  0.82465  0.19182  1.0000
  H   H3881     1.0  0.55350  0.82568  0.18033  1.0000
  C   C3883     1.0  0.79965  0.71778  0.21075  1.0000
  H   H3882     1.0  0.81008  0.74177  0.23665  1.0000
  C   C3884     1.0  0.82191  0.67641  0.17565  1.0000
  C   C3885     1.0  0.92292  0.87073  0.32287  1.0000
  C   C3886     1.0  0.51271  0.92691  0.37127  1.0000
  C   C3887     1.0  0.98809  0.53993  0.24899  1.0000
  H   H3883     1.0  0.83694  0.50818  0.30422  1.0000
  H   H3884     1.0  0.79490  0.63821  0.30275  1.0000
  H   H3885     1.0  0.52002  0.95676  0.30463  1.0000
  H   H3886     1.0  0.77898  0.71891  0.20308  1.0000
  H   H3887     1.0  0.66336  0.98029  0.37492  1.0000
  H   H3888     1.0  0.97943  0.58935  0.35155  1.0000
  S   S1311     1.0  0.50992  0.95833  0.27733  1.0000
  H   H3889     1.0  0.66661  0.89800  0.23041  1.0000
  H   H3890     1.0  0.62220  0.82270  0.31192  1.0000
  C   C3888     1.0  0.56640  0.83404  0.20227  1.0000
  C   C3889     1.0  0.73411  0.73926  0.32787  1.0000
  H   H3891     1.0  0.70114  0.84582  0.26900  1.0000
  H   H3892     1.0  0.63126  0.92785  0.36515  1.0000
  C   C3890     1.0  0.68586  0.85228  0.25291  1.0000
  C   C3891     1.0  0.78260  0.69791  0.36982  1.0000
  H   H3893     1.0  0.77179  0.74062  0.24091  1.0000
  H   H3894     1.0  0.59616  0.91665  0.20716  1.0000
  C   C3892     1.0  0.53459  0.90570  0.36583  1.0000
  N   N322      1.0  0.81665  0.97376  0.32710  1.0000
  S   S1312     1.0  0.68590  0.65379  0.17669  1.0000
  C   C3893     1.0  0.62928  0.83615  0.32347  1.0000
  H   H3895     1.0  0.53486  0.90554  0.23648  1.0000
  H   H3896     1.0  0.83281  0.57196  0.36372  1.0000
  C   C3894     1.0  0.75139  0.71661  0.31918  1.0000
  C   C3895     1.0  0.82786  0.58145  0.36969  1.0000
  N   N323      1.0  0.91747  0.55566  0.29293  1.0000
  C   C3896     1.0  0.93246  0.55047  0.28528  1.0000
  C   C3897     1.0  0.90537  0.55036  0.29161  1.0000
  C   C3898     1.0  0.93565  0.53960  0.27612  1.0000
  C   C3899     1.0  0.90816  0.53949  0.28253  1.0000
  C   C3900     1.0  0.92341  0.53413  0.27471  1.0000
  C   C3901     1.0  0.91424  0.56763  0.30185  1.0000
  H   H3897     1.0  0.94205  0.55481  0.28614  1.0000
  H   H3898     1.0  0.89345  0.55456  0.29757  1.0000
  C   C3902     1.0  0.83360  0.65855  0.20168  1.0000
  H   H3899     1.0  0.89858  0.53536  0.28140  1.0000
  H   H3900     1.0  0.75716  0.71028  0.31000  1.0000
  H   H3901     1.0  0.91195  0.57938  0.29416  1.0000
  H   H3902     1.0  0.90391  0.56657  0.31166  1.0000
  H   H3903     1.0  0.92439  0.56669  0.30679  1.0000
  C   C3903     1.0  0.56357  0.92086  0.19393  1.0000
  C   C3904     1.0  0.84188  0.70499  0.36665  1.0000
  H   H3904     1.0  0.69473  0.87221  0.27418  1.0000
  H   H3905     1.0  0.52461  0.90132  0.30297  1.0000
  H   H3906     1.0  0.85298  0.51535  0.31779  1.0000
  C   C3905     1.0  0.49987  0.96903  0.18171  1.0000
  Fe  Fe658     1.0  0.76307  0.95793  0.34465  1.0000
  C   C3906     1.0  0.78202  0.60820  0.33983  1.0000
  C   C3907     1.0  0.73523  0.67797  0.18805  1.0000
  H   H3907     1.0  0.97842  0.60337  0.18886  1.0000
  H   H3908     1.0  0.84868  0.70568  0.37433  1.0000
  H   H3909     1.0  0.65217  0.90719  0.35410  1.0000
  C   C3908     1.0  0.62060  0.86400  0.31578  1.0000
  H   H3910     1.0  0.83984  0.73347  0.36835  1.0000
  C   C3909     1.0  0.62160  0.83433  0.31306  1.0000
  H   H3911     1.0  0.71494  0.94307  0.37385  1.0000
  N   N324      1.0  0.85296  0.53461  0.27464  1.0000
  C   C3910     1.0  0.84415  0.52376  0.28239  1.0000
  N   N325      1.0  0.83544  0.71813  0.35707  1.0000
  N   N326      1.0  0.80728  0.88249  0.37153  1.0000
  C   C3911     1.0  0.74110  0.73099  0.31610  1.0000
  C   C3912     1.0  0.75443  0.71058  0.33402  1.0000
  C   C3913     1.0  0.85271  0.54191  0.25833  1.0000
  H   H3912     1.0  0.83707  0.52061  0.27651  1.0000
  H   H3913     1.0  0.81407  0.87600  0.34982  1.0000
  C   C3914     1.0  0.60589  0.84494  0.29324  1.0000
  H   H3914     1.0  0.85020  0.58316  0.37203  1.0000
  H   H3915     1.0  0.82851  0.67822  0.35764  1.0000
  C   C3915     1.0  0.64164  0.60400  0.18625  1.0000
  H   H3916     1.0  0.85839  0.53312  0.25107  1.0000
  H   H3917     1.0  0.56558  0.90249  0.37241  1.0000
  N   N327      1.0  0.96233  0.64693  0.22870  1.0000
  C   C3916     1.0  0.97194  0.64319  0.23890  1.0000
  C   C3917     1.0  0.95396  0.63664  0.22870  1.0000
  C   C3918     1.0  0.97356  0.62868  0.24927  1.0000
  C   C3919     1.0  0.95516  0.62210  0.23904  1.0000
  C   C3920     1.0  0.96499  0.61817  0.24940  1.0000
  C   C3921     1.0  0.96051  0.66224  0.21801  1.0000
  H   H3918     1.0  0.79257  0.73999  0.25141  1.0000
  H   H3919     1.0  0.97863  0.65131  0.23890  1.0000
  H   H3920     1.0  0.65351  0.89965  0.24903  1.0000
  C   C3922     1.0  0.69687  0.70178  0.18885  1.0000
  H   H3921     1.0  0.74405  0.64120  0.17632  1.0000
  C   C3923     1.0  0.80597  0.96990  0.32174  1.0000
  H   H3922     1.0  0.90302  0.79103  0.37387  1.0000
  H   H3923     1.0  0.99142  0.48606  0.33611  1.0000
  H   H3924     1.0  0.74104  0.68600  0.17869  1.0000
  C   C3924     1.0  0.65952  0.88498  0.36866  1.0000
  S   S1313     1.0  0.85315  0.48346  0.24986  1.0000
  H   H3925     1.0  0.55955  0.94739  0.21299  1.0000
  C   C3925     1.0  0.98090  0.59497  0.33898  1.0000
  C   C3926     1.0  0.99115  0.49818  0.32923  1.0000
  H   H3926     1.0  0.50542  0.92898  0.27232  1.0000
  H   H3927     1.0  0.77662  0.69253  0.36482  1.0000
  C   C3927     1.0  0.54666  0.94901  0.21737  1.0000
  H   H3928     1.0  0.98583  0.50354  0.27159  1.0000
  H   H3929     1.0  0.78178  0.49354  0.35529  1.0000
  H   H3930     1.0  0.50168  0.93449  0.36901  1.0000
  H   H3931     1.0  0.65471  0.60041  0.21415  1.0000
  H   H3932     1.0  0.69100  0.58033  0.17841  1.0000
  C   C3928     1.0  0.97586  0.59837  0.20155  1.0000
  H   H3933     1.0  0.67262  0.60175  0.19949  1.0000
  H   H3934     1.0  0.81618  0.48765  0.29195  1.0000
  H   H3935     1.0  0.83241  0.95163  0.32955  1.0000
  C   C3929     1.0  0.59711  0.82906  0.18555  1.0000
  H   H3936     1.0  0.49526  0.98109  0.17674  1.0000
  C   C3930     1.0  0.49863  0.86590  0.43674  1.0000
  C   C3931     1.0  0.60974  0.96569  0.50992  1.0000
  C   C3932     1.0  0.94722  0.84444  0.40362  1.0000
  C   C3933     1.0  0.95483  0.84082  0.41579  1.0000
  C   C3934     1.0  0.78245  0.89009  0.38837  1.0000
  S   S1314     1.0  0.94565  0.75242  0.47182  1.0000
  H   H3937     1.0  0.62151  0.89691  0.39821  1.0000
  C   C3935     1.0  0.77155  0.92211  0.55884  1.0000
  H   H3938     1.0  0.61682  0.92221  0.38219  1.0000
  C   C3936     1.0  0.72115  0.93005  0.41062  1.0000
  C   C3937     1.0  0.80210  0.90522  0.38186  1.0000
  H   H3939     1.0  0.59759  0.96681  0.51606  1.0000
  Fe  Fe659     1.0  0.83266  0.62730  0.40053  1.0000
  S   S1315     1.0  0.80825  0.63121  0.41497  1.0000
  C   C3938     1.0  0.78910  0.68930  0.38258  1.0000
  Fe  Fe660     1.0  0.83901  0.65636  0.40552  1.0000
  S   S1316     1.0  0.81503  0.66275  0.42022  1.0000
  S   S1317     1.0  0.85724  0.67003  0.40180  1.0000
  Fe  Fe661     1.0  0.81870  0.63730  0.43132  1.0000
  S   S1318     1.0  0.81537  0.62685  0.45696  1.0000
  Fe  Fe662     1.0  0.80705  0.65620  0.40234  1.0000
  S   S1319     1.0  0.78752  0.66988  0.39032  1.0000
  S   S1320     1.0  0.84333  0.63135  0.41787  1.0000
  C   C3939     1.0  0.82365  0.77945  0.38506  1.0000
  Fe  Fe663     1.0  0.80797  0.67098  0.51997  1.0000
  S   S1321     1.0  0.82479  0.64939  0.52899  1.0000
  S   S1322     1.0  0.79963  0.67705  0.49768  1.0000
  Fe  Fe664     1.0  0.83647  0.66611  0.53299  1.0000
  S   S1323     1.0  0.86206  0.66649  0.52503  1.0000
  S   S1324     1.0  0.79141  0.67216  0.54305  1.0000
  S   S1325     1.0  0.82087  0.68749  0.52217  1.0000
  Fe  Fe665     1.0  0.83873  0.74294  0.43392  1.0000
  S   S1326     1.0  0.82577  0.75154  0.45557  1.0000
  S   S1327     1.0  0.82510  0.73297  0.42366  1.0000
  N   N328      1.0  0.63415  0.97369  0.50360  1.0000
  H   H3940     1.0  0.55358  0.89984  0.47972  1.0000
  S   S1328     1.0  0.93092  0.78777  0.44159  1.0000
  Fe  Fe666     1.0  0.84870  0.74252  0.46290  1.0000
  S   S1329     1.0  0.85170  0.72834  0.48654  1.0000
  S   S1330     1.0  0.86087  0.73173  0.44247  1.0000
  Fe  Fe667     1.0  0.69469  0.96697  0.52536  1.0000
  H   H3941     1.0  0.72216  0.93744  0.49225  1.0000
  H   H3942     1.0  0.68284  0.93803  0.49759  1.0000
  Fe  Fe668     1.0  0.91089  0.72831  0.52683  1.0000
  S   S1331     1.0  0.92041  0.70491  0.54067  1.0000
  S   S1332     1.0  0.91298  0.73447  0.50116  1.0000
  H   H3943     1.0  0.95815  0.79006  0.51550  1.0000
  H   H3944     1.0  0.94481  0.73236  0.50648  1.0000
  Fe  Fe669     1.0  0.92877  0.71867  0.55219  1.0000
  S   S1333     1.0  0.95272  0.71233  0.55703  1.0000
  S   S1334     1.0  0.88759  0.73203  0.54331  1.0000
  S   S1335     1.0  0.92139  0.74167  0.53664  1.0000
  Fe  Fe670     1.0  0.67362  0.96444  0.42579  1.0000
  C   C3940     1.0  0.61668  0.95435  0.50116  1.0000
  Fe  Fe671     1.0  0.59466  0.86908  0.53649  1.0000
  S   S1336     1.0  0.58680  0.89508  0.53033  1.0000
  S   S1337     1.0  0.58770  0.85217  0.52743  1.0000
  Fe  Fe672     1.0  0.61118  0.89468  0.53133  1.0000
  S   S1338     1.0  0.62657  0.90943  0.51388  1.0000
  S   S1339     1.0  0.61967  0.86877  0.53539  1.0000
  S   S1340     1.0  0.58749  0.86729  0.56231  1.0000
  Fe  Fe673     1.0  0.54949  0.89130  0.42883  1.0000
  S   S1341     1.0  0.56994  0.87274  0.42128  1.0000
  S   S1342     1.0  0.52529  0.89476  0.42469  1.0000
  Fe  Fe674     1.0  0.56985  0.90636  0.43926  1.0000
  S   S1343     1.0  0.59197  0.88953  0.43163  1.0000
  S   S1344     1.0  0.57169  0.92337  0.45173  1.0000
  Fe  Fe675     1.0  0.58239  0.89234  0.41079  1.0000
  H   H3945     1.0  0.71128  0.96173  0.55260  1.0000
  Fe  Fe676     1.0  0.57714  0.87196  0.44308  1.0000
  S   S1345     1.0  0.58594  0.85026  0.45961  1.0000
  S   S1346     1.0  0.56164  0.91107  0.41729  1.0000
  S   S1347     1.0  0.55540  0.88859  0.45175  1.0000
  Fe  Fe677     1.0  0.69410  0.94227  0.55475  1.0000
  H   H3946     1.0  0.80168  0.68969  0.39898  1.0000
  C   C3941     1.0  0.95640  0.81757  0.53458  1.0000
  H   H3947     1.0  0.82996  0.79654  0.41220  1.0000
  H   H3948     1.0  0.80416  0.71705  0.38779  1.0000
  H   H3949     1.0  0.92525  0.75133  0.41456  1.0000
  Fe  Fe678     1.0  0.66616  0.95300  0.54006  1.0000
  S   S1348     1.0  0.64023  0.95577  0.54512  1.0000
  C   C3942     1.0  0.67461  0.89169  0.53355  1.0000
  S   S1349     1.0  0.68027  0.92931  0.54829  1.0000
  Fe  Fe679     1.0  0.64166  0.95882  0.42840  1.0000
  S   S1350     1.0  0.66568  0.94346  0.42579  1.0000
  S   S1351     1.0  0.62791  0.95559  0.41319  1.0000
  S   S1352     1.0  0.98362  0.73956  0.46900  1.0000
  Fe  Fe680     1.0  0.66077  0.93926  0.45162  1.0000
  S   S1353     1.0  0.66677  0.91467  0.46495  1.0000
  S   S1354     1.0  0.63620  0.95348  0.45445  1.0000
  C   C3943     1.0  0.82364  0.81135  0.42847  1.0000
  H   H3950     1.0  0.72035  0.91822  0.41661  1.0000
  C   C3944     1.0  0.67553  0.92757  0.48358  1.0000
  C   C3945     1.0  0.67723  0.91411  0.47848  1.0000
  C   C3946     1.0  0.68755  0.90044  0.48393  1.0000
  C   C3947     1.0  0.69639  0.90044  0.49423  1.0000
  H   H3951     1.0  0.54923  0.87296  0.48646  1.0000
  S   S1355     1.0  0.96852  0.77730  0.45809  1.0000
  H   H3952     1.0  0.68892  0.88998  0.47997  1.0000
  H   H3953     1.0  0.70449  0.88992  0.49832  1.0000
  H   H3954     1.0  0.52271  0.83342  0.42551  1.0000
  H   H3955     1.0  0.55145  0.86900  0.53349  1.0000
  C   C3948     1.0  0.58691  0.93281  0.44084  1.0000
  C   C3949     1.0  0.59210  0.94199  0.44740  1.0000
  C   C3950     1.0  0.60457  0.94919  0.43889  1.0000
  C   C3951     1.0  0.61186  0.94724  0.42379  1.0000
  C   C3952     1.0  0.60650  0.93827  0.41715  1.0000
  C   C3953     1.0  0.59411  0.93099  0.42569  1.0000
  H   H3956     1.0  0.58645  0.94357  0.45905  1.0000
  H   H3957     1.0  0.60832  0.95648  0.44391  1.0000
  H   H3958     1.0  0.61198  0.93689  0.40542  1.0000
  H   H3959     1.0  0.58998  0.92416  0.42044  1.0000
  C   C3954     1.0  0.63040  0.92151  0.52344  1.0000
  C   C3955     1.0  0.61845  0.92881  0.53410  1.0000
  C   C3956     1.0  0.62149  0.93924  0.54096  1.0000
  C   C3957     1.0  0.63653  0.94211  0.53734  1.0000
  C   C3958     1.0  0.64855  0.93439  0.52706  1.0000
  C   C3959     1.0  0.64542  0.92429  0.51994  1.0000
  H   H3960     1.0  0.60673  0.92688  0.53665  1.0000
  H   H3961     1.0  0.61217  0.94516  0.54894  1.0000
  H   H3962     1.0  0.66020  0.93640  0.52428  1.0000
  H   H3963     1.0  0.65458  0.91871  0.51163  1.0000
  C   C3960     1.0  0.58839  0.85252  0.50800  1.0000
  C   C3961     1.0  0.58818  0.86611  0.49620  1.0000
  C   C3962     1.0  0.58713  0.86576  0.48123  1.0000
  C   C3963     1.0  0.58687  0.85172  0.47803  1.0000
  C   C3964     1.0  0.58751  0.83821  0.48977  1.0000
  C   C3965     1.0  0.58802  0.83867  0.50468  1.0000
  H   H3964     1.0  0.58831  0.87690  0.49873  1.0000
  H   H3965     1.0  0.58661  0.87627  0.47219  1.0000
  H   H3966     1.0  0.58735  0.82734  0.48739  1.0000
  H   H3967     1.0  0.58811  0.82815  0.51373  1.0000
  C   C3966     1.0  0.69682  0.93020  0.38012  1.0000
  C   C3967     1.0  0.89460  0.77845  0.56263  1.0000
  S   S1356     1.0  0.90706  0.72137  0.57104  1.0000
  C   C3968     1.0  0.95054  0.72040  0.50463  1.0000
  C   C3969     1.0  0.96753  0.72370  0.57208  1.0000
  N   N329      1.0  0.88880  0.79853  0.39433  1.0000
  H   H3968     1.0  0.81020  0.61544  0.39119  1.0000
  C   C3970     1.0  0.63249  0.95257  0.49390  1.0000
  Fe  Fe681     1.0  0.83480  0.77308  0.44301  1.0000
  H   H3969     1.0  0.99164  0.75777  0.48949  1.0000
  S   S1357     1.0  0.68068  0.95692  0.51581  1.0000
  C   C3971     1.0  0.92016  0.77858  0.43524  1.0000
  C   C3972     1.0  0.90378  0.78273  0.43869  1.0000
  C   C3973     1.0  0.89513  0.77515  0.43392  1.0000
  H   H3970     1.0  0.89778  0.79163  0.44526  1.0000
  H   H3971     1.0  0.88252  0.77834  0.43672  1.0000
  C   C3974     1.0  0.86899  0.72979  0.49038  1.0000
  C   C3975     1.0  0.87294  0.72193  0.50461  1.0000
  C   C3976     1.0  0.88646  0.72338  0.50796  1.0000
  C   C3977     1.0  0.89620  0.73252  0.49699  1.0000
  C   C3978     1.0  0.89259  0.73998  0.48256  1.0000
  C   C3979     1.0  0.87905  0.73853  0.47925  1.0000
  H   H3972     1.0  0.86580  0.71442  0.51291  1.0000
  H   H3973     1.0  0.88955  0.71712  0.51887  1.0000
  H   H3974     1.0  0.90030  0.74680  0.47390  1.0000
  H   H3975     1.0  0.87672  0.74379  0.46791  1.0000
  C   C3980     1.0  0.86839  0.67304  0.53796  1.0000
  C   C3981     1.0  0.88011  0.68162  0.53232  1.0000
  C   C3982     1.0  0.88471  0.68752  0.54248  1.0000
  C   C3983     1.0  0.51911  0.92840  0.38277  1.0000
  S   S1358     1.0  0.79953  0.95579  0.57352  1.0000
  H   H3976     1.0  0.61000  0.94651  0.50051  1.0000
  H   H3977     1.0  0.88547  0.68388  0.52010  1.0000
  H   H3978     1.0  0.89374  0.69413  0.53810  1.0000
  C   C3984     1.0  0.64223  0.87825  0.57324  1.0000
  H   H3979     1.0  0.89207  0.77739  0.38708  1.0000
  H   H3980     1.0  0.79278  0.60370  0.38368  1.0000
  C   C3985     1.0  0.78721  0.90278  0.38969  1.0000
  C   C3986     1.0  0.84877  0.68799  0.40703  1.0000
  C   C3987     1.0  0.83323  0.69509  0.40629  1.0000
  C   C3988     1.0  0.82619  0.70908  0.41116  1.0000
  C   C3989     1.0  0.83467  0.71601  0.41682  1.0000
  C   C3990     1.0  0.85036  0.70916  0.41719  1.0000
  C   C3991     1.0  0.85745  0.69517  0.41221  1.0000
  H   H3981     1.0  0.82663  0.68980  0.40193  1.0000
  H   H3982     1.0  0.81403  0.71434  0.41089  1.0000
  H   H3983     1.0  0.85702  0.71456  0.42140  1.0000
  H   H3984     1.0  0.86954  0.68974  0.41268  1.0000
  C   C3992     1.0  0.81057  0.64064  0.46854  1.0000
  C   C3993     1.0  0.81472  0.63633  0.48298  1.0000
  C   C3994     1.0  0.81130  0.64735  0.49215  1.0000
  C   C3995     1.0  0.80349  0.66265  0.48699  1.0000
  C   C3996     1.0  0.79906  0.66685  0.47271  1.0000
  C   C3997     1.0  0.80266  0.65591  0.46347  1.0000
  H   H3985     1.0  0.82074  0.62450  0.48701  1.0000
  H   H3986     1.0  0.81465  0.64398  0.50319  1.0000
  H   H3987     1.0  0.79287  0.67862  0.46874  1.0000
  H   H3988     1.0  0.79901  0.65924  0.45258  1.0000
  C   C3998     1.0  0.94185  0.73880  0.56860  1.0000
  C   C3999     1.0  0.89252  0.81282  0.39020  1.0000
  C   C4000     1.0  0.70430  0.96674  0.45916  1.0000
  S   S1359     1.0  0.84377  0.60664  0.38944  1.0000
  Fe  Fe682     1.0  0.99116  0.84371  0.38240  1.0000
  H   H3989     1.0  0.83242  0.78447  0.38661  1.0000
  C   C4001     1.0  0.86687  0.80724  0.41389  1.0000
  S   S1360     1.0  0.79508  0.70825  0.55584  1.0000
  H   H3990     1.0  0.97647  0.82341  0.53759  1.0000
  H   H3991     1.0  0.65340  0.96095  0.48959  1.0000
  Fe  Fe683     1.0  0.86740  0.75485  0.43152  1.0000
  H   H3992     1.0  0.71377  0.96551  0.49236  1.0000
  H   H3993     1.0  0.98648  0.78818  0.51210  1.0000
  H   H3994     1.0  0.83632  0.59090  0.56501  1.0000
  C   C4002     1.0  0.98600  0.66936  0.46297  1.0000
  C   C4003     1.0  0.67048  0.94520  0.38678  1.0000
  C   C4004     1.0  0.51865  0.87191  0.38931  1.0000
  C   C4005     1.0  0.50814  0.88546  0.39290  1.0000
  C   C4006     1.0  0.51038  0.89247  0.40366  1.0000
  C   C4007     1.0  0.52336  0.88624  0.41055  1.0000
  C   C4008     1.0  0.53417  0.87302  0.40652  1.0000
  C   C4009     1.0  0.53175  0.86582  0.39601  1.0000
  H   H3995     1.0  0.88572  0.83638  0.39369  1.0000
  C   C4010     1.0  0.83137  0.59999  0.38229  1.0000
  H   H3996     1.0  0.54408  0.86797  0.41192  1.0000
  H   H3997     1.0  0.53988  0.85530  0.39333  1.0000
  H   H3998     1.0  0.94051  0.76406  0.42377  1.0000
  S   S1361     1.0  0.81973  0.79669  0.44496  1.0000
  C   C4011     1.0  0.68419  0.92753  0.49395  1.0000
  C   C4012     1.0  0.70902  0.95092  0.45879  1.0000
  Fe  Fe684     1.0  0.96460  0.75799  0.47898  1.0000
  C   C4013     1.0  0.73474  0.94812  0.39043  1.0000
  S   S1362     1.0  0.89238  0.75442  0.41864  1.0000
  C   C4014     1.0  0.90284  0.76377  0.42525  1.0000
  N   N330      1.0  0.55491  0.89935  0.50264  1.0000
  H   H3999     1.0  0.96130  0.75776  0.53465  1.0000
  H   H4000     1.0  0.56464  0.91775  0.48633  1.0000
  H   H4001     1.0  0.72358  0.90470  0.57184  1.0000
  C   C4015     1.0  0.55763  0.91518  0.49843  1.0000
  H   H4002     1.0  0.96151  0.68034  0.46646  1.0000
  H   H4003     1.0  0.60858  0.86657  0.40029  1.0000
  C   C4016     1.0  0.91922  0.76001  0.42139  1.0000
  C   C4017     1.0  0.96208  0.79750  0.52031  1.0000
  C   C4018     1.0  0.98565  0.75621  0.53334  1.0000
  S   S1363     1.0  0.59393  0.89779  0.38560  1.0000
  C   C4019     1.0  0.55386  0.89104  0.51765  1.0000
  H   H4004     1.0  0.66726  0.93795  0.47979  1.0000
  S   S1364     1.0  0.85646  0.76507  0.45249  1.0000
  S   S1365     1.0  0.71124  0.94424  0.53182  1.0000
  H   H4005     1.0  0.95814  0.80171  0.42536  1.0000
  H   H4006     1.0  0.54626  0.92377  0.49926  1.0000
  H   H4007     1.0  0.81762  0.82903  0.44168  1.0000
  Fe  Fe685     1.0  0.80916  0.65176  0.55238  1.0000
  H   H4008     1.0  0.98390  0.75566  0.54558  1.0000
  H   H4009     1.0  0.90259  0.81504  0.38101  1.0000
  C   C4020     1.0  0.82442  0.76348  0.39073  1.0000
  C   C4021     1.0  0.95859  0.82538  0.42376  1.0000
  Fe  Fe686     1.0  0.89789  0.70973  0.55811  1.0000
  H   H4010     1.0  0.63126  0.84728  0.38932  1.0000
  H   H4011     1.0  0.55260  0.88045  0.56870  1.0000
  H   H4012     1.0  0.98394  0.65778  0.46524  1.0000
  C   C4022     1.0  0.66537  0.97308  0.38638  1.0000
  C   C4023     1.0  0.81321  0.75686  0.38884  1.0000
  C   C4024     1.0  0.89869  0.78618  0.38640  1.0000
  H   H4013     1.0  0.98743  0.54802  0.37750  1.0000
  C   C4025     1.0  0.97495  0.75815  0.51129  1.0000
  C   C4026     1.0  0.97286  0.75733  0.52715  1.0000
  H   H4014     1.0  0.63812  0.94330  0.48767  1.0000
  H   H4015     1.0  0.96131  0.72865  0.52454  1.0000
  N   N331      1.0  0.67454  0.86153  0.55087  1.0000
  C   C4027     1.0  0.68540  0.86904  0.55133  1.0000
  C   C4028     1.0  0.66400  0.86861  0.54157  1.0000
  C   C4029     1.0  0.68554  0.88425  0.54274  1.0000
  C   C4030     1.0  0.66382  0.88383  0.53284  1.0000
  C   C4031     1.0  0.79265  0.88007  0.37907  1.0000
  C   C4032     1.0  0.67450  0.84561  0.56002  1.0000
  H   H4016     1.0  0.69365  0.86351  0.55881  1.0000
  H   H4017     1.0  0.65535  0.86269  0.54125  1.0000
  C   C4033     1.0  0.87017  0.82204  0.40931  1.0000
  H   H4018     1.0  0.50197  0.90270  0.40672  1.0000
  C   C4034     1.0  0.71902  0.95816  0.56053  1.0000
  H   H4019     1.0  0.83779  0.81705  0.38941  1.0000
  C   C4035     1.0  0.97809  0.79645  0.51847  1.0000
  C   C4036     1.0  0.64233  0.87925  0.39372  1.0000
  N   N332      1.0  0.82185  0.72810  0.52767  1.0000
  C   C4037     1.0  0.81573  0.73801  0.53763  1.0000
  C   C4038     1.0  0.83520  0.71691  0.52926  1.0000
  C   C4039     1.0  0.82328  0.73719  0.54925  1.0000
  C   C4040     1.0  0.84299  0.71568  0.54081  1.0000
  C   C4041     1.0  0.83703  0.72595  0.55079  1.0000
  C   C4042     1.0  0.81349  0.72898  0.51585  1.0000
  H   H4020     1.0  0.80472  0.74634  0.53686  1.0000
  H   H4021     1.0  0.83994  0.70885  0.52155  1.0000
  C   C4043     1.0  0.97250  0.81613  0.53264  1.0000
  H   H4022     1.0  0.85342  0.70664  0.54217  1.0000
  C   C4044     1.0  0.91850  0.78788  0.55644  1.0000
  H   H4023     1.0  0.82122  0.72305  0.50652  1.0000
  H   H4024     1.0  0.80334  0.72333  0.52132  1.0000
  H   H4025     1.0  0.80928  0.74128  0.51017  1.0000
  C   C4045     1.0  0.64113  0.96236  0.49529  1.0000
  N   N333      1.0  0.98310  0.80551  0.52484  1.0000
  C   C4046     1.0  0.95414  0.72589  0.56646  1.0000
  H   H4026     1.0  0.67622  0.92066  0.38675  1.0000
  N   N334      1.0  0.67618  0.95820  0.38444  1.0000
  C   C4047     1.0  0.71548  0.94031  0.47075  1.0000
  H   H4027     1.0  0.93146  0.74056  0.56435  1.0000
  H   H4028     1.0  0.94792  0.82589  0.54082  1.0000
  H   H4029     1.0  0.86260  0.83132  0.41488  1.0000
  H   H4030     1.0  0.65797  0.94573  0.39047  1.0000
  H   H4031     1.0  0.80582  0.91524  0.38250  1.0000
  H   H4032     1.0  0.71885  0.92795  0.47083  1.0000
  H   H4033     1.0  0.78130  0.92792  0.55425  1.0000
  C   C4048     1.0  0.80532  0.59931  0.38097  1.0000
  Fe  Fe687     1.0  0.98585  0.75837  0.44726  1.0000
  C   C4049     1.0  0.91067  0.77678  0.55619  1.0000
  S   S1366     1.0  0.84643  0.76511  0.42079  1.0000
  C   C4050     1.0  0.55024  0.87808  0.49535  1.0000
  H   H4034     1.0  0.95010  0.72039  0.49270  1.0000
  S   S1367     1.0  0.74738  0.91731  0.39123  1.0000
  H   H4035     1.0  0.98823  0.72122  0.52861  1.0000
  H   H4036     1.0  0.81816  0.74477  0.55740  1.0000
  Fe  Fe688     1.0  0.80600  0.68665  0.54612  1.0000
  S   S1368     1.0  0.69442  0.97335  0.41045  1.0000
  S   S1369     1.0  0.98525  0.78109  0.55825  1.0000
  H   H4037     1.0  0.78874  0.87044  0.37781  1.0000
  N   N335      1.0  0.94780  0.81732  0.40703  1.0000
  C   C4051     1.0  0.72290  0.96060  0.39470  1.0000
  H   H4038     1.0  0.72341  0.97235  0.38823  1.0000
  H   H4039     1.0  0.94372  0.71206  0.51289  1.0000
  H   H4040     1.0  0.83336  0.62803  0.56835  1.0000
  C   C4052     1.0  0.92787  0.76718  0.42664  1.0000
  S   S1370     1.0  0.60537  0.89554  0.55638  1.0000
  C   C4053     1.0  0.82196  0.82643  0.43026  1.0000
  N   N336      1.0  0.62805  0.89997  0.46543  1.0000
  C   C4054     1.0  0.63274  0.89707  0.47904  1.0000
  C   C4055     1.0  0.62291  0.88891  0.46197  1.0000
  C   C4056     1.0  0.63204  0.88292  0.48978  1.0000
  C   C4057     1.0  0.62237  0.87450  0.47233  1.0000
  C   C4058     1.0  0.62675  0.87160  0.48643  1.0000
  C   C4059     1.0  0.62884  0.91496  0.45449  1.0000
  H   H4041     1.0  0.63700  0.90577  0.48170  1.0000
  H   H4042     1.0  0.61913  0.89118  0.45122  1.0000
  H   H4043     1.0  0.63556  0.88085  0.50065  1.0000
  H   H4044     1.0  0.61843  0.86568  0.46952  1.0000
  H   H4045     1.0  0.62596  0.86063  0.49474  1.0000
  H   H4046     1.0  0.62239  0.92465  0.46044  1.0000
  H   H4047     1.0  0.64125  0.91597  0.44988  1.0000
  H   H4048     1.0  0.62349  0.91644  0.44454  1.0000
  N   N337      1.0  0.82701  0.68776  0.45996  1.0000
  C   C4060     1.0  0.82961  0.68030  0.44821  1.0000
  C   C4061     1.0  0.83372  0.68068  0.47246  1.0000
  C   C4062     1.0  0.83904  0.66529  0.44883  1.0000
  C   C4063     1.0  0.84303  0.66558  0.47359  1.0000
  C   C4064     1.0  0.84565  0.65785  0.46169  1.0000
  C   C4065     1.0  0.81693  0.70340  0.45937  1.0000
  H   H4049     1.0  0.82408  0.68574  0.43846  1.0000
  H   H4050     1.0  0.83135  0.68647  0.48194  1.0000
  H   H4051     1.0  0.84093  0.65938  0.43953  1.0000
  H   H4052     1.0  0.84781  0.65980  0.48382  1.0000
  H   H4053     1.0  0.85256  0.64602  0.46253  1.0000
  H   H4054     1.0  0.80754  0.70351  0.47011  1.0000
  H   H4055     1.0  0.82398  0.71196  0.45821  1.0000
  H   H4056     1.0  0.81116  0.70729  0.44935  1.0000
  H   H4057     1.0  0.87332  0.78428  0.40948  1.0000
  H   H4058     1.0  0.95111  0.79340  0.40650  1.0000
  H   H4059     1.0  0.93871  0.80898  0.53017  1.0000
  S   S1371     1.0  0.95954  0.71259  0.46250  1.0000
  C   C4066     1.0  0.97586  0.69710  0.46081  1.0000
  H   H4060     1.0  0.50327  0.83891  0.40947  1.0000
  C   C4067     1.0  0.61341  0.86858  0.38792  1.0000
  H   H4061     1.0  0.56431  0.91672  0.50613  1.0000
  H   H4062     1.0  0.94575  0.80719  0.38966  1.0000
  H   H4063     1.0  0.67823  0.84380  0.57104  1.0000
  C   C4068     1.0  0.97777  0.70617  0.49842  1.0000
  S   S1372     1.0  0.96861  0.75290  0.43741  1.0000
  C   C4069     1.0  0.82910  0.80804  0.41368  1.0000
  N   N338      1.0  0.96664  0.71601  0.50676  1.0000
  H   H4064     1.0  0.91711  0.76695  0.55109  1.0000
  N   N339      1.0  0.81218  0.78854  0.37745  1.0000
  S   S1373     1.0  0.95860  0.76099  0.50354  1.0000
  C   C4070     1.0  0.55285  0.89318  0.49159  1.0000
  C   C4071     1.0  0.86160  0.67003  0.55383  1.0000
  H   H4065     1.0  0.93095  0.78645  0.55161  1.0000
  C   C4072     1.0  0.79818  0.71173  0.38273  1.0000
  H   H4066     1.0  0.87356  0.76776  0.52963  1.0000
  S   S1374     1.0  0.67138  0.95861  0.45137  1.0000
  H   H4067     1.0  0.85697  0.80485  0.42329  1.0000
  H   H4068     1.0  0.67447  0.90357  0.52708  1.0000
  H   H4069     1.0  0.95810  0.84991  0.41886  1.0000
  H   H4070     1.0  0.96459  0.82246  0.43318  1.0000
  Fe  Fe689     1.0  0.58164  0.89333  0.55605  1.0000
  S   S1375     1.0  0.83084  0.65182  0.38672  1.0000
  C   C4073     1.0  0.50170  0.84634  0.41737  1.0000
  Fe  Fe690     1.0  0.95106  0.77017  0.45010  1.0000
  H   H4071     1.0  0.69935  0.94038  0.42426  1.0000
  C   C4074     1.0  0.55146  0.87586  0.52176  1.0000
  H   H4072     1.0  0.52004  0.85117  0.44268  1.0000
  Fe  Fe691     1.0  0.64729  0.97354  0.45159  1.0000
  C   C4075     1.0  0.77241  0.90891  0.57090  1.0000
  S   S1376     1.0  0.65009  0.98037  0.42577  1.0000
  H   H4073     1.0  0.94428  0.85642  0.39730  1.0000
  C   C4076     1.0  0.70925  0.94257  0.41489  1.0000
  Fe  Fe692     1.0  0.61183  0.86963  0.56058  1.0000
  C   C4077     1.0  0.65587  0.87476  0.38286  1.0000
  H   H4074     1.0  0.54846  0.85735  0.51342  1.0000
  C   C4078     1.0  0.54974  0.86933  0.51050  1.0000
  C   C4079     1.0  0.71003  0.95780  0.40671  1.0000
  N   N340      1.0  0.82506  0.58969  0.43099  1.0000
  C   C4080     1.0  0.82693  0.58140  0.42008  1.0000
  C   C4081     1.0  0.81041  0.59531  0.43906  1.0000
  C   C4082     1.0  0.81391  0.57886  0.41672  1.0000
  C   C4083     1.0  0.79712  0.59316  0.43585  1.0000
  C   C4084     1.0  0.79891  0.58494  0.42454  1.0000
  C   C4085     1.0  0.83894  0.59213  0.43425  1.0000
  H   H4075     1.0  0.83853  0.57715  0.41352  1.0000
  H   H4076     1.0  0.80890  0.60184  0.44777  1.0000
  H   H4077     1.0  0.81545  0.57272  0.40768  1.0000
  H   H4078     1.0  0.78552  0.59805  0.44194  1.0000
  H   H4079     1.0  0.78873  0.58344  0.42168  1.0000
  H   H4080     1.0  0.84722  0.59585  0.42320  1.0000
  H   H4081     1.0  0.83586  0.60142  0.44089  1.0000
  H   H4082     1.0  0.77922  0.91086  0.39655  1.0000
  N   N341      1.0  0.91309  0.71382  0.46330  1.0000
  C   C4086     1.0  0.90007  0.71261  0.45946  1.0000
  C   C4087     1.0  0.91717  0.70511  0.47687  1.0000
  C   C4088     1.0  0.89040  0.70288  0.46965  1.0000
  C   C4089     1.0  0.90780  0.69521  0.48730  1.0000
  C   C4090     1.0  0.89428  0.69418  0.48367  1.0000
  C   C4091     1.0  0.92293  0.72434  0.45275  1.0000
  H   H4083     1.0  0.89681  0.71956  0.44871  1.0000
  H   H4084     1.0  0.92750  0.70614  0.47988  1.0000
  H   H4085     1.0  0.87971  0.70246  0.46692  1.0000
  H   H4086     1.0  0.91081  0.68868  0.49827  1.0000
  H   H4087     1.0  0.88666  0.68688  0.49184  1.0000
  H   H4088     1.0  0.91652  0.73331  0.44443  1.0000
  H   H4089     1.0  0.92667  0.73060  0.45938  1.0000
  H   H4090     1.0  0.93356  0.71758  0.44618  1.0000
  H   H4091     1.0  0.49803  0.89030  0.38776  1.0000
  C   C4092     1.0  0.87766  0.68477  0.55829  1.0000
  H   H4092     1.0  0.90881  0.78012  0.39189  1.0000
  C   C4093     1.0  0.98552  0.71695  0.52000  1.0000
  H   H4093     1.0  0.80128  0.81169  0.37981  1.0000
  H   H4094     1.0  0.84492  0.58119  0.44108  1.0000
  S   S1377     1.0  0.56138  0.90846  0.56909  1.0000
  C   C4094     1.0  0.88311  0.82488  0.39741  1.0000
  N   N342      1.0  0.70610  0.97185  0.47106  1.0000
  H   H4095     1.0  0.55514  0.89601  0.52652  1.0000
  C   C4095     1.0  0.71652  0.94650  0.57395  1.0000
  H   H4096     1.0  0.49765  0.87396  0.44384  1.0000
  H   H4097     1.0  0.87583  0.75679  0.51537  1.0000
  C   C4096     1.0  0.95503  0.81369  0.41918  1.0000
  S   S1378     1.0  0.83966  0.84863  0.38720  1.0000
  N   N343      1.0  0.89107  0.77236  0.50880  1.0000
  C   C4097     1.0  0.90061  0.77450  0.51682  1.0000
  C   C4098     1.0  0.89563  0.77369  0.49309  1.0000
  C   C4099     1.0  0.91531  0.77773  0.50912  1.0000
  C   C4100     1.0  0.91015  0.77710  0.48501  1.0000
  C   C4101     1.0  0.92008  0.77903  0.49312  1.0000
  C   C4102     1.0  0.87593  0.76836  0.51695  1.0000
  H   H4098     1.0  0.89705  0.77346  0.52928  1.0000
  H   H4099     1.0  0.88816  0.77177  0.48677  1.0000
  H   H4100     1.0  0.92312  0.77886  0.51557  1.0000
  H   H4101     1.0  0.91384  0.77782  0.47260  1.0000
  H   H4102     1.0  0.93157  0.78126  0.48705  1.0000
  H   H4103     1.0  0.86633  0.77724  0.51224  1.0000
  Fe  Fe693     1.0  0.96488  0.73566  0.46002  1.0000
  C   C4103     1.0  0.79693  0.69621  0.38898  1.0000
  H   H4104     1.0  0.73471  0.92545  0.55508  1.0000
  C   C4104     1.0  0.83347  0.81967  0.40079  1.0000
  C   C4105     1.0  0.80359  0.70995  0.57010  1.0000
  C   C4106     1.0  0.97026  0.72116  0.51764  1.0000
  C   C4107     1.0  0.73373  0.93283  0.39817  1.0000
  C   C4108     1.0  0.69468  0.91402  0.49927  1.0000
  H   H4105     1.0  0.94573  0.82636  0.56737  1.0000
  S   S1379     1.0  0.70556  0.91398  0.51229  1.0000
  H   H4106     1.0  0.75705  0.93846  0.54388  1.0000
  S   S1380     1.0  0.82244  0.66632  0.55724  1.0000
  Fe  Fe694     1.0  0.89894  0.74333  0.55449  1.0000
  S   S1381     1.0  0.75784  0.96955  0.56283  1.0000
  Fe  Fe695     1.0  0.69570  0.93380  0.52458  1.0000
  C   C4109     1.0  0.88647  0.79103  0.56957  1.0000
  C   C4110     1.0  0.94380  0.80504  0.40249  1.0000
  H   H4107     1.0  0.53809  0.91954  0.39462  1.0000
  C   C4111     1.0  0.80157  0.76620  0.38107  1.0000
  H   H4108     1.0  0.82557  0.84954  0.41894  1.0000
  C   C4112     1.0  0.83249  0.83455  0.40275  1.0000
  H   H4109     1.0  0.63915  0.87121  0.40462  1.0000
  H   H4110     1.0  0.73359  0.97422  0.54676  1.0000
  H   H4111     1.0  0.63567  0.88481  0.56449  1.0000
  C   C4113     1.0  0.82645  0.83801  0.41742  1.0000
  C   C4114     1.0  0.94365  0.83248  0.39946  1.0000
  C   C4115     1.0  0.97332  0.68212  0.46364  1.0000
  H   H4112     1.0  0.77078  0.88827  0.39423  1.0000
  H   H4113     1.0  0.81348  0.74453  0.39351  1.0000
  C   C4116     1.0  0.95119  0.80809  0.52849  1.0000
  C   C4117     1.0  0.87622  0.79563  0.40608  1.0000
  S   S1382     1.0  0.88276  0.69268  0.57098  1.0000
  C   C4118     1.0  0.71247  0.96153  0.48282  1.0000
  C   C4119     1.0  0.75797  0.92798  0.55300  1.0000
  H   H4114     1.0  0.85313  0.66281  0.55837  1.0000
  H   H4115     1.0  0.93134  0.80462  0.40784  1.0000
  S   S1383     1.0  0.67848  0.96560  0.54883  1.0000
  C   C4120     1.0  0.71728  0.94563  0.48282  1.0000
  C   C4121     1.0  0.73157  0.96540  0.55730  1.0000
  H   H4116     1.0  0.70750  0.94688  0.44937  1.0000
  C   C4122     1.0  0.86620  0.67592  0.56398  1.0000
  H   H4117     1.0  0.69389  0.89036  0.54341  1.0000
  C   C4123     1.0  0.74535  0.92061  0.55946  1.0000
  H   H4118     1.0  0.97476  0.70176  0.49011  1.0000
  C   C4124     1.0  0.91030  0.80054  0.56330  1.0000
  C   C4125     1.0  0.65432  0.88383  0.57508  1.0000
  H   H4119     1.0  0.65524  0.88956  0.52574  1.0000
  H   H4120     1.0  0.68252  0.83709  0.55324  1.0000
  H   H4121     1.0  0.69910  0.97490  0.44991  1.0000
  C   C4126     1.0  0.81518  0.60597  0.38525  1.0000
  C   C4127     1.0  0.61875  0.97524  0.51113  1.0000
  H   H4122     1.0  0.84271  0.72478  0.56008  1.0000
  H   H4123     1.0  0.66333  0.86324  0.38527  1.0000
  C   C4128     1.0  0.89433  0.80197  0.57002  1.0000
  H   H4124     1.0  0.93775  0.83541  0.38997  1.0000
  H   H4125     1.0  0.80925  0.60234  0.56096  1.0000
  H   H4126     1.0  0.67024  0.97957  0.39182  1.0000
  C   C4129     1.0  0.53328  0.91844  0.38552  1.0000
  H   H4127     1.0  0.97694  0.71362  0.57060  1.0000
  C   C4130     1.0  0.70246  0.94358  0.37743  1.0000
  S   S1384     1.0  0.88438  0.76483  0.56261  1.0000
  C   C4131     1.0  0.51276  0.84319  0.42640  1.0000
  H   H4128     1.0  0.74444  0.95037  0.38087  1.0000
  C   C4132     1.0  0.51124  0.85312  0.43606  1.0000
  C   C4133     1.0  0.81787  0.70021  0.57267  1.0000
  H   H4129     1.0  0.83355  0.75630  0.39672  1.0000
  C   C4134     1.0  0.74157  0.96112  0.56757  1.0000
  C   C4135     1.0  0.62623  0.85768  0.38172  1.0000
  C   C4136     1.0  0.69192  0.95758  0.37961  1.0000
  H   H4130     1.0  0.55649  0.89524  0.39227  1.0000
  H   H4131     1.0  0.65690  0.89472  0.56776  1.0000
  N   N344      1.0  0.54074  0.90717  0.37720  1.0000
  S   S1385     1.0  0.91995  0.81447  0.56368  1.0000
  H   H4132     1.0  0.66251  0.84326  0.56338  1.0000
  H   H4133     1.0  0.70497  0.91927  0.37858  1.0000
  N   N345      1.0  0.74615  0.90789  0.57153  1.0000
  C   C4137     1.0  0.68072  0.93099  0.38474  1.0000
  H   H4134     1.0  0.51307  0.93709  0.38961  1.0000
  C   C4138     1.0  0.81128  0.59336  0.57122  1.0000
  C   C4139     1.0  0.99118  0.69935  0.45725  1.0000
  C   C4140     1.0  0.98996  0.75721  0.50174  1.0000
  C   C4141     1.0  0.55577  0.89710  0.37999  1.0000
  H   H4135     1.0  0.94478  0.85219  0.57200  1.0000
  H   H4136     1.0  0.82421  0.69207  0.56542  1.0000
  S   S1386     1.0  0.97730  0.86815  0.37701  1.0000
  H   H4137     1.0  0.65389  0.97134  0.39408  1.0000
  H   H4138     1.0  0.69646  0.96790  0.37767  1.0000
  C   C4142     1.0  0.63242  0.89382  0.39002  1.0000
  S   S1387     1.0  0.79974  0.63339  0.57193  1.0000
  H   H4139     1.0  0.79280  0.76115  0.37952  1.0000
  H   H4140     1.0  0.64635  0.97998  0.51661  1.0000
  H   H4141     1.0  0.96593  0.84699  0.56648  1.0000
  H   H4142     1.0  0.83714  0.88283  0.57187  1.0000
  C   C4143     1.0  0.82648  0.58696  0.57352  1.0000
  H   H4143     1.0  0.77709  0.48536  0.37575  1.0000
  C   C4144     1.0  0.60758  0.88248  0.37817  1.0000
  H   H4144     1.0  0.55732  0.88540  0.37775  1.0000
  H   H4145     1.0  0.87405  0.79237  0.57463  1.0000
  C   C4145     1.0  0.80124  0.78211  0.37538  1.0000
  S   S1388     1.0  0.51489  0.86156  0.37773  1.0000
  S   S1389     1.0  0.99243  0.81837  0.56340  1.0000
  N   N346      1.0  0.63600  0.90370  0.37596  1.0000
  C   C4146     1.0  0.84248  0.52504  0.73898  1.0000
  S   S1390     1.0  0.50148  0.86103  0.65176  1.0000
  C   C4147     1.0  0.57288  0.87663  0.60082  1.0000
  H   H4146     1.0  0.79153  0.57416  0.60480  1.0000
  S   S1391     1.0  0.79894  0.93726  0.61027  1.0000
  H   H4147     1.0  0.72425  0.93367  0.59497  1.0000
  Fe  Fe696     1.0  0.77288  0.94129  0.61281  1.0000
  S   S1392     1.0  0.75411  0.93217  0.63216  1.0000
  Fe  Fe697     1.0  0.79591  0.96217  0.59643  1.0000
  S   S1393     1.0  0.77520  0.93341  0.59133  1.0000
  H   H4148     1.0  0.79274  0.69341  0.61303  1.0000
  Fe  Fe698     1.0  0.71806  0.87095  0.62047  1.0000
  S   S1394     1.0  0.70805  0.85837  0.64426  1.0000
  S   S1395     1.0  0.74254  0.87513  0.61410  1.0000
  Fe  Fe699     1.0  0.69039  0.87103  0.60763  1.0000
  S   S1396     1.0  0.67864  0.85777  0.63026  1.0000
  C   C4148     1.0  0.81230  0.62270  0.58444  1.0000
  Fe  Fe700     1.0  0.68490  0.87398  0.64069  1.0000
  S   S1397     1.0  0.66765  0.88778  0.65760  1.0000
  Fe  Fe701     1.0  0.70295  0.84329  0.63159  1.0000
  S   S1398     1.0  0.70922  0.81730  0.64110  1.0000
  S   S1399     1.0  0.69556  0.88807  0.61791  1.0000
  S   S1400     1.0  0.71411  0.85518  0.60786  1.0000
  Fe  Fe702     1.0  0.57842  0.89611  0.73862  1.0000
  S   S1401     1.0  0.59995  0.87677  0.73864  1.0000
  S   S1402     1.0  0.57788  0.92033  0.74060  1.0000
  Fe  Fe703     1.0  0.55853  0.87591  0.73601  1.0000
  S   S1403     1.0  0.57799  0.85463  0.73644  1.0000
  S   S1404     1.0  0.53408  0.87715  0.73425  1.0000
  H   H4149     1.0  0.73773  0.70393  0.72638  1.0000
  Fe  Fe704     1.0  0.59291  0.87077  0.71994  1.0000
  S   S1405     1.0  0.60926  0.86042  0.70020  1.0000
  H   H4150     1.0  0.53642  0.90777  0.62394  1.0000
  S   S1406     1.0  0.57294  0.89156  0.71810  1.0000
  H   H4151     1.0  0.64567  0.84434  0.60041  1.0000
  C   C4149     1.0  0.74840  0.69016  0.74533  1.0000
  Fe  Fe705     1.0  0.80370  0.65836  0.74837  1.0000
  S   S1407     1.0  0.82078  0.63643  0.75601  1.0000
  S   S1408     1.0  0.81331  0.67876  0.73222  1.0000
  Fe  Fe706     1.0  0.80509  0.62424  0.75123  1.0000
  S   S1409     1.0  0.81796  0.60383  0.74015  1.0000
  H   H4152     1.0  0.86553  0.49483  0.70127  1.0000
  C   C4150     1.0  0.85933  0.49373  0.69324  1.0000
  S   S1410     1.0  0.78903  0.64623  0.74193  1.0000
  H   H4153     1.0  0.87766  0.55180  0.64368  1.0000
  Fe  Fe707     1.0  0.79128  0.76111  0.62884  1.0000
  S   S1411     1.0  0.81659  0.75400  0.61724  1.0000
  S   S1412     1.0  0.77891  0.78372  0.61560  1.0000
  Fe  Fe708     1.0  0.79373  0.73330  0.65592  1.0000
  S   S1413     1.0  0.81916  0.72430  0.64662  1.0000
  S   S1414     1.0  0.78039  0.71930  0.67725  1.0000
  Fe  Fe709     1.0  0.82108  0.74924  0.64098  1.0000
  S   S1415     1.0  0.84256  0.75461  0.64415  1.0000
  Fe  Fe710     1.0  0.81244  0.72986  0.62372  1.0000
  S   S1416     1.0  0.82452  0.71230  0.60880  1.0000
  S   S1417     1.0  0.79606  0.75801  0.65234  1.0000
  S   S1418     1.0  0.78671  0.73719  0.63325  1.0000
  S   S1419     1.0  0.96616  0.86808  0.62354  1.0000
  Fe  Fe711     1.0  0.88979  0.85680  0.59421  1.0000
  S   S1420     1.0  0.88350  0.84395  0.61890  1.0000
  H   H4154     1.0  0.97302  0.88608  0.64138  1.0000
  N   N347      1.0  0.91218  0.50827  0.74756  1.0000
  S   S1421     1.0  0.89974  0.81180  0.60629  1.0000
  H   H4155     1.0  0.81129  0.57272  0.76183  1.0000
  Fe  Fe712     1.0  0.87623  0.82823  0.60861  1.0000
  S   S1422     1.0  0.85186  0.82367  0.61609  1.0000
  Fe  Fe713     1.0  0.90767  0.82898  0.61401  1.0000
  S   S1423     1.0  0.92536  0.82004  0.62916  1.0000
  H   H4156     1.0  0.95240  0.58660  0.76196  1.0000
  S   S1424     1.0  0.91464  0.84317  0.59016  1.0000
  Fe  Fe714     1.0  0.87631  0.55575  0.76083  1.0000
  S   S1425     1.0  0.89476  0.54863  0.74069  1.0000
  S   S1426     1.0  0.98035  0.51673  0.71355  1.0000
  Fe  Fe715     1.0  0.88978  0.58284  0.75987  1.0000
  S   S1427     1.0  0.90934  0.57818  0.73963  1.0000
  Fe  Fe716     1.0  0.89095  0.57423  0.73024  1.0000
  S   S1428     1.0  0.88620  0.58577  0.70670  1.0000
  Fe  Fe717     1.0  0.91114  0.55316  0.75231  1.0000
  S   S1429     1.0  0.93448  0.53689  0.75352  1.0000
  S   S1430     1.0  0.87115  0.58094  0.74951  1.0000
  C   C4151     1.0  0.95522  0.79922  0.59874  1.0000
  C   C4152     1.0  0.74276  0.82364  0.65303  1.0000
  Fe  Fe718     1.0  0.81325  0.57942  0.66987  1.0000
  S   S1431     1.0  0.83785  0.58196  0.65859  1.0000
  S   S1432     1.0  0.79650  0.59647  0.68355  1.0000
  Fe  Fe719     1.0  0.81714  0.55070  0.65769  1.0000
  S   S1433     1.0  0.84214  0.55068  0.64568  1.0000
  S   S1434     1.0  0.80413  0.53292  0.65818  1.0000
  Fe  Fe720     1.0  0.84407  0.55607  0.66723  1.0000
  S   S1435     1.0  0.86496  0.54297  0.67739  1.0000
  Fe  Fe721     1.0  0.83368  0.57648  0.63810  1.0000
  S   S1436     1.0  0.84495  0.58843  0.61435  1.0000
  S   S1437     1.0  0.81974  0.55385  0.68011  1.0000
  S   S1438     1.0  0.80834  0.57617  0.64849  1.0000
  S   S1439     1.0  0.76966  0.96672  0.60121  1.0000
  C   C4153     1.0  0.77125  0.69745  0.74700  1.0000
  C   C4154     1.0  0.79124  0.57922  0.74466  1.0000
  C   C4155     1.0  0.89103  0.56861  0.65365  1.0000
  C   C4156     1.0  0.66340  0.87515  0.58595  1.0000
  H   H4157     1.0  0.86989  0.56752  0.62934  1.0000
  C   C4157     1.0  0.54590  0.89961  0.62945  1.0000
  C   C4158     1.0  0.87990  0.56272  0.63522  1.0000
  C   C4159     1.0  0.50022  0.93057  0.65886  1.0000
  Fe  Fe722     1.0  0.50920  0.87637  0.66201  1.0000
  S   S1440     1.0  0.50643  0.89684  0.64213  1.0000
  S   S1441     1.0  0.53276  0.86954  0.66833  1.0000
  C   C4160     1.0  0.82848  0.62157  0.57964  1.0000
  S   S1442     1.0  0.50445  0.87789  0.60885  1.0000
  C   C4161     1.0  0.51121  0.93529  0.66358  1.0000
  Fe  Fe723     1.0  0.80079  0.93137  0.58761  1.0000
  H   H4158     1.0  0.93690  0.50480  0.74456  1.0000
  C   C4162     1.0  0.76960  0.70945  0.73386  1.0000
  N   N348      1.0  0.98176  0.90520  0.62534  1.0000
  C   C4163     1.0  0.92091  0.73651  0.61017  1.0000
  H   H4159     1.0  0.50394  0.92510  0.64910  1.0000
  C   C4164     1.0  0.52020  0.88644  0.59767  1.0000
  C   C4165     1.0  0.52172  0.90033  0.60000  1.0000
  C   C4166     1.0  0.72637  0.97771  0.60170  1.0000
  C   C4167     1.0  0.86439  0.89112  0.58535  1.0000
  H   H4160     1.0  0.90297  0.50624  0.72946  1.0000
  H   H4161     1.0  0.58931  0.80028  0.76730  1.0000
  H   H4162     1.0  0.51296  0.90610  0.60845  1.0000
  C   C4168     1.0  0.90059  0.50704  0.74147  1.0000
  H   H4163     1.0  0.73298  0.96089  0.62177  1.0000
  H   H4164     1.0  0.83539  0.69373  0.58625  1.0000
  C   C4169     1.0  0.61156  0.89276  0.77026  1.0000
  H   H4165     1.0  0.66709  0.93513  0.58124  1.0000
  H   H4166     1.0  0.54865  0.85186  0.62029  1.0000
  H   H4167     1.0  0.52338  0.93315  0.65761  1.0000
  H   H4168     1.0  0.85903  0.73383  0.62615  1.0000
  C   C4170     1.0  0.83224  0.60255  0.60354  1.0000
  Fe  Fe724     1.0  0.84008  0.49133  0.74036  1.0000
  H   H4169     1.0  0.74016  0.68253  0.74974  1.0000
  H   H4170     1.0  0.95491  0.78724  0.60458  1.0000
  C   C4171     1.0  0.80608  0.61427  0.59903  1.0000
  C   C4172     1.0  0.81602  0.60430  0.60861  1.0000
  H   H4171     1.0  0.81308  0.65815  0.62075  1.0000
  C   C4173     1.0  0.72620  0.94256  0.58447  1.0000
  H   H4172     1.0  0.79356  0.61519  0.60279  1.0000
  H   H4173     1.0  0.81110  0.59764  0.61968  1.0000
  C   C4174     1.0  0.81418  0.51763  0.64863  1.0000
  C   C4175     1.0  0.82916  0.51751  0.63915  1.0000
  C   C4176     1.0  0.83723  0.50476  0.63234  1.0000
  H   H4174     1.0  0.50073  0.87679  0.74799  1.0000
  C   C4177     1.0  0.87573  0.59966  0.64749  1.0000
  C   C4178     1.0  0.80720  0.50509  0.65101  1.0000
  H   H4175     1.0  0.83456  0.52719  0.63700  1.0000
  H   H4176     1.0  0.84885  0.50464  0.62506  1.0000
  H   H4177     1.0  0.71084  0.94810  0.62688  1.0000
  H   H4178     1.0  0.78502  0.72890  0.57697  1.0000
  C   C4179     1.0  0.87924  0.57309  0.70055  1.0000
  C   C4180     1.0  0.88753  0.55767  0.70082  1.0000
  C   C4181     1.0  0.88281  0.54815  0.69419  1.0000
  C   C4182     1.0  0.86961  0.55395  0.68765  1.0000
  C   C4183     1.0  0.86088  0.56902  0.68826  1.0000
  C   C4184     1.0  0.86582  0.57869  0.69443  1.0000
  H   H4179     1.0  0.89796  0.55332  0.70550  1.0000
  H   H4180     1.0  0.88955  0.53643  0.69385  1.0000
  H   H4181     1.0  0.85049  0.57339  0.68372  1.0000
  H   H4182     1.0  0.85929  0.59054  0.69429  1.0000
  H   H4183     1.0  0.91826  0.51073  0.76738  1.0000
  C   C4185     1.0  0.96092  0.53929  0.76031  1.0000
  H   H4184     1.0  0.83006  0.51155  0.75947  1.0000
  S   S1443     1.0  0.67952  0.88169  0.58672  1.0000
  H   H4185     1.0  0.92804  0.52138  0.73156  1.0000
  C   C4186     1.0  0.95337  0.57373  0.73412  1.0000
  H   H4186     1.0  0.96736  0.53281  0.75141  1.0000
  H   H4187     1.0  0.83392  0.92238  0.58988  1.0000
  C   C4187     1.0  0.78494  0.57386  0.72314  1.0000
  C   C4188     1.0  0.80813  0.55902  0.73254  1.0000
  C   C4189     1.0  0.85072  0.53711  0.75970  1.0000
  C   C4190     1.0  0.85549  0.54253  0.74366  1.0000
  H   H4188     1.0  0.86251  0.55123  0.73922  1.0000
  H   H4189     1.0  0.53695  0.87288  0.63468  1.0000
  H   H4190     1.0  0.87071  0.50770  0.77332  1.0000
  C   C4191     1.0  0.50641  0.94282  0.67595  1.0000
  H   H4191     1.0  0.54361  0.97092  0.72958  1.0000
  C   C4192     1.0  0.85131  0.53653  0.73328  1.0000
  C   C4193     1.0  0.65094  0.91992  0.58773  1.0000
  H   H4192     1.0  0.94437  0.56746  0.74091  1.0000
  H   H4193     1.0  0.85536  0.54038  0.72090  1.0000
  H   H4194     1.0  0.78862  0.58642  0.75302  1.0000
  C   C4194     1.0  0.81518  0.66763  0.61034  1.0000
  C   C4195     1.0  0.95484  0.85463  0.62538  1.0000
  C   C4196     1.0  0.94166  0.85954  0.61879  1.0000
  C   C4197     1.0  0.93247  0.84904  0.62006  1.0000
  C   C4198     1.0  0.93628  0.83359  0.62812  1.0000
  C   C4199     1.0  0.94938  0.82869  0.63486  1.0000
  C   C4200     1.0  0.95874  0.83914  0.63337  1.0000
  H   H4195     1.0  0.93851  0.87152  0.61270  1.0000
  H   H4196     1.0  0.92229  0.85299  0.61500  1.0000
  H   H4197     1.0  0.95229  0.81680  0.64124  1.0000
  H   H4198     1.0  0.96873  0.83534  0.63872  1.0000
  C   C4201     1.0  0.81653  0.71221  0.59358  1.0000
  C   C4202     1.0  0.63922  0.86389  0.58219  1.0000
  H   H4199     1.0  0.98683  0.88550  0.66130  1.0000
  C   C4203     1.0  0.56676  0.86332  0.60493  1.0000
  C   C4204     1.0  0.83043  0.49199  0.63517  1.0000
  H   H4200     1.0  0.93551  0.74396  0.62009  1.0000
  N   N349      1.0  0.55326  0.88696  0.62117  1.0000
  H   H4201     1.0  0.96472  0.80331  0.61578  1.0000
  H   H4202     1.0  0.79641  0.73079  0.59785  1.0000
  C   C4205     1.0  0.84505  0.77382  0.63633  1.0000
  C   C4206     1.0  0.83303  0.78556  0.63090  1.0000
  C   C4207     1.0  0.83529  0.80082  0.62465  1.0000
  C   C4208     1.0  0.84966  0.80432  0.62351  1.0000
  C   C4209     1.0  0.86182  0.79250  0.62859  1.0000
  C   C4210     1.0  0.85946  0.77730  0.63512  1.0000
  H   H4203     1.0  0.82193  0.78293  0.63172  1.0000
  H   H4204     1.0  0.82588  0.80993  0.62070  1.0000
  H   H4205     1.0  0.87286  0.79517  0.62789  1.0000
  H   H4206     1.0  0.86877  0.76823  0.63933  1.0000
  C   C4211     1.0  0.80507  0.68896  0.71600  1.0000
  C   C4212     1.0  0.81107  0.70151  0.70573  1.0000
  C   C4213     1.0  0.80406  0.71046  0.69329  1.0000
  C   C4214     1.0  0.79089  0.70700  0.69119  1.0000
  C   C4215     1.0  0.78509  0.69427  0.70127  1.0000
  C   C4216     1.0  0.79221  0.68521  0.71356  1.0000
  H   H4207     1.0  0.82102  0.70449  0.70752  1.0000
  H   H4208     1.0  0.80855  0.72034  0.68564  1.0000
  H   H4209     1.0  0.77490  0.69154  0.69970  1.0000
  H   H4210     1.0  0.78739  0.67569  0.72140  1.0000
  C   C4217     1.0  0.81299  0.60336  0.72318  1.0000
  C   C4218     1.0  0.82215  0.59219  0.71464  1.0000
  C   C4219     1.0  0.81746  0.59045  0.70204  1.0000
  C   C4220     1.0  0.80362  0.59985  0.69793  1.0000
  C   C4221     1.0  0.79476  0.61137  0.70614  1.0000
  C   C4222     1.0  0.79946  0.61315  0.71873  1.0000
  H   H4211     1.0  0.83263  0.58454  0.71806  1.0000
  H   H4212     1.0  0.82420  0.58140  0.69590  1.0000
  H   H4213     1.0  0.78402  0.61865  0.70300  1.0000
  H   H4214     1.0  0.79226  0.62171  0.72531  1.0000
  C   C4223     1.0  0.69273  0.98105  0.58434  1.0000
  C   C4224     1.0  0.95021  0.82127  0.57781  1.0000
  C   C4225     1.0  0.87416  0.58910  0.63987  1.0000
  C   C4226     1.0  0.53375  0.87463  0.71609  1.0000
  C   C4227     1.0  0.51948  0.87840  0.71151  1.0000
  C   C4228     1.0  0.51909  0.87690  0.69687  1.0000
  C   C4229     1.0  0.53294  0.87149  0.68677  1.0000
  C   C4230     1.0  0.54723  0.86774  0.69135  1.0000
  C   C4231     1.0  0.54765  0.86938  0.70596  1.0000
  H   H4215     1.0  0.50869  0.88262  0.71917  1.0000
  H   H4216     1.0  0.50806  0.87990  0.69344  1.0000
  H   H4217     1.0  0.55799  0.86356  0.68358  1.0000
  H   H4218     1.0  0.55873  0.86649  0.70936  1.0000
  C   C4232     1.0  0.72808  0.80719  0.63334  1.0000
  C   C4233     1.0  0.73458  0.79253  0.64163  1.0000
  C   C4234     1.0  0.75006  0.78486  0.63614  1.0000
  C   C4235     1.0  0.75899  0.79180  0.62221  1.0000
  C   C4236     1.0  0.75228  0.80615  0.61367  1.0000
  C   C4237     1.0  0.73694  0.81384  0.61924  1.0000
  H   H4219     1.0  0.72775  0.78725  0.65250  1.0000
  H   H4220     1.0  0.75515  0.77375  0.64277  1.0000
  H   H4221     1.0  0.75908  0.81146  0.60281  1.0000
  H   H4222     1.0  0.73199  0.82490  0.61258  1.0000
  C   C4238     1.0  0.65166  0.87993  0.66973  1.0000
  C   C4239     1.0  0.64931  0.86596  0.66842  1.0000
  C   C4240     1.0  0.63624  0.86015  0.67784  1.0000
  C   C4241     1.0  0.62552  0.86817  0.68876  1.0000
  C   C4242     1.0  0.62791  0.88207  0.69023  1.0000
  C   C4243     1.0  0.64092  0.88797  0.68066  1.0000
  H   H4223     1.0  0.65755  0.85957  0.66019  1.0000
  H   H4224     1.0  0.63447  0.84938  0.67667  1.0000
  H   H4225     1.0  0.61967  0.88834  0.69861  1.0000
  H   H4226     1.0  0.64269  0.89879  0.68173  1.0000
  H   H4227     1.0  0.86119  0.91180  0.59370  1.0000
  C   C4244     1.0  0.66000  0.86110  0.59534  1.0000
  H   H4228     1.0  0.76663  0.72904  0.70776  1.0000
  H   H4229     1.0  0.93081  0.50179  0.72896  1.0000
  C   C4245     1.0  0.96319  0.56883  0.72090  1.0000
  C   C4246     1.0  0.81538  0.49220  0.64448  1.0000
  H   H4230     1.0  0.66699  0.85427  0.60369  1.0000
  C   C4247     1.0  0.90908  0.50962  0.76262  1.0000
  C   C4248     1.0  0.72458  0.96520  0.61435  1.0000
  H   H4231     1.0  0.79541  0.50532  0.65783  1.0000
  C   C4249     1.0  0.82432  0.70134  0.58435  1.0000
  S   S1444     1.0  0.89293  0.55813  0.77350  1.0000
  Fe  Fe725     1.0  0.99043  0.85752  0.62781  1.0000
  H   H4232     1.0  0.96573  0.83060  0.60216  1.0000
  C   C4250     1.0  0.82590  0.85929  0.60398  1.0000
  H   H4233     1.0  0.76146  0.67861  0.76305  1.0000
  S   S1445     1.0  0.97051  0.48817  0.75229  1.0000
  H   H4234     1.0  0.57457  0.89811  0.77010  1.0000
  C   C4251     1.0  0.57424  0.90922  0.77215  1.0000
  Fe  Fe726     1.0  0.58354  0.86216  0.75507  1.0000
  C   C4252     1.0  0.76705  0.80445  0.65017  1.0000
  C   C4253     1.0  0.79601  0.72121  0.57901  1.0000
  H   H4235     1.0  0.86207  0.76670  0.59183  1.0000
  H   H4236     1.0  0.74123  0.84363  0.63415  1.0000
  C   C4254     1.0  0.97403  0.90500  0.61342  1.0000
  H   H4237     1.0  0.99110  0.54499  0.70722  1.0000
  H   H4238     1.0  0.86479  0.75949  0.61137  1.0000
  H   H4239     1.0  0.61843  0.83945  0.74657  1.0000
  C   C4255     1.0  0.75080  0.91568  0.62834  1.0000
  C   C4256     1.0  0.73563  0.91300  0.63203  1.0000
  C   C4257     1.0  0.73291  0.90045  0.62790  1.0000
  C   C4258     1.0  0.74543  0.89043  0.62031  1.0000
  C   C4259     1.0  0.76064  0.89283  0.61712  1.0000
  C   C4260     1.0  0.76331  0.90543  0.62107  1.0000
  H   H4240     1.0  0.72595  0.92076  0.63784  1.0000
  H   H4241     1.0  0.72115  0.89859  0.63052  1.0000
  H   H4242     1.0  0.77040  0.88501  0.61147  1.0000
  H   H4243     1.0  0.77509  0.90720  0.61853  1.0000
  C   C4261     1.0  0.98775  0.89424  0.65052  1.0000
  H   H4244     1.0  0.75910  0.84150  0.60832  1.0000
  H   H4245     1.0  0.99153  0.49523  0.77166  1.0000
  C   C4262     1.0  0.84127  0.52621  0.76532  1.0000
  C   C4263     1.0  0.84053  0.91148  0.58676  1.0000
  H   H4246     1.0  0.81700  0.86542  0.59690  1.0000
  C   C4264     1.0  0.54374  0.92698  0.72541  1.0000
  H   H4247     1.0  0.56558  0.83831  0.77118  1.0000
  N   N350      1.0  0.70365  0.97553  0.59477  1.0000
  H   H4248     1.0  0.85100  0.61009  0.58516  1.0000
  N   N351      1.0  0.82913  0.86992  0.61142  1.0000
  C   C4265     1.0  0.84331  0.86675  0.61527  1.0000
  C   C4266     1.0  0.81788  0.88269  0.61481  1.0000
  C   C4267     1.0  0.84682  0.87685  0.62210  1.0000
  C   C4268     1.0  0.82093  0.89297  0.62178  1.0000
  C   C4269     1.0  0.83555  0.89007  0.62530  1.0000
  H   H4249     1.0  0.54470  0.95221  0.75472  1.0000
  H   H4250     1.0  0.82576  0.66323  0.60188  1.0000
  H   H4251     1.0  0.80667  0.88532  0.61165  1.0000
  H   H4252     1.0  0.85838  0.87467  0.62441  1.0000
  H   H4253     1.0  0.81215  0.90332  0.62403  1.0000
  H   H4254     1.0  0.83827  0.89821  0.63023  1.0000
  H   H4255     1.0  0.73577  0.88818  0.58187  1.0000
  H   H4256     1.0  0.84546  0.76445  0.60770  1.0000
  C   C4270     1.0  0.79866  0.58868  0.58252  1.0000
  N   N352      1.0  0.85949  0.74321  0.60206  1.0000
  C   C4271     1.0  0.85996  0.74018  0.58818  1.0000
  C   C4272     1.0  0.70162  0.96343  0.60731  1.0000
  C   C4273     1.0  0.86137  0.72495  0.58695  1.0000
  H   H4257     1.0  0.93377  0.76951  0.62100  1.0000
  C   C4274     1.0  0.86189  0.71288  0.60009  1.0000
  H   H4258     1.0  0.90501  0.73275  0.59882  1.0000
  H   H4259     1.0  0.98980  0.79549  0.64907  1.0000
  C   C4275     1.0  0.98010  0.89456  0.63916  1.0000
  C   C4276     1.0  0.60482  0.81553  0.75350  1.0000
  H   H4260     1.0  0.98550  0.59589  0.70954  1.0000
  Fe  Fe727     1.0  0.97759  0.49263  0.72645  1.0000
  C   C4277     1.0  0.84931  0.50678  0.68646  1.0000
  C   C4278     1.0  0.79327  0.50517  0.69123  1.0000
  N   N353      1.0  0.80148  0.67321  0.60330  1.0000
  C   C4279     1.0  0.79095  0.68665  0.60592  1.0000
  C   C4280     1.0  0.79911  0.66465  0.59446  1.0000
  C   C4281     1.0  0.77804  0.69225  0.59895  1.0000
  C   C4282     1.0  0.78633  0.66992  0.58732  1.0000
  C   C4283     1.0  0.77587  0.68392  0.58943  1.0000
  S   S1446     1.0  0.70192  0.93628  0.57709  1.0000
  H   H4261     1.0  0.72665  0.90503  0.59022  1.0000
  C   C4284     1.0  0.53129  0.87935  0.58627  1.0000
  H   H4262     1.0  0.91373  0.78014  0.62456  1.0000
  C   C4285     1.0  0.82882  0.57601  0.58718  1.0000
  H   H4263     1.0  0.77715  0.48859  0.68520  1.0000
  S   S1447     1.0  0.88595  0.60437  0.76855  1.0000
  H   H4264     1.0  0.60905  0.92311  0.76330  1.0000
  C   C4286     1.0  0.97475  0.57692  0.71192  1.0000
  C   C4287     1.0  0.81917  0.55999  0.61243  1.0000
  H   H4265     1.0  0.55455  0.90614  0.62930  1.0000
  H   H4266     1.0  0.98250  0.57327  0.70165  1.0000
  H   H4267     1.0  0.89670  0.55639  0.65649  1.0000
  H   H4268     1.0  0.63664  0.90296  0.59719  1.0000
  H   H4269     1.0  0.57202  0.85414  0.59853  1.0000
  N   N354      1.0  0.88157  0.57374  0.64321  1.0000
  C   C4288     1.0  0.80930  0.50464  0.70839  1.0000
  H   H4270     1.0  0.58286  0.87793  0.59119  1.0000
  S   S1448     1.0  0.62558  0.85559  0.57875  1.0000
  C   C4289     1.0  0.84122  0.50529  0.67630  1.0000
  S   S1449     1.0  0.83894  0.51574  0.72646  1.0000
  H   H4271     1.0  0.78641  0.51184  0.68267  1.0000
  C   C4290     1.0  0.73857  0.95003  0.58137  1.0000
  C   C4291     1.0  0.56578  0.88852  0.60894  1.0000
  Fe  Fe728     1.0  0.49676  0.88217  0.63300  1.0000
  Fe  Fe729     1.0  0.50360  0.95503  0.73756  1.0000
  C   C4292     1.0  0.71570  0.98279  0.59200  1.0000
  H   H4272     1.0  0.80849  0.56035  0.62196  1.0000
  N   N355      1.0  0.95516  0.58614  0.73846  1.0000
  C   C4293     1.0  0.85981  0.73144  0.61505  1.0000
  C   C4294     1.0  0.76047  0.68787  0.75281  1.0000
  H   H4273     1.0  0.49302  0.96842  0.76598  1.0000
  C   C4295     1.0  0.96655  0.59405  0.72978  1.0000
  C   C4296     1.0  0.75948  0.90197  0.57720  1.0000
  H   H4274     1.0  0.81650  0.55254  0.76069  1.0000
  S   S1450     1.0  0.52017  0.94824  0.68231  1.0000
  H   H4275     1.0  0.76622  0.68840  0.58351  1.0000
  H   H4276     1.0  0.92711  0.72441  0.61227  1.0000
  C   C4297     1.0  0.79840  0.56197  0.72220  1.0000
  H   H4277     1.0  0.54502  0.93042  0.73530  1.0000
  H   H4278     1.0  0.75334  0.72041  0.70383  1.0000
  H   H4279     1.0  0.54290  0.91945  0.67633  1.0000
  C   C4298     1.0  0.75577  0.72448  0.71307  1.0000
  H   H4280     1.0  0.84063  0.57144  0.58909  1.0000
  C   C4299     1.0  0.74858  0.83269  0.63868  1.0000
  H   H4281     1.0  0.62651  0.91696  0.77118  1.0000
  N   N356      1.0  0.95555  0.83011  0.58413  1.0000
  C   C4300     1.0  0.89311  0.57892  0.66124  1.0000
  C   C4301     1.0  0.96094  0.80820  0.60493  1.0000
  C   C4302     1.0  0.88552  0.50680  0.75063  1.0000
  C   C4303     1.0  0.77244  0.81374  0.63580  1.0000
  H   H4282     1.0  0.59079  0.81380  0.71827  1.0000
  Fe  Fe730     1.0  0.50761  0.95830  0.70307  1.0000
  N   N357      1.0  0.61041  0.82371  0.73903  1.0000
  N   N358      1.0  0.76310  0.82755  0.63013  1.0000
  H   H4283     1.0  0.92648  0.78379  0.60547  1.0000
  H   H4284     1.0  0.86674  0.59322  0.63148  1.0000
  C   C4304     1.0  0.83845  0.61138  0.58914  1.0000
  C   C4305     1.0  0.74714  0.70222  0.73217  1.0000
  H   H4285     1.0  0.96193  0.55870  0.71781  1.0000
  H   H4286     1.0  0.82186  0.84942  0.61295  1.0000
  C   C4306     1.0  0.81532  0.56468  0.75374  1.0000
  H   H4287     1.0  0.81878  0.55005  0.73145  1.0000
  S   S1451     1.0  0.74946  0.65072  0.77290  1.0000
  H   H4288     1.0  0.78101  0.69541  0.75243  1.0000
  H   H4289     1.0  0.57024  0.89909  0.60521  1.0000
  C   C4307     1.0  0.96126  0.82366  0.59730  1.0000
  C   C4308     1.0  0.85595  0.90549  0.58891  1.0000
  H   H4290     1.0  0.78386  0.80947  0.62893  1.0000
  H   H4291     1.0  0.98160  0.54307  0.76430  1.0000
  H   H4292     1.0  0.57648  0.94633  0.75309  1.0000
  C   C4309     1.0  0.59474  0.81410  0.72826  1.0000
  S   S1452     1.0  0.51364  0.93996  0.75789  1.0000
  C   C4310     1.0  0.49787  0.89826  0.75480  1.0000
  H   H4293     1.0  0.77869  0.83025  0.60779  1.0000
  H   H4294     1.0  0.89074  0.55992  0.62636  1.0000
  H   H4295     1.0  0.77201  0.84724  0.61636  1.0000
  N   N359      1.0  0.75767  0.71166  0.72660  1.0000
  H   H4296     1.0  0.74748  0.80203  0.66962  1.0000
  H   H4297     1.0  0.97865  0.73231  0.58474  1.0000
  H   H4298     1.0  0.98120  0.89594  0.60686  1.0000
  C   C4311     1.0  0.84326  0.49068  0.67311  1.0000
  H   H4299     1.0  0.80157  0.55545  0.71320  1.0000
  H   H4300     1.0  0.83342  0.51539  0.67095  1.0000
  C   C4312     1.0  0.94300  0.74957  0.57624  1.0000
  C   C4313     1.0  0.61374  0.91748  0.77396  1.0000
  H   H4301     1.0  0.87632  0.50591  0.74577  1.0000
  H   H4302     1.0  0.83686  0.48957  0.66529  1.0000
  C   C4314     1.0  0.76861  0.83708  0.61489  1.0000
  C   C4315     1.0  0.55371  0.86202  0.61713  1.0000
  C   C4316     1.0  0.54374  0.96452  0.75379  1.0000
  H   H4303     1.0  0.77107  0.59206  0.73502  1.0000
  C   C4317     1.0  0.88523  0.59448  0.65829  1.0000
  C   C4318     1.0  0.94454  0.54227  0.76417  1.0000
  C   C4319     1.0  0.80142  0.57764  0.59602  1.0000
  H   H4304     1.0  0.88635  0.60241  0.66455  1.0000
  H   H4305     1.0  0.52838  0.90929  0.68879  1.0000
  C   C4320     1.0  0.92559  0.74764  0.61459  1.0000
  H   H4306     1.0  0.54885  0.89985  0.68725  1.0000
  C   C4321     1.0  0.83716  0.52020  0.75498  1.0000
  C   C4322     1.0  0.92327  0.77467  0.61589  1.0000
  S   S1453     1.0  0.88303  0.88299  0.58961  1.0000
  H   H4307     1.0  0.85216  0.85660  0.61261  1.0000
  H   H4308     1.0  0.56323  0.93590  0.70968  1.0000
  S   S1454     1.0  0.56247  0.88192  0.75642  1.0000
  C   C4323     1.0  0.57541  0.92210  0.75977  1.0000
  H   H4309     1.0  0.80726  0.65381  0.59262  1.0000
  H   H4310     1.0  0.52175  0.90821  0.71593  1.0000
  C   C4324     1.0  0.97641  0.58965  0.71632  1.0000
  H   H4311     1.0  0.52426  0.91654  0.73832  1.0000
  N   N360      1.0  0.64926  0.90345  0.61332  1.0000
  C   C4325     1.0  0.64476  0.90833  0.59943  1.0000
  C   C4326     1.0  0.65969  0.91003  0.61607  1.0000
  H   H4312     1.0  0.53530  0.91798  0.59269  1.0000
  C   C4327     1.0  0.66630  0.92146  0.60455  1.0000
  C   C4328     1.0  0.92772  0.50912  0.73761  1.0000
  C   C4329     1.0  0.64324  0.89068  0.62501  1.0000
  S   S1455     1.0  0.78934  0.65856  0.77262  1.0000
  H   H4313     1.0  0.66324  0.90621  0.62710  1.0000
  H   H4314     1.0  0.86950  0.61173  0.64513  1.0000
  H   H4315     1.0  0.83669  0.85444  0.59599  1.0000
  H   H4316     1.0  0.74556  0.94732  0.58983  1.0000
  H   H4317     1.0  0.90034  0.57475  0.66978  1.0000
  H   H4318     1.0  0.64787  0.87972  0.62071  1.0000
  H   H4319     1.0  0.64683  0.88863  0.63616  1.0000
  N   N361      1.0  0.85836  0.63388  0.72756  1.0000
  C   C4330     1.0  0.85994  0.62007  0.72367  1.0000
  C   C4331     1.0  0.84678  0.64641  0.72351  1.0000
  C   C4332     1.0  0.84968  0.61848  0.71568  1.0000
  C   C4333     1.0  0.83636  0.64526  0.71542  1.0000
  C   C4334     1.0  0.83778  0.63115  0.71160  1.0000
  C   C4335     1.0  0.86837  0.63486  0.73713  1.0000
  H   H4320     1.0  0.86910  0.61012  0.72683  1.0000
  H   H4321     1.0  0.84521  0.65729  0.72690  1.0000
  H   H4322     1.0  0.85074  0.60735  0.71307  1.0000
  H   H4323     1.0  0.82700  0.65516  0.71251  1.0000
  H   H4324     1.0  0.82949  0.62993  0.70577  1.0000
  H   H4325     1.0  0.86275  0.63164  0.74963  1.0000
  H   H4326     1.0  0.88001  0.62678  0.73506  1.0000
  H   H4327     1.0  0.87042  0.64682  0.73454  1.0000
  N   N362      1.0  0.91821  0.76302  0.61142  1.0000
  C   C4336     1.0  0.90610  0.76773  0.60392  1.0000
  H   H4328     1.0  0.82702  0.56649  0.74670  1.0000
  C   C4337     1.0  0.90113  0.75690  0.59937  1.0000
  C   C4338     1.0  0.90859  0.74121  0.60253  1.0000
  H   H4329     1.0  0.90038  0.77995  0.60121  1.0000
  H   H4330     1.0  0.89175  0.76071  0.59318  1.0000
  C   C4339     1.0  0.50029  0.96315  0.77429  1.0000
  S   S1456     1.0  0.51897  0.96700  0.71668  1.0000
  H   H4331     1.0  0.62236  0.84197  0.72599  1.0000
  H   H4332     1.0  0.77820  0.71666  0.72926  1.0000
  H   H4333     1.0  0.86251  0.70110  0.59935  1.0000
  C   C4340     1.0  0.80244  0.72230  0.59080  1.0000
  H   H4334     1.0  0.74602  0.73415  0.71643  1.0000
  C   C4341     1.0  0.75206  0.80939  0.65876  1.0000
  H   H4335     1.0  0.86089  0.67357  0.57625  1.0000
  Fe  Fe731     1.0  0.77581  0.64472  0.76678  1.0000
  H   H4336     1.0  0.73090  0.82739  0.65937  1.0000
  N   N363      1.0  0.80454  0.56767  0.74351  1.0000
  C   C4342     1.0  0.64795  0.85547  0.59343  1.0000
  H   H4337     1.0  0.77770  0.57676  0.71471  1.0000
  H   H4338     1.0  0.56045  0.92729  0.68747  1.0000
  C   C4343     1.0  0.51112  0.94906  0.77319  1.0000
  H   H4339     1.0  0.77423  0.79319  0.65427  1.0000
  H   H4340     1.0  0.82839  0.56228  0.61672  1.0000
  H   H4341     1.0  0.86077  0.70690  0.62467  1.0000
  H   H4342     1.0  0.93361  0.75968  0.57761  1.0000
  C   C4344     1.0  0.99126  0.91543  0.62229  1.0000
  H   H4343     1.0  0.96825  0.60369  0.73336  1.0000
  C   C4345     1.0  0.53428  0.90711  0.59098  1.0000
  H   H4344     1.0  0.79914  0.52557  0.69349  1.0000
  C   C4346     1.0  0.85791  0.75924  0.60324  1.0000
  C   C4347     1.0  0.71211  0.95802  0.61723  1.0000
  H   H4345     1.0  0.63024  0.89331  0.62751  1.0000
  N   N364      1.0  0.54094  0.91728  0.70042  1.0000
  C   C4348     1.0  0.55236  0.92509  0.69857  1.0000
  C   C4349     1.0  0.53077  0.91442  0.71443  1.0000
  C   C4350     1.0  0.55392  0.93009  0.71102  1.0000
  C   C4351     1.0  0.53207  0.91915  0.72714  1.0000
  C   C4352     1.0  0.54708  0.87401  0.62520  1.0000
  C   C4353     1.0  0.54027  0.91111  0.68758  1.0000
  H   H4346     1.0  0.94568  0.79871  0.57999  1.0000
  C   C4354     1.0  0.60581  0.82279  0.72642  1.0000
  C   C4355     1.0  0.86096  0.71613  0.61428  1.0000
  H   H4347     1.0  0.61044  0.82904  0.71488  1.0000
  C   C4356     1.0  0.78125  0.58248  0.73450  1.0000
  H   H4348     1.0  0.69217  0.95756  0.60942  1.0000
  C   C4357     1.0  0.58871  0.80600  0.74304  1.0000
  H   H4349     1.0  0.54084  0.89496  0.64185  1.0000
  H   H4350     1.0  0.61397  0.89733  0.75780  1.0000
  C   C4358     1.0  0.80042  0.51304  0.69738  1.0000
  H   H4351     1.0  0.78468  0.66330  0.58001  1.0000
  H   H4352     1.0  0.53010  0.86863  0.58439  1.0000
  H   H4353     1.0  0.84782  0.51799  0.68918  1.0000
  H   H4354     1.0  0.67507  0.92620  0.60651  1.0000
  C   C4359     1.0  0.89415  0.50939  0.77211  1.0000
  C   C4360     1.0  0.88235  0.50787  0.76607  1.0000
  S   S1457     1.0  0.99257  0.77828  0.59197  1.0000
  N   N365      1.0  0.79494  0.48935  0.69589  1.0000
  C   C4361     1.0  0.59389  0.80656  0.75574  1.0000
  C   C4362     1.0  0.57531  0.93638  0.76265  1.0000
  H   H4355     1.0  0.85922  0.74953  0.57798  1.0000
  H   H4356     1.0  0.94111  0.60343  0.75097  1.0000
  C   C4363     1.0  0.62181  0.83305  0.73707  1.0000
  H   H4357     1.0  0.81781  0.67717  0.61384  1.0000
  C   C4364     1.0  0.95565  0.84642  0.57637  1.0000
  C   C4365     1.0  0.94542  0.59059  0.75286  1.0000
  N   N366      1.0  0.81636  0.57160  0.59828  1.0000
  H   H4358     1.0  0.58000  0.79933  0.74468  1.0000
  H   H4359     1.0  0.93497  0.58529  0.75725  1.0000
  H   H4360     1.0  0.63364  0.82540  0.73709  1.0000
  H   H4361     1.0  0.60861  0.81610  0.76347  1.0000
  C   C4366     1.0  0.85762  0.88311  0.57900  1.0000
  C   C4367     1.0  0.54404  0.88600  0.57742  1.0000
  S   S1458     1.0  0.95778  0.76075  0.59150  1.0000
  S   S1459     1.0  0.49431  0.94421  0.72397  1.0000
  H   H4362     1.0  0.96231  0.90215  0.61877  1.0000
  S   S1460     1.0  0.85693  0.54327  0.77294  1.0000
  H   H4363     1.0  0.76009  0.89192  0.58677  1.0000
  H   H4364     1.0  0.77007  0.70325  0.60053  1.0000
  C   C4368     1.0  0.66189  0.92641  0.59031  1.0000
  C   C4369     1.0  0.96897  0.54529  0.76744  1.0000
  H   H4365     1.0  0.82298  0.54810  0.61005  1.0000
  H   H4366     1.0  0.81489  0.51057  0.71331  1.0000
  Fe  Fe732     1.0  0.77357  0.95831  0.57958  1.0000
  Fe  Fe733     1.0  0.90544  0.82688  0.58264  1.0000
  C   C4370     1.0  0.54314  0.96983  0.76679  1.0000
  S   S1461     1.0  0.88127  0.84195  0.58413  1.0000
  C   C4371     1.0  0.83367  0.90318  0.58082  1.0000
  H   H4367     1.0  0.68637  0.97203  0.58510  1.0000
  C   C4372     1.0  0.95634  0.74732  0.58193  1.0000
  H   H4368     1.0  0.82979  0.59963  0.76803  1.0000
  H   H4369     1.0  0.98544  0.81076  0.62310  1.0000
  H   H4370     1.0  0.97222  0.91646  0.60518  1.0000
  H   H4371     1.0  0.78680  0.59391  0.58095  1.0000
  H   H4372     1.0  0.95618  0.85318  0.58449  1.0000
  S   S1462     1.0  0.80990  0.97982  0.59430  1.0000
  S   S1463     1.0  0.81397  0.90941  0.57942  1.0000
  H   H4373     1.0  0.50985  0.89569  0.75619  1.0000
  C   C4373     1.0  0.95001  0.80569  0.58498  1.0000
  H   H4374     1.0  0.98834  0.84450  0.57671  1.0000
  H   H4375     1.0  0.60908  0.87070  0.76816  1.0000
  Fe  Fe734     1.0  0.98174  0.76552  0.58179  1.0000
  C   C4374     1.0  0.54552  0.89991  0.57978  1.0000
  C   C4375     1.0  0.84233  0.88916  0.57668  1.0000
  S   S1464     1.0  0.81912  0.48300  0.75606  1.0000
  C   C4376     1.0  0.54298  0.97517  0.73965  1.0000
  C   C4377     1.0  0.81096  0.48852  0.71303  1.0000
  C   C4378     1.0  0.96857  0.73436  0.57990  1.0000
  C   C4379     1.0  0.73238  0.90111  0.57917  1.0000
  H   H4376     1.0  0.86190  0.72246  0.57596  1.0000
  C   C4380     1.0  0.49274  0.88762  0.75019  1.0000
  H   H4377     1.0  0.86419  0.87231  0.57577  1.0000
  H   H4378     1.0  0.78288  0.90438  0.57563  1.0000
  H   H4379     1.0  0.88791  0.81167  0.57537  1.0000
  H   H4380     1.0  0.64757  0.92360  0.57661  1.0000
  C   C4381     1.0  0.90076  0.64213  0.90792  1.0000
  C   C4382     1.0  0.94258  0.61145  0.83914  1.0000
  Fe  Fe735     1.0  0.56051  0.94466  0.81889  1.0000
  S   S1465     1.0  0.53695  0.94112  0.83330  1.0000
  S   S1466     1.0  0.57615  0.92481  0.80828  1.0000
  Fe  Fe736     1.0  0.52854  0.96574  0.82128  1.0000
  H   H4381     1.0  0.55321  0.61250  0.84319  1.0000
  Fe  Fe737     1.0  0.54209  0.95178  0.84997  1.0000
  S   S1467     1.0  0.53681  0.94298  0.87585  1.0000
  S   S1468     1.0  0.55176  0.96864  0.80566  1.0000
  S   S1469     1.0  0.56651  0.95319  0.83670  1.0000
  H   H4382     1.0  0.56578  0.80825  0.86450  1.0000
  Fe  Fe738     1.0  0.75705  0.63621  0.95913  1.0000
  S   S1470     1.0  0.77582  0.62239  0.94340  1.0000
  Fe  Fe739     1.0  0.73589  0.64891  0.93566  1.0000
  S   S1471     1.0  0.75274  0.63633  0.91802  1.0000
  S   S1472     1.0  0.71251  0.66470  0.93295  1.0000
  Fe  Fe740     1.0  0.75592  0.61627  0.93824  1.0000
  H   H4383     1.0  0.69740  0.62396  0.93965  1.0000
  Fe  Fe741     1.0  0.77115  0.64375  0.92447  1.0000
  S   S1473     1.0  0.78824  0.65462  0.90421  1.0000
  C   C4383     1.0  0.50212  0.78838  0.87565  1.0000
  S   S1474     1.0  0.75388  0.65816  0.94069  1.0000
  Fe  Fe742     1.0  0.55395  0.84631  0.95348  1.0000
  S   S1475     1.0  0.54176  0.86795  0.93893  1.0000
  Fe  Fe743     1.0  0.55640  0.82586  0.93136  1.0000
  S   S1476     1.0  0.54423  0.84545  0.91521  1.0000
  S   S1477     1.0  0.56771  0.80209  0.92625  1.0000
  Fe  Fe744     1.0  0.55902  0.85953  0.91854  1.0000
  S   S1478     1.0  0.57062  0.87251  0.89557  1.0000
  Fe  Fe745     1.0  0.52802  0.85216  0.93664  1.0000
  H   H4384     1.0  0.68441  0.49896  0.91587  1.0000
  S   S1479     1.0  0.57256  0.83935  0.93323  1.0000
  S   S1480     1.0  0.53866  0.83119  0.95267  1.0000
  Fe  Fe746     1.0  0.56787  0.77242  0.82883  1.0000
  S   S1481     1.0  0.54769  0.76440  0.84667  1.0000
  S   S1482     1.0  0.56065  0.78848  0.80729  1.0000
  Fe  Fe747     1.0  0.59082  0.75402  0.84916  1.0000
  S   S1483     1.0  0.57219  0.74524  0.86881  1.0000
  S   S1484     1.0  0.61516  0.74510  0.85358  1.0000
  Fe  Fe748     1.0  0.56367  0.74100  0.85005  1.0000
  S   S1485     1.0  0.55787  0.71779  0.85353  1.0000
  Fe  Fe749     1.0  0.55799  0.76955  0.86355  1.0000
  S   S1486     1.0  0.54029  0.78361  0.87973  1.0000
  S   S1487     1.0  0.58314  0.74829  0.83064  1.0000
  S   S1488     1.0  0.57734  0.77901  0.84561  1.0000
  Fe  Fe750     1.0  0.66544  0.62796  0.86298  1.0000
  S   S1489     1.0  0.67696  0.64096  0.84003  1.0000
  S   S1490     1.0  0.65879  0.60492  0.86758  1.0000
  Fe  Fe751     1.0  0.66820  0.65013  0.88063  1.0000
  S   S1491     1.0  0.67972  0.66544  0.85939  1.0000
  S   S1492     1.0  0.66141  0.65417  0.90479  1.0000
  Fe  Fe752     1.0  0.66198  0.66243  0.84836  1.0000
  S   S1493     1.0  0.64871  0.68151  0.83239  1.0000
  Fe  Fe753     1.0  0.69378  0.64293  0.85278  1.0000
  S   S1494     1.0  0.72015  0.63795  0.84528  1.0000
  S   S1495     1.0  0.64904  0.64917  0.87023  1.0000
  S   S1496     1.0  0.68362  0.62793  0.87511  1.0000
  Fe  Fe754     1.0  0.87169  0.64283  0.83641  1.0000
  S   S1497     1.0  0.86831  0.61925  0.85051  1.0000
  S   S1498     1.0  0.85619  0.65796  0.82009  1.0000
  Fe  Fe755     1.0  0.90034  0.64045  0.84890  1.0000
  S   S1499     1.0  0.89944  0.61649  0.86345  1.0000
  S   S1500     1.0  0.91928  0.65287  0.84661  1.0000
  Fe  Fe756     1.0  0.89432  0.61206  0.84278  1.0000
  S   S1501     1.0  0.90534  0.59094  0.83257  1.0000
  Fe  Fe757     1.0  0.87354  0.62632  0.86956  1.0000
  S   S1502     1.0  0.85998  0.62090  0.89413  1.0000
  S   S1503     1.0  0.89752  0.63524  0.82758  1.0000
  S   S1504     1.0  0.87470  0.65068  0.85626  1.0000
  N   N367      1.0  0.50797  0.78872  0.85904  1.0000
  S   S1505     1.0  0.96790  0.62683  0.89005  1.0000
  H   H4385     1.0  0.52873  0.74860  0.87765  1.0000
  C   C4384     1.0  0.66932  0.51033  0.93397  1.0000
  H   H4386     1.0  0.73327  0.57138  0.95174  1.0000
  H   H4387     1.0  0.82046  0.65648  0.78964  1.0000
  C   C4385     1.0  0.84922  0.57256  0.79392  1.0000
  C   C4386     1.0  0.66361  0.48975  0.92599  1.0000
  C   C4387     1.0  0.53051  0.74188  0.92231  1.0000
  C   C4388     1.0  0.70115  0.58414  0.88597  1.0000
  C   C4389     1.0  0.98520  0.50192  0.78043  1.0000
  H   H4388     1.0  0.51202  0.89346  0.92647  1.0000
  H   H4389     1.0  0.74835  0.57562  0.97142  1.0000
  C   C4390     1.0  0.59166  0.50516  0.88986  1.0000
  Fe  Fe758     1.0  0.58707  0.55344  0.89299  1.0000
  S   S1506     1.0  0.59972  0.55607  0.86813  1.0000
  S   S1507     1.0  0.60094  0.53951  0.91085  1.0000
  Fe  Fe759     1.0  0.55608  0.57214  0.88500  1.0000
  S   S1508     1.0  0.56623  0.57597  0.85935  1.0000
  S   S1509     1.0  0.53201  0.58383  0.89633  1.0000
  Fe  Fe760     1.0  0.57842  0.55066  0.86481  1.0000
  S   S1510     1.0  0.58348  0.53222  0.85107  1.0000
  Fe  Fe761     1.0  0.58641  0.58093  0.86532  1.0000
  S   S1511     1.0  0.59481  0.60331  0.85392  1.0000
  S   S1512     1.0  0.56662  0.54642  0.89005  1.0000
  S   S1513     1.0  0.57548  0.57865  0.89056  1.0000
  Fe  Fe762     1.0  0.67850  0.57578  0.93729  1.0000
  C   C4391     1.0  0.94436  0.55628  0.78306  1.0000
  S   S1514     1.0  0.69140  0.59436  0.92291  1.0000
  Fe  Fe763     1.0  0.67258  0.54363  0.94171  1.0000
  H   H4390     1.0  0.92368  0.55289  0.77872  1.0000
  S   S1515     1.0  0.68236  0.52202  0.93216  1.0000
  Fe  Fe764     1.0  0.64545  0.57100  0.94533  1.0000
  S   S1516     1.0  0.62147  0.58215  0.94105  1.0000
  H   H4391     1.0  0.53666  0.87382  0.88142  1.0000
  S   S1517     1.0  0.66572  0.56646  0.92562  1.0000
  C   C4392     1.0  0.60379  0.50889  0.89368  1.0000
  H   H4392     1.0  0.65214  0.51897  0.95279  1.0000
  C   C4393     1.0  0.96395  0.58758  0.82661  1.0000
  H   H4393     1.0  0.69623  0.57800  0.89746  1.0000
  H   H4394     1.0  0.54472  0.73160  0.87882  1.0000
  H   H4395     1.0  0.57284  0.90032  0.79666  1.0000
  C   C4394     1.0  0.60731  0.55213  0.91773  1.0000
  C   C4395     1.0  0.62206  0.54769  0.92138  1.0000
  C   C4396     1.0  0.62664  0.55714  0.92816  1.0000
  C   C4397     1.0  0.61643  0.57098  0.93137  1.0000
  C   C4398     1.0  0.60181  0.57556  0.92747  1.0000
  C   C4399     1.0  0.59724  0.56611  0.92068  1.0000
  H   H4396     1.0  0.62991  0.53689  0.91910  1.0000
  H   H4397     1.0  0.63794  0.55348  0.93120  1.0000
  H   H4398     1.0  0.59385  0.58619  0.93006  1.0000
  H   H4399     1.0  0.58563  0.56929  0.91845  1.0000
  C   C4400     1.0  0.55162  0.49786  0.86232  1.0000
  C   C4401     1.0  0.90193  0.58652  0.79110  1.0000
  C   C4402     1.0  0.57669  0.50516  0.85061  1.0000
  C   C4403     1.0  0.57097  0.51920  0.85566  1.0000
  C   C4404     1.0  0.55556  0.52252  0.86418  1.0000
  C   C4405     1.0  0.54583  0.51196  0.86729  1.0000
  H   H4400     1.0  0.58063  0.97524  0.84547  1.0000
  H   H4401     1.0  0.58855  0.50260  0.84391  1.0000
  H   H4402     1.0  0.55102  0.53337  0.86803  1.0000
  H   H4403     1.0  0.53383  0.51471  0.87362  1.0000
  C   C4406     1.0  0.50788  0.62392  0.86277  1.0000
  C   C4407     1.0  0.50418  0.62400  0.87856  1.0000
  C   C4408     1.0  0.51119  0.61134  0.88896  1.0000
  C   C4409     1.0  0.52211  0.59879  0.88351  1.0000
  C   C4410     1.0  0.52546  0.59861  0.86778  1.0000
  C   C4411     1.0  0.51827  0.61110  0.85745  1.0000
  H   H4404     1.0  0.56494  0.49802  0.89093  1.0000
  H   H4405     1.0  0.50850  0.61146  0.90116  1.0000
  H   H4406     1.0  0.53344  0.58875  0.86359  1.0000
  C   C4412     1.0  0.85267  0.59773  0.79228  1.0000
  H   H4407     1.0  0.85765  0.60533  0.79572  1.0000
  C   C4413     1.0  0.60681  0.48430  0.91218  1.0000
  C   C4414     1.0  0.89990  0.59444  0.81483  1.0000
  C   C4415     1.0  0.90595  0.58346  0.80551  1.0000
  H   H4408     1.0  0.93409  0.62079  0.84390  1.0000
  H   H4409     1.0  0.53221  0.64909  0.85230  1.0000
  C   C4416     1.0  0.90942  0.65252  0.89722  1.0000
  C   C4417     1.0  0.88973  0.60838  0.80978  1.0000
  H   H4410     1.0  0.91373  0.57261  0.80944  1.0000
  C   C4418     1.0  0.93930  0.60544  0.82829  1.0000
  H   H4411     1.0  0.88467  0.61678  0.81699  1.0000
  C   C4419     1.0  0.84652  0.64831  0.81281  1.0000
  C   C4420     1.0  0.84665  0.63250  0.81878  1.0000
  C   C4421     1.0  0.83692  0.62551  0.81483  1.0000
  C   C4422     1.0  0.82734  0.63416  0.80447  1.0000
  C   C4423     1.0  0.83737  0.65685  0.80195  1.0000
  H   H4412     1.0  0.85381  0.62573  0.82686  1.0000
  H   H4413     1.0  0.83653  0.61346  0.82014  1.0000
  H   H4414     1.0  0.83731  0.66908  0.79718  1.0000
  C   C4424     1.0  0.93327  0.64436  0.85814  1.0000
  C   C4425     1.0  0.94720  0.64965  0.85397  1.0000
  C   C4426     1.0  0.95819  0.64375  0.86340  1.0000
  C   C4427     1.0  0.95508  0.63286  0.87730  1.0000
  C   C4428     1.0  0.94126  0.62734  0.88137  1.0000
  C   C4429     1.0  0.93050  0.63288  0.87166  1.0000
  H   H4415     1.0  0.94941  0.65850  0.84350  1.0000
  H   H4416     1.0  0.96881  0.64809  0.86022  1.0000
  H   H4417     1.0  0.93887  0.61884  0.89208  1.0000
  H   H4418     1.0  0.91977  0.62875  0.87498  1.0000
  C   C4430     1.0  0.72810  0.64168  0.82513  1.0000
  C   C4431     1.0  0.74441  0.63830  0.81973  1.0000
  C   C4432     1.0  0.75105  0.64107  0.80373  1.0000
  C   C4433     1.0  0.74138  0.64720  0.79303  1.0000
  C   C4434     1.0  0.72508  0.65061  0.79842  1.0000
  C   C4435     1.0  0.71845  0.64788  0.81443  1.0000
  H   H4419     1.0  0.75195  0.63351  0.82793  1.0000
  H   H4420     1.0  0.76363  0.63843  0.79968  1.0000
  H   H4421     1.0  0.71755  0.65539  0.79021  1.0000
  H   H4422     1.0  0.70587  0.65066  0.81845  1.0000
  C   C4436     1.0  0.64102  0.60478  0.86357  1.0000
  C   C4437     1.0  0.63607  0.59071  0.86768  1.0000
  C   C4438     1.0  0.62180  0.59024  0.86499  1.0000
  C   C4439     1.0  0.61253  0.60379  0.85784  1.0000
  C   C4440     1.0  0.61747  0.61790  0.85372  1.0000
  C   C4441     1.0  0.63164  0.61843  0.85668  1.0000
  H   H4423     1.0  0.64323  0.58012  0.87307  1.0000
  H   H4424     1.0  0.61809  0.57932  0.86823  1.0000
  H   H4425     1.0  0.61035  0.62840  0.84817  1.0000
  H   H4426     1.0  0.63540  0.62931  0.85346  1.0000
  C   C4442     1.0  0.62508  0.72768  0.84738  1.0000
  C   C4443     1.0  0.63457  0.71597  0.85637  1.0000
  C   C4444     1.0  0.64197  0.70174  0.85187  1.0000
  C   C4445     1.0  0.64017  0.69934  0.83815  1.0000
  C   C4446     1.0  0.63092  0.71115  0.82903  1.0000
  C   C4447     1.0  0.62333  0.72523  0.83367  1.0000
  H   H4427     1.0  0.63601  0.71782  0.86696  1.0000
  H   H4428     1.0  0.64908  0.69268  0.85898  1.0000
  H   H4429     1.0  0.62959  0.70937  0.81837  1.0000
  H   H4430     1.0  0.61639  0.73432  0.82645  1.0000
  C   C4448     1.0  0.54127  0.71787  0.84730  1.0000
  C   C4449     1.0  0.53132  0.73178  0.84171  1.0000
  C   C4450     1.0  0.51802  0.73137  0.83705  1.0000
  C   C4451     1.0  0.51462  0.71708  0.83802  1.0000
  C   C4452     1.0  0.52482  0.70323  0.84324  1.0000
  C   C4453     1.0  0.53801  0.70361  0.84801  1.0000
  H   H4431     1.0  0.53383  0.74282  0.84093  1.0000
  N   N368      1.0  0.52891  0.73400  0.90009  1.0000
  H   H4432     1.0  0.52282  0.69222  0.84316  1.0000
  H   H4433     1.0  0.54579  0.69283  0.85208  1.0000
  H   H4434     1.0  0.56677  0.55679  0.95497  1.0000
  N   N369      1.0  0.59909  0.52771  0.95120  1.0000
  C   C4454     1.0  0.61134  0.49842  0.90498  1.0000
  C   C4455     1.0  0.52366  0.72976  0.93208  1.0000
  C   C4456     1.0  0.98428  0.51960  0.79541  1.0000
  H   H4435     1.0  0.98979  0.52719  0.79830  1.0000
  H   H4436     1.0  0.60771  0.92507  0.78240  1.0000
  H   H4437     1.0  0.59216  0.81988  0.90935  1.0000
  H   H4438     1.0  0.50745  0.77030  0.83205  1.0000
  H   H4439     1.0  0.51497  0.82988  0.93107  1.0000
  C   C4457     1.0  0.55936  0.79633  0.91430  1.0000
  C   C4458     1.0  0.54503  0.80480  0.91067  1.0000
  C   C4459     1.0  0.53899  0.80050  0.90041  1.0000
  C   C4460     1.0  0.54742  0.78791  0.89353  1.0000
  C   C4461     1.0  0.56160  0.77922  0.89740  1.0000
  C   C4462     1.0  0.56746  0.78332  0.90794  1.0000
  H   H4440     1.0  0.53857  0.81465  0.91578  1.0000
  H   H4441     1.0  0.52791  0.80714  0.89758  1.0000
  H   H4442     1.0  0.56810  0.76942  0.89220  1.0000
  H   H4443     1.0  0.57850  0.77667  0.91082  1.0000
  C   C4463     1.0  0.80816  0.64521  0.90178  1.0000
  C   C4464     1.0  0.81349  0.63193  0.91250  1.0000
  C   C4465     1.0  0.82945  0.62461  0.91017  1.0000
  C   C4466     1.0  0.84010  0.63040  0.89701  1.0000
  C   C4467     1.0  0.83482  0.64373  0.88634  1.0000
  C   C4468     1.0  0.81889  0.65115  0.88875  1.0000
  H   H4444     1.0  0.80534  0.62733  0.92262  1.0000
  H   H4445     1.0  0.83350  0.61432  0.91850  1.0000
  H   H4446     1.0  0.84301  0.64840  0.87629  1.0000
  H   H4447     1.0  0.81484  0.66154  0.88054  1.0000
  C   C4469     1.0  0.73749  0.59213  0.93458  1.0000
  C   C4470     1.0  0.82785  0.64974  0.79767  1.0000
  C   C4471     1.0  0.71469  0.58132  0.93928  1.0000
  C   C4472     1.0  0.70911  0.59326  0.92756  1.0000
  C   C4473     1.0  0.71772  0.60463  0.91936  1.0000
  C   C4474     1.0  0.73182  0.60414  0.92296  1.0000
  C   C4475     1.0  0.51987  0.78849  0.82775  1.0000
  H   H4448     1.0  0.51915  0.71412  0.90467  1.0000
  H   H4449     1.0  0.71342  0.61391  0.91030  1.0000
  H   H4450     1.0  0.73842  0.61292  0.91656  1.0000
  C   C4476     1.0  0.69885  0.65985  0.92586  1.0000
  C   C4477     1.0  0.70326  0.65012  0.91528  1.0000
  C   C4478     1.0  0.69191  0.64826  0.90856  1.0000
  C   C4479     1.0  0.67615  0.65575  0.91283  1.0000
  C   C4480     1.0  0.67181  0.66487  0.92387  1.0000
  C   C4481     1.0  0.68311  0.66709  0.93016  1.0000
  H   H4451     1.0  0.71541  0.64439  0.91197  1.0000
  H   H4452     1.0  0.69529  0.64099  0.90019  1.0000
  H   H4453     1.0  0.65967  0.67059  0.92729  1.0000
  H   H4454     1.0  0.67963  0.67461  0.93831  1.0000
  C   C4482     1.0  0.60765  0.89598  0.79591  1.0000
  C   C4483     1.0  0.58885  0.81892  0.79685  1.0000
  C   C4484     1.0  0.58191  0.80606  0.80393  1.0000
  C   C4485     1.0  0.56911  0.80479  0.79917  1.0000
  C   C4486     1.0  0.56320  0.81650  0.78740  1.0000
  H   H4455     1.0  0.51149  0.78846  0.94444  1.0000
  H   H4456     1.0  0.59891  0.81972  0.80041  1.0000
  H   H4457     1.0  0.58666  0.79698  0.81285  1.0000
  C   C4487     1.0  0.88078  0.65087  0.89355  1.0000
  C   C4488     1.0  0.50430  0.90038  0.91832  1.0000
  C   C4489     1.0  0.54721  0.92382  0.88148  1.0000
  C   C4490     1.0  0.55777  0.91598  0.87040  1.0000
  C   C4491     1.0  0.56521  0.90033  0.87491  1.0000
  C   C4492     1.0  0.56194  0.89239  0.89045  1.0000
  C   C4493     1.0  0.55150  0.90028  0.90155  1.0000
  C   C4494     1.0  0.54424  0.91601  0.89709  1.0000
  H   H4458     1.0  0.56009  0.92189  0.85832  1.0000
  H   H4459     1.0  0.57332  0.89429  0.86628  1.0000
  H   H4460     1.0  0.54911  0.89432  0.91359  1.0000
  H   H4461     1.0  0.53615  0.92206  0.90571  1.0000
  C   C4495     1.0  0.52032  0.94226  0.78429  1.0000
  H   H4462     1.0  0.77100  0.58726  0.96368  1.0000
  C   C4496     1.0  0.51320  0.78591  0.95615  1.0000
  H   H4463     1.0  0.63508  0.50084  0.95603  1.0000
  H   H4464     1.0  0.52536  0.72978  0.87966  1.0000
  C   C4497     1.0  0.51903  0.94976  0.79612  1.0000
  C   C4498     1.0  0.52849  0.89822  0.87201  1.0000
  S   S1518     1.0  0.50236  0.86085  0.93748  1.0000
  H   H4465     1.0  0.53947  0.96810  0.88897  1.0000
  H   H4466     1.0  0.52643  0.94461  0.80440  1.0000
  C   C4499     1.0  0.57364  0.92459  0.79007  1.0000
  H   H4467     1.0  0.51028  0.74208  0.83279  1.0000
  H   H4468     1.0  0.96380  0.49434  0.78386  1.0000
  N   N370      1.0  0.58711  0.49141  0.89714  1.0000
  C   C4500     1.0  0.57333  0.91047  0.78723  1.0000
  C   C4501     1.0  0.71318  0.59166  0.88392  1.0000
  H   H4469     1.0  0.62025  0.52611  0.95777  1.0000
  S   S1519     1.0  0.81380  0.62550  0.80158  1.0000
  H   H4470     1.0  0.83746  0.52205  0.77770  1.0000
  N   N371      1.0  0.51256  0.89975  0.90228  1.0000
  H   H4471     1.0  0.56193  0.96343  0.86723  1.0000
  H   H4472     1.0  0.62070  0.50125  0.90812  1.0000
  H   H4473     1.0  0.68837  0.60582  0.84175  1.0000
  Fe  Fe765     1.0  0.66535  0.55837  0.96914  1.0000
  H   H4474     1.0  0.60693  0.90313  0.80382  1.0000
  H   H4475     1.0  0.93793  0.56284  0.79184  1.0000
  H   H4476     1.0  0.55405  0.87570  0.96720  1.0000
  C   C4502     1.0  0.52112  0.88577  0.89897  1.0000
  C   C4503     1.0  0.50347  0.83423  0.92845  1.0000
  H   H4477     1.0  0.53172  0.80594  0.82733  1.0000
  C   C4504     1.0  0.57461  0.48761  0.89267  1.0000
  H   H4478     1.0  0.52139  0.72829  0.94458  1.0000
  H   H4479     1.0  0.88479  0.66857  0.87251  1.0000
  H   H4480     1.0  0.86505  0.63435  0.91777  1.0000
  C   C4505     1.0  0.56028  0.97334  0.87224  1.0000
  S   S1520     1.0  0.53936  0.48470  0.86633  1.0000
  H   H4481     1.0  0.70440  0.63326  0.95023  1.0000
  H   H4482     1.0  0.88174  0.61900  0.91343  1.0000
  H   H4483     1.0  0.61650  0.51459  0.93618  1.0000
  H   H4484     1.0  0.55538  0.77727  0.95089  1.0000
  C   C4506     1.0  0.51474  0.77064  0.96503  1.0000
  H   H4485     1.0  0.89173  0.51043  0.78405  1.0000
  S   S1521     1.0  0.51324  0.75560  0.95770  1.0000
  N   N372      1.0  0.88653  0.64158  0.90611  1.0000
  C   C4507     1.0  0.53135  0.64321  0.87677  1.0000
  C   C4508     1.0  0.96950  0.50142  0.78721  1.0000
  H   H4486     1.0  0.96208  0.52669  0.81059  1.0000
  C   C4509     1.0  0.53212  0.73609  0.88322  1.0000
  H   H4487     1.0  0.60150  0.87680  0.81450  1.0000
  H   H4488     1.0  0.71774  0.60683  0.84523  1.0000
  H   H4489     1.0  0.53832  0.75333  0.89871  1.0000
  C   C4510     1.0  0.83977  0.57875  0.78302  1.0000
  C   C4511     1.0  0.55351  0.62455  0.84319  1.0000
  N   N373      1.0  0.81424  0.65163  0.84121  1.0000
  C   C4512     1.0  0.80588  0.64296  0.83816  1.0000
  C   C4513     1.0  0.82371  0.64505  0.85161  1.0000
  C   C4514     1.0  0.80704  0.62722  0.84546  1.0000
  C   C4515     1.0  0.82500  0.62939  0.85927  1.0000
  C   C4516     1.0  0.81662  0.62043  0.85614  1.0000
  C   C4517     1.0  0.81246  0.66826  0.83394  1.0000
  H   H4490     1.0  0.79858  0.64806  0.82970  1.0000
  H   H4491     1.0  0.83047  0.65189  0.85388  1.0000
  H   H4492     1.0  0.80075  0.62030  0.84261  1.0000
  H   H4493     1.0  0.83250  0.62423  0.86755  1.0000
  H   H4494     1.0  0.81764  0.60824  0.86191  1.0000
  H   H4495     1.0  0.80326  0.67520  0.84165  1.0000
  H   H4496     1.0  0.82365  0.67200  0.83170  1.0000
  H   H4497     1.0  0.80933  0.67086  0.82250  1.0000
  H   H4498     1.0  0.51892  0.92294  0.86637  1.0000
  C   C4518     1.0  0.57835  0.54985  0.95607  1.0000
  C   C4519     1.0  0.54754  0.97590  0.88461  1.0000
  C   C4520     1.0  0.58302  0.83056  0.78500  1.0000
  H   H4499     1.0  0.52263  0.65358  0.87901  1.0000
  H   H4500     1.0  0.58361  0.56574  0.96637  1.0000
  H   H4501     1.0  0.67710  0.61014  0.95218  1.0000
  H   H4502     1.0  0.52488  0.78814  0.81562  1.0000
  H   H4503     1.0  0.55188  0.60970  0.89555  1.0000
  H   H4504     1.0  0.92818  0.61026  0.82483  1.0000
  H   H4505     1.0  0.60723  0.51989  0.88796  1.0000
  C   C4521     1.0  0.88591  0.61155  0.79534  1.0000
  N   N374      1.0  0.70143  0.59275  0.85871  1.0000
  C   C4522     1.0  0.71317  0.60022  0.85662  1.0000
  C   C4523     1.0  0.69532  0.58486  0.87318  1.0000
  C   C4524     1.0  0.51144  0.91293  0.89071  1.0000
  H   H4506     1.0  0.68573  0.57927  0.87495  1.0000
  H   H4507     1.0  0.95499  0.58978  0.79946  1.0000
  H   H4508     1.0  0.52872  0.93134  0.78354  1.0000
  N   N375      1.0  0.61078  0.90174  0.78021  1.0000
  H   H4509     1.0  0.79053  0.59509  0.97230  1.0000
  H   H4510     1.0  0.55727  0.80018  0.95877  1.0000
  H   H4511     1.0  0.93451  0.59291  0.80863  1.0000
  S   S1522     1.0  0.50728  0.97413  0.81104  1.0000
  H   H4512     1.0  0.90669  0.57808  0.78390  1.0000
  H   H4513     1.0  0.92087  0.65272  0.89847  1.0000
  N   N376      1.0  0.85539  0.58208  0.79854  1.0000
  S   S1523     1.0  0.53115  0.97624  0.83944  1.0000
  C   C4525     1.0  0.58776  0.55485  0.96249  1.0000
  C   C4526     1.0  0.69508  0.59378  0.84537  1.0000
  C   C4527     1.0  0.52369  0.79854  0.83434  1.0000
  H   H4514     1.0  0.56585  0.62591  0.83885  1.0000
  C   C4528     1.0  0.86544  0.57532  0.80980  1.0000
  H   H4515     1.0  0.58943  0.83948  0.89783  1.0000
  H   H4516     1.0  0.53516  0.89778  0.86029  1.0000
  S   S1524     1.0  0.75480  0.59185  0.93953  1.0000
  C   C4529     1.0  0.96117  0.51023  0.79825  1.0000
  H   H4517     1.0  0.68673  0.57211  0.97362  1.0000
  H   H4518     1.0  0.86000  0.56703  0.81979  1.0000
  H   H4519     1.0  0.87703  0.56913  0.80414  1.0000
  H   H4520     1.0  0.86744  0.58442  0.81447  1.0000
  C   C4530     1.0  0.95682  0.60534  0.84377  1.0000
  H   H4521     1.0  0.54626  0.63263  0.83508  1.0000
  C   C4531     1.0  0.51417  0.79789  0.96236  1.0000
  H   H4522     1.0  0.97869  0.58842  0.84107  1.0000
  H   H4523     1.0  0.70807  0.57258  0.94573  1.0000
  H   H4524     1.0  0.71762  0.59136  0.89382  1.0000
  Fe  Fe766     1.0  0.55525  0.97703  0.82495  1.0000
  N   N377      1.0  0.68834  0.61919  0.96414  1.0000
  H   H4525     1.0  0.70468  0.59070  0.83549  1.0000
  H   H4526     1.0  0.90558  0.63439  0.91757  1.0000
  H   H4527     1.0  0.98742  0.59473  0.93350  1.0000
  C   C4532     1.0  0.72897  0.58065  0.94268  1.0000
  H   H4528     1.0  0.72832  0.60602  0.86747  1.0000
  C   C4533     1.0  0.96067  0.55388  0.77875  1.0000
  C   C4534     1.0  0.64553  0.50087  0.94691  1.0000
  C   C4535     1.0  0.89189  0.60058  0.78604  1.0000
  C   C4536     1.0  0.84361  0.60422  0.78112  1.0000
  C   C4537     1.0  0.51771  0.79841  0.85014  1.0000
  H   H4529     1.0  0.60689  0.82545  0.89233  1.0000
  H   H4530     1.0  0.59729  0.51185  0.93877  1.0000
  H   H4531     1.0  0.53359  0.74987  0.92716  1.0000
  C   C4538     1.0  0.57013  0.82938  0.78033  1.0000
  C   C4539     1.0  0.49321  0.72603  0.88387  1.0000
  H   H4532     1.0  0.50068  0.91248  0.92013  1.0000
  H   H4533     1.0  0.54381  0.96167  0.77780  1.0000
  C   C4540     1.0  0.55329  0.61654  0.87087  1.0000
  C   C4541     1.0  0.53688  0.64061  0.86170  1.0000
  H   H4534     1.0  0.52099  0.61092  0.84527  1.0000
  H   H4535     1.0  0.91047  0.66978  0.87571  1.0000
  S   S1525     1.0  0.68749  0.55244  0.95160  1.0000
  N   N378      1.0  0.64192  0.61249  0.90622  1.0000
  C   C4542     1.0  0.63690  0.60053  0.90436  1.0000
  C   C4543     1.0  0.63269  0.62719  0.90473  1.0000
  C   C4544     1.0  0.62246  0.60320  0.90046  1.0000
  C   C4545     1.0  0.61825  0.63032  0.90064  1.0000
  C   C4546     1.0  0.61318  0.61823  0.89841  1.0000
  C   C4547     1.0  0.65707  0.60933  0.91038  1.0000
  H   H4536     1.0  0.64411  0.58883  0.90572  1.0000
  H   H4537     1.0  0.63657  0.63663  0.90649  1.0000
  H   H4538     1.0  0.61865  0.59367  0.89883  1.0000
  H   H4539     1.0  0.61110  0.64205  0.89917  1.0000
  H   H4540     1.0  0.60213  0.62043  0.89505  1.0000
  H   H4541     1.0  0.66112  0.62019  0.90872  1.0000
  H   H4542     1.0  0.65618  0.60319  0.92272  1.0000
  H   H4543     1.0  0.66622  0.60201  0.90297  1.0000
  C   C4548     1.0  0.94650  0.58751  0.81069  1.0000
  C   C4549     1.0  0.57433  0.93767  0.77781  1.0000
  H   H4544     1.0  0.49337  0.70562  0.87659  1.0000
  H   H4545     1.0  0.97238  0.57825  0.82171  1.0000
  C   C4550     1.0  0.60537  0.51360  0.94490  1.0000
  C   C4551     1.0  0.88919  0.66134  0.88260  1.0000
  C   C4552     1.0  0.49876  0.97047  0.78630  1.0000
  H   H4546     1.0  0.50935  0.77831  0.88233  1.0000
  C   C4553     1.0  0.67695  0.61271  0.96307  1.0000
  H   H4547     1.0  0.86972  0.65008  0.89186  1.0000
  H   H4548     1.0  0.53221  0.63371  0.90083  1.0000
  H   H4549     1.0  0.60235  0.86046  0.79650  1.0000
  C   C4554     1.0  0.51017  0.77843  0.83699  1.0000
  C   C4555     1.0  0.64959  0.49039  0.93717  1.0000
  C   C4556     1.0  0.96857  0.51941  0.80239  1.0000
  N   N379      1.0  0.71198  0.68040  0.88986  1.0000
  C   C4557     1.0  0.70691  0.67566  0.87962  1.0000
  C   C4558     1.0  0.72684  0.67424  0.89231  1.0000
  C   C4559     1.0  0.71672  0.66426  0.87173  1.0000
  C   C4560     1.0  0.73696  0.66282  0.88458  1.0000
  C   C4561     1.0  0.73181  0.65778  0.87428  1.0000
  C   C4562     1.0  0.70155  0.69257  0.89775  1.0000
  H   H4550     1.0  0.69512  0.68049  0.87770  1.0000
  H   H4551     1.0  0.73084  0.67788  0.90054  1.0000
  H   H4552     1.0  0.71264  0.66042  0.86372  1.0000
  H   H4553     1.0  0.74867  0.65786  0.88671  1.0000
  H   H4554     1.0  0.73942  0.64884  0.86826  1.0000
  H   H4555     1.0  0.70177  0.70420  0.88991  1.0000
  H   H4556     1.0  0.68935  0.69079  0.90138  1.0000
  H   H4557     1.0  0.70505  0.69225  0.90852  1.0000
  H   H4558     1.0  0.52178  0.87533  0.90814  1.0000
  H   H4559     1.0  0.68693  0.58584  0.84821  1.0000
  S   S1526     1.0  0.50004  0.63978  0.84927  1.0000
  C   C4563     1.0  0.60500  0.87195  0.79199  1.0000
  H   H4560     1.0  0.49377  0.89534  0.92138  1.0000
  S   S1527     1.0  0.65750  0.58242  0.95564  1.0000
  H   H4561     1.0  0.52119  0.80583  0.85532  1.0000
  C   C4564     1.0  0.56711  0.49446  0.85405  1.0000
  H   H4562     1.0  0.56182  0.60608  0.86865  1.0000
  S   S1528     1.0  0.65115  0.54740  0.96064  1.0000
  C   C4565     1.0  0.70101  0.62237  0.95068  1.0000
  C   C4566     1.0  0.53308  0.74383  0.90624  1.0000
  S   S1529     1.0  0.73751  0.62825  0.95541  1.0000
  H   H4563     1.0  0.87967  0.62835  0.92908  1.0000
  H   H4564     1.0  0.61046  0.55024  0.96771  1.0000
  N   N380      1.0  0.60108  0.69489  0.84760  1.0000
  C   C4567     1.0  0.61081  0.68048  0.85013  1.0000
  C   C4568     1.0  0.59486  0.70012  0.83467  1.0000
  C   C4569     1.0  0.61480  0.67104  0.83940  1.0000
  C   C4570     1.0  0.59860  0.69098  0.82370  1.0000
  C   C4571     1.0  0.60871  0.67637  0.82607  1.0000
  C   C4572     1.0  0.59677  0.70448  0.85914  1.0000
  H   H4565     1.0  0.61605  0.67646  0.86017  1.0000
  H   H4566     1.0  0.58708  0.71149  0.83269  1.0000
  H   H4567     1.0  0.62307  0.65992  0.84112  1.0000
  H   H4568     1.0  0.59376  0.69527  0.81340  1.0000
  H   H4569     1.0  0.61198  0.66928  0.81752  1.0000
  H   H4570     1.0  0.60639  0.70237  0.86519  1.0000
  H   H4571     1.0  0.59448  0.71708  0.85353  1.0000
  H   H4572     1.0  0.58599  0.70196  0.86771  1.0000
  C   C4573     1.0  0.90359  0.66212  0.88446  1.0000
  C   C4574     1.0  0.53679  0.63208  0.88904  1.0000
  H   H4573     1.0  0.87807  0.62243  0.79153  1.0000
  C   C4575     1.0  0.69976  0.49131  0.95970  1.0000
  H   H4574     1.0  0.85166  0.56008  0.79855  1.0000
  N   N381      1.0  0.54764  0.62731  0.85896  1.0000
  N   N382      1.0  0.94992  0.59363  0.82221  1.0000
  H   H4575     1.0  0.71137  0.61256  0.95135  1.0000
  H   H4576     1.0  0.57492  0.94853  0.77986  1.0000
  C   C4576     1.0  0.51954  0.71973  0.92571  1.0000
  C   C4577     1.0  0.52242  0.72193  0.90957  1.0000
  H   H4577     1.0  0.51400  0.71040  0.93318  1.0000
  H   H4578     1.0  0.94727  0.57475  0.81475  1.0000
  C   C4578     1.0  0.96760  0.59331  0.83749  1.0000
  H   H4579     1.0  0.95946  0.60991  0.85223  1.0000
  H   H4580     1.0  0.58587  0.51337  0.88106  1.0000
  C   C4579     1.0  0.65528  0.51098  0.94520  1.0000
  C   C4580     1.0  0.51934  0.91235  0.87540  1.0000
  H   H4581     1.0  0.60758  0.50315  0.95431  1.0000
  C   C4581     1.0  0.71923  0.59979  0.86917  1.0000
  C   C4582     1.0  0.54785  0.61866  0.88609  1.0000
  H   H4582     1.0  0.50483  0.92409  0.89328  1.0000
  C   C4583     1.0  0.52937  0.88481  0.88384  1.0000
  C   C4584     1.0  0.60454  0.88108  0.80204  1.0000
  H   H4583     1.0  0.49609  0.63385  0.88275  1.0000
  C   C4585     1.0  0.58424  0.53618  0.95043  1.0000
  S   S1530     1.0  0.50216  0.77691  0.91670  1.0000
  S   S1531     1.0  0.97046  0.56196  0.78742  1.0000
  H   H4584     1.0  0.51320  0.80964  0.95546  1.0000
  C   C4586     1.0  0.60284  0.54611  0.96330  1.0000
  C   C4587     1.0  0.55673  0.78939  0.96733  1.0000
  H   H4585     1.0  0.57709  0.53273  0.94488  1.0000
  S   S1532     1.0  0.50034  0.67690  0.86275  1.0000
  C   C4588     1.0  0.60832  0.53247  0.95762  1.0000
  H   H4586     1.0  0.94893  0.51010  0.80341  1.0000
  C   C4589     1.0  0.50835  0.96398  0.79703  1.0000
  C   C4590     1.0  0.67352  0.49958  0.92451  1.0000
  C   C4591     1.0  0.87787  0.63027  0.91717  1.0000
  H   H4587     1.0  0.59382  0.97223  0.85808  1.0000
  N   N383      1.0  0.58647  0.82213  0.88792  1.0000
  C   C4592     1.0  0.57333  0.83163  0.88324  1.0000
  C   C4593     1.0  0.59236  0.80782  0.88429  1.0000
  C   C4594     1.0  0.56570  0.82680  0.87473  1.0000
  C   C4595     1.0  0.58524  0.80278  0.87550  1.0000
  C   C4596     1.0  0.57174  0.81229  0.87083  1.0000
  C   C4597     1.0  0.59411  0.82700  0.89730  1.0000
  H   H4588     1.0  0.56863  0.84295  0.88618  1.0000
  H   H4589     1.0  0.60250  0.80011  0.88840  1.0000
  H   H4590     1.0  0.55506  0.83416  0.87137  1.0000
  H   H4591     1.0  0.58983  0.79133  0.87279  1.0000
  H   H4592     1.0  0.50267  0.79915  0.87862  1.0000
  H   H4593     1.0  0.78280  0.64692  0.96929  1.0000
  C   C4598     1.0  0.55579  0.77639  0.96279  1.0000
  H   H4594     1.0  0.69659  0.48862  0.95035  1.0000
  H   H4595     1.0  0.55332  0.81555  0.78365  1.0000
  H   H4596     1.0  0.57932  0.48346  0.88168  1.0000
  H   H4597     1.0  0.84161  0.61664  0.77628  1.0000
  C   C4599     1.0  0.83698  0.59470  0.77658  1.0000
  H   H4598     1.0  0.67858  0.50850  0.96431  1.0000
  H   H4599     1.0  0.57158  0.48379  0.84989  1.0000
  H   H4600     1.0  0.50347  0.81328  0.92194  1.0000
  H   H4601     1.0  0.83487  0.57119  0.77939  1.0000
  Fe  Fe767     1.0  0.80495  0.63532  0.77954  1.0000
  H   H4602     1.0  0.49812  0.73188  0.87228  1.0000
  H   H4603     1.0  0.98629  0.63215  0.91081  1.0000
  S   S1533     1.0  0.49766  0.71666  0.83267  1.0000
  C   C4600     1.0  0.93629  0.55068  0.77560  1.0000
  C   C4601     1.0  0.50437  0.77863  0.85274  1.0000
  H   H4604     1.0  0.98625  0.60600  0.91430  1.0000
  H   H4605     1.0  0.73503  0.59386  0.97417  1.0000
  S   S1534     1.0  0.49353  0.75184  0.89301  1.0000
  C   C4602     1.0  0.58370  0.98033  0.85358  1.0000
  H   H4606     1.0  0.55396  0.75240  0.97042  1.0000
  C   C4603     1.0  0.68968  0.50266  0.96752  1.0000
  N   N384      1.0  0.99244  0.51074  0.78476  1.0000
  C   C4604     1.0  0.71405  0.48373  0.96380  1.0000
  C   C4605     1.0  0.49696  0.82483  0.92334  1.0000
  S   S1535     1.0  0.79040  0.62139  0.77543  1.0000
  C   C4606     1.0  0.49492  0.84910  0.93047  1.0000
  H   H4607     1.0  0.49713  0.77053  0.85997  1.0000
  Fe  Fe768     1.0  0.49652  0.76532  0.94191  1.0000
  H   H4608     1.0  0.49492  0.83206  0.96643  1.0000
  C   C4607     1.0  0.55505  0.76245  0.97375  1.0000
  C   C4608     1.0  0.60870  0.87774  0.77601  1.0000
  S   S1536     1.0  0.59268  0.84589  0.77553  1.0000
