data_image0
_chemical_formula_structural       FeSFeS2FeSFeSHCH2C2SCSCSHCFeSNFeS2FeHFeS3H3NHSC3FeS2FeS2FeSFeS3CHCHNHSC2HC6H4C6H4CH3CH3NC2H2CH4C7H7C2HC2HFeC5SH3C4HCHC6H4C6H3C4HCFeH4CSH2SH3CHCH2FeHCHCHSHC2HC2HCSCHN2CH4C2H4NH2CH2C3H9FeHCHCH2C2SCHC4HNHCHCFeCHFeH2CNC2HS2H2CH4S2C4HCFeCNH2S2HCH2CH2S2HCHFeCH2CHFeCHCSH2C2HSH2CH2FeS2FeS2FeSFeS3CHS2HCSFeSH2FeS2FeS2FeSFeS3FeSCFeS2FeSFeS4CHFeS2FeS2FeSFeS4FeS2FeS2FeS2FeS2C6H2C6SH2C6H5C3H3CHCHC3HNC9H4C4H2C6H4C6H4CHC2HC2H2CHC7H4C6H4C6H4C6H3C2HCHC3HCHSCHNC6H8C2H4C2H2FeH3SH3CNC6H8NC6H5CHC2HC5H3NCHCFeHCH5NH3C2HC4HCHSC2H3C7H4NH3N2H2FeC2HC2HCH5NH3C5H2CH4CH2C2H2C2HCFeCH2SNCS2C2HNCFeHCSH3CHCSHCHNC2HCH2NHCH2CH9SC2SCHCFe2H2CFeC3SFeCH3SCHCHSFeS2C2FeSH2SH2NCHC2HC2H2FeS2FeS2FeSFeS3NCFeS2HFeS2FeS2FeSFeS3CS3CNCH2CHCSCSH2C6H4C6H4C6HCHCNHC3NC2H3C4H3CHC4FeCSHC6H4C7H7C2HNC8HC2H2C4H3CHC5H7C2NC6H4FeH3CH2C3HCHC2H2CSNC2HC2HCH2C2HC2FeHSH2CSCFeCFeH2SH3CHNCH2CHNSHCFeC3HCHFeS2HSCH2CSHNC4H2C2HCNS2C3H2CH2CH2CH2C3SH2CFeCHS2H2SH2CH2CNH3CSFeHCSFeSCFeSCH2CH2SCSHCSFeHFeCSC3H5CHCH5CSHCHC3H3C2HC2HSH3CH2SH4CH2C2H2SHCH2CHNH2CHCH2CHNSH2C4HCH5CH2C2FeHCH2CHCFeNHCFeHCH2CHCSHCS2C2HCH2CFeS2FeCHSFeS2FeS2FeSFeS3CSH3SFeHCFeS2FeS2FeSFeS3FeS2FeH2SFeHSH2NSH2CNHFeHCHFeCSH3S2NHCFeHC10H2C6H2CH2SHC6H4C6H4C6HCH2C5H4CHFeHFeC7H3S2NC2SHC2FeCHSH4C6H8C2H4CHNCHC2HNC6H8C4H4NC6H6C2NH2CHSHCHSCHSHSHC4HCHSCHFeHC2NC4FeH2CFeSFeCSCHCH3C2NC2H4SHCHSC2H3C2FeSHCH2C3FeC4HC2HC2H2C2SCHCSCNFeHCHSH2NHC2SCHCH2CH2C4NSH3C2FeC4H2CSH3S2H5SHC2H2CH4CHCH2FeSHC5SCSHFeCFeCSCHCHS2H2Fe2HFeS2FeSCS2FeS2FeS2FeSFeS3Fe2S2FeSFeS2C2H3C2SH3CSFeS2FeSFeS3CH4CFeHCFeS2FeS2H2C6H4C2SH4C2HC2H2C3HC6H6C7H4C6H4C6H4C7H4C6H4CHC2H3CSNC6H4CH3NC5H4CH2C2SH2NC6H6SC4HSC2H2FeH3N2H2CH2CNC4H4NC6H8NC2HC2SCHCFeHSC2H2SCH3C2H2CH2CHSHCHC5H3CSFeSH5C6HNCH2SCH5NSH2C3H3SH2C3HCNCH2C2H2SNHC3SCHC2HC2H3SC2SHCH2CH2FeCHCNFeCH2C2FeS2C2S2CFeS2CSHFeSCSH2C2FeSCFeS2FeSFeS3CHCH3FeS2FeCFeHFeCS2HC2HC3HNC6H4C6H2CH5CNCNHC6H2CHCHC5H2CH5S2HCSC2HNH2CH5C6H4CSC2HCHNHC4H2C2FeHCSHNC2HSHSH2CHSH6C2HCH3CH2CHCH5FeH3CH2N2HC3HCHS2CSFeSCFeS2FeCFeS3FeS2FeS2FeSFeS3FeS2FeSCFeSFeS3FeS2CHS2Fe2S2FeS2FeCFeS3C3H3C2FeCHCFeS4FeS2HSCSCHNFeC6H4CHCHCHSCHCSHC4H2C6H4C3SC2HCHC6H4C6H4C6H4C6H4C6H6CNSC2HC7H4C6H4CFeC5HCHSH3NC6H8SHCH6SNC4HCH2CH5NC6H8NC6H10C2HCSNH5NC2NC6H10SH3NCFeSFeC3Fe2H2C3HS2CSNCHSC3H2CHC2HCH4C3HCHNH2NFeH7CH2C2H3C5HC3FeHCFeHCSHCHC2HCH2NH3CH3CSNCHCHCSCSFeHCHCSH3CHSH5CH3C2H6CHSHCHCHC3FeNCH2FeCHSHCHFeS2H3SH2CSCH3CHCSC2HCSH3NH2NFeH3C8H4CS2CHNCSH2CH2CHFeNC4HC2HSH2C6H4C2SHCH2C2SHCH2FeHNH2SCH2CHC2S2CHC3HNFeHC2H3C2HSH2CHC3H5FeC3H3SC2H2CHCFeS2HC2HFeCFeS2HSHCS2HFeSHFeSFeS2FeHSCHC2HSFeS2FeSHFeSFeS3H2FeS2HSCFeSFeS3CHFeS2H2CHNHNHCSCFeHC6H6CSH4CH3C8H2CHC6H5SC3HCH2C3H2FeNSH2C6H3CSC6H2CHC6H7CNS3HC2HC5H2FeCHCH2SCHC3H2SHNCHSH3CHCH2C2NCFeCHCFeH3C2H2SNCH5CSH2CSNCFeHCH3CFeCSCHCSH2C4HSC2NCH2C2SCHCNCNH2SCFeH3CFeHCFeCFeC3HC4HNFeHCHSFeHSH5CH8CHCHCHC2H2FeS2FeSHFeSFeS2FeS2FeS2FeCFeS3FeS2FeS2FeSFeHS2FeS2FeS2FeSFeS3CHCHCFeS2FeS2HFeS3HC2HCSHFeHFeS2HFeSCSC2SCHNCHC7H5C5H3FeHC8H2C6HC6H4C7H4C6H4C3SH2SHSCHCH2FeHNC4HCHC9H5C6H2C5HC2HFeSCS2NC4HCSHCH7NHC3H6NC6H8NC6H8NC5H5NH4SC4H6S2NSHCHCHFeH2C3HC2H2C2H2SCHCH2CHCHSHFeSCHC2HCH2CNHCH4CHCSC2H4NH3CNHCHNCHSCHC2SFeHFeHC3FeHSHSH2CHC2FeCH3CH2C4SH2FeHSH2CHC2H4NCH2C2HC2H4CHCHNC2SH3C2HCHFeS2FeS2FeSFeS3CSHFeSFeH2C2HC3SCH2NHCFe2SNH3S2FeS2FeS2FeSFeS3FeS2FeS2FeHFeCS2H3SC2HCHC3H3S2C6H4C7H4C7H4C3SH2CH2C4H2C2HCH4C2N2SC2H4CFeSHC6H4C3H5CH2C5H4C3H2CHCHC2HC2H2CH2CH2FeCH2FeHNCHCH2NH2NC6H9C3SCH2CH2C3HC4FeHSFeCHC3HCHNH3SC2HCHC3H3S2H2CHSC2H3CHCNHCH2CHC2HCHSC3SHC2HCSH2NCHFeH3CHC3HC2HSCH3C4HC3HFe2S2FeSHFeSFeS3FeSHFeS2FeSFeHS3CHNSCFeS2FeS2FeSFeS3H2CHC4HC3H3SHCSC2H3SCH3FeCHCH4CHC6HNH2C6H4NC3H4FeC7H4CHC4H4CHCHNHCFeCHCH2CH2C7H4CH2C2HC2H2CH2C5H2NC2H4FeCFeSFeHCH2CHNC4H5CSCHS2CSC2H2CNH2NH2CH3CHCHSNCHCHCH2NC3HCHC2H2SH2SC6SCHCH2CHC2HC2H2CHC2S2HC2H6SCHCHFeH2CH3S2FeSCHSHCNC4H2CNC2FeHFeS2FeSFe2S3FeS2FeS2FeSFeS4HC2HSC3HC2H2NHC6H4C5HSH3C6H3FeC2NHSC4NSCSH2CFeCS2CHC3H4CHFeCHCSC6H4CHSCH2CHC2H2CHNC5HCH5C2NCHC2HCH5C2SH6CH2CFeCH2C3SC2NC2H3C2FeCHC2SHCHCFeCSCSH2NH5SCHSCH3C4H2NHCHCH2CHC2H2CHFeH2CH2C2HC2H2C2H4CHCHC2H5CHS2CFeCHS2HC2HCHCSHCHCFe2S2FeS3FeSHFeS2FeCFeS4FeSCFeS2FeSFeS3FeS2FeS2FeSFeS3FeSHSFeH2C3H2C4H2C6HCH2C6H4C6H4C6H4C3H2SH2C2H2CHNH2NHCHSHFeHSHC2FeNHC4SHFeCHCHC6H4CHSC3H4CH2C7H4FeH2C3NCNC6HFeHSH4C3HCH4SHSH3NC3NSH3SN2HSHSC3NC7H7C2SCSH2C3SCS2CHC3NC6H8NC2NH2CHCH4C2HCH4NH2C2H2C5H2CFeCHC2HC2FeC3SHCHC2HSHSHSHFeCFeSC2HC2H6CHSCHSFeH2CH2FeHC2H5CHCFeCSC2SNHCSH3SCHCSCHFeHNH3SC3H4SC2SH4C2HCH3C3HC2H3CH2SCHCH2SHC4SFeCFeNSFeSFeSHS2C2SCHNH2FeSCSFeSHCSHFeSFeSHSFeS2FeS2FeSFeS3FeCSNCHCH2FeS2FeS2FeCFeS3C7HCH2C2HCHCHCH2SHCHFeC7H5C6SH3C6H4C6H6C2H2C2H2C2HC3SH4C6H4CNFeSHNH2C3HC3H3CFe2C2HNHCHCH3NCHCNCHCH2C6SCH3CFeCS2CHSCH2CHCHC2HCSHCH4C2H2C2HCH5SHCSC2NC6H8NC2H3CHC2HNH3CHSCHCH3C7H7CH2C4H2C6HFeH2C3H2SH2CNSFeS2HCH2CH2C3H3CH3CH2CSHCFeC2SH2CHCNHCFeHSH2SCH2CHC2H2CSH2C2H2CHS2CSFeS2FeS2Fe2S3FeHSHCHFe2S2FeS2FeSFeS3C2HFeS2FeSCHSFe2S2FeS2FeS2HCSHCH4NH2C6H4C6H4C6H4CFeH2FeNC8H4SC6H4C6HCH2C6H4C4H4CH2FeH2CHNHC2FeH4CHC3HCHCH6CHC3SHCHNC4HCHNC6H6CHCFeCHCHC2SC4H2NH3C2HCH2CNCH2CSHC2HC3H2C3HCH7CNH3CHSNSCHCHFeCH2C2SH2CHCH2CSH2S2HC2SC2HC2HCH2SFeCNFeHSH2S
_chemical_formula_sum              "Fe384 S768 H2304 C2304 N192"
_cell_length_a       80.5658
_cell_length_b       81.3185
_cell_length_c       81.4005
_cell_angle_alpha    75.4372
_cell_angle_beta     75.484
_cell_angle_gamma    75.5178

_space_group_name_H-M_alt    "P 1"
_space_group_IT_number       1

loop_
  _space_group_symop_operation_xyz
  'x, y, z'

loop_
  _atom_site_type_symbol
  _atom_site_label
  _atom_site_symmetry_multiplicity
  _atom_site_fract_x
  _atom_site_fract_y
  _atom_site_fract_z
  _atom_site_occupancy
  Fe  Fe1       1.0  0.06281  0.31280  0.83041  1.0000
  S   S1        1.0  0.09772  0.99913  0.75584  1.0000
  Fe  Fe2       1.0  0.08500  0.02689  0.74580  1.0000
  S   S2        1.0  0.10126  0.03857  0.75663  1.0000
  S   S3        1.0  0.05611  0.03847  0.74597  1.0000
  Fe  Fe3       1.0  0.11952  0.03777  0.73103  1.0000
  S   S4        1.0  0.12961  0.06137  0.71542  1.0000
  Fe  Fe4       1.0  0.11560  0.01119  0.76446  1.0000
  S   S5        1.0  0.10273  0.02761  0.71945  1.0000
  H   H1        1.0  0.00575  0.28731  0.72661  1.0000
  C   C1        1.0  0.17432  0.00725  0.80037  1.0000
  H   H2        1.0  0.24336  0.98833  0.55025  1.0000
  H   H3        1.0  0.15139  0.01605  0.76803  1.0000
  C   C2        1.0  0.19005  0.19831  0.68899  1.0000
  C   C3        1.0  0.05418  0.09576  0.72098  1.0000
  S   S6        1.0  0.13538  0.01161  0.73961  1.0000
  C   C4        1.0  0.23289  0.06276  0.84293  1.0000
  S   S7        1.0  0.02759  0.24882  0.61123  1.0000
  C   C5        1.0  0.11935  0.15869  0.70705  1.0000
  S   S8        1.0  0.19393  0.01080  0.80357  1.0000
  H   H4        1.0  0.06298  0.27563  0.82173  1.0000
  C   C6        1.0  0.05126  0.20569  0.64456  1.0000
  Fe  Fe5       1.0  0.22856  0.09313  0.68698  1.0000
  S   S9        1.0  0.23208  0.08930  0.71428  1.0000
  N   N1        1.0  0.23775  0.01025  0.56228  1.0000
  Fe  Fe6       1.0  0.19862  0.12459  0.69123  1.0000
  S   S10       1.0  0.19995  0.12301  0.71878  1.0000
  S   S11       1.0  0.17879  0.14502  0.67794  1.0000
  Fe  Fe7       1.0  0.22898  0.11813  0.70909  1.0000
  H   H5        1.0  0.04297  0.28811  0.78991  1.0000
  Fe  Fe8       1.0  0.20280  0.09445  0.72103  1.0000
  S   S12       1.0  0.18849  0.07774  0.74365  1.0000
  S   S13       1.0  0.22764  0.12180  0.68117  1.0000
  S   S14       1.0  0.19948  0.09614  0.69407  1.0000
  H   H6        1.0  0.17896  0.01993  0.77347  1.0000
  H   H7        1.0  0.13459  0.14793  0.74395  1.0000
  H   H8        1.0  0.21066  0.16572  0.66740  1.0000
  N   N2        1.0  0.04779  0.19977  0.66212  1.0000
  H   H9        1.0  0.03012  0.18873  0.68394  1.0000
  S   S15       1.0  0.22886  0.99790  0.65080  1.0000
  C   C7        1.0  0.00661  0.29540  0.83521  1.0000
  C   C8        1.0  0.04329  0.28874  0.69937  1.0000
  C   C9        1.0  0.00688  0.12238  0.81034  1.0000
  Fe  Fe9       1.0  0.07452  0.21135  0.71292  1.0000
  S   S16       1.0  0.08759  0.21955  0.72990  1.0000
  S   S17       1.0  0.06601  0.18580  0.72106  1.0000
  Fe  Fe10      1.0  0.08364  0.23958  0.68227  1.0000
  S   S18       1.0  0.09833  0.25000  0.69631  1.0000
  S   S19       1.0  0.08259  0.25076  0.65423  1.0000
  Fe  Fe11      1.0  0.10924  0.22192  0.70644  1.0000
  S   S20       1.0  0.13635  0.20942  0.71153  1.0000
  Fe  Fe12      1.0  0.07560  0.24674  0.71854  1.0000
  S   S21       1.0  0.06105  0.26753  0.73393  1.0000
  S   S22       1.0  0.09685  0.21197  0.69023  1.0000
  S   S23       1.0  0.06014  0.23828  0.70367  1.0000
  C   C10       1.0  0.21772  0.17025  0.72039  1.0000
  H   H10       1.0  0.06263  0.21146  0.63830  1.0000
  C   C11       1.0  0.05815  0.10662  0.72972  1.0000
  H   H11       1.0  0.02481  0.29280  0.72969  1.0000
  N   N3        1.0  0.20990  0.17694  0.70497  1.0000
  H   H12       1.0  0.04832  0.24412  0.83101  1.0000
  S   S24       1.0  0.22411  0.04142  0.62065  1.0000
  C   C12       1.0  0.03817  0.27702  0.79846  1.0000
  C   C13       1.0  0.21476  0.16767  0.69204  1.0000
  H   H13       1.0  0.07051  0.27698  0.79870  1.0000
  C   C14       1.0  0.08900  0.28976  0.76342  1.0000
  C   C15       1.0  0.09833  0.27668  0.75427  1.0000
  C   C16       1.0  0.08990  0.26971  0.74521  1.0000
  C   C17       1.0  0.07207  0.27585  0.74520  1.0000
  C   C18       1.0  0.06276  0.28907  0.75420  1.0000
  C   C19       1.0  0.07118  0.29600  0.76329  1.0000
  H   H14       1.0  0.11214  0.27189  0.75419  1.0000
  H   H15       1.0  0.09720  0.25957  0.73826  1.0000
  H   H16       1.0  0.04899  0.29405  0.75406  1.0000
  H   H17       1.0  0.06397  0.30645  0.76982  1.0000
  C   C20       1.0  0.16644  0.16241  0.68786  1.0000
  C   C21       1.0  0.15444  0.17518  0.67932  1.0000
  C   C22       1.0  0.14474  0.18943  0.68670  1.0000
  C   C23       1.0  0.14713  0.19107  0.70260  1.0000
  C   C24       1.0  0.15895  0.17822  0.71125  1.0000
  C   C25       1.0  0.16852  0.16392  0.70394  1.0000
  H   H18       1.0  0.15280  0.17416  0.66684  1.0000
  H   H19       1.0  0.13586  0.19944  0.67979  1.0000
  H   H20       1.0  0.16087  0.17945  0.72354  1.0000
  H   H21       1.0  0.17772  0.15430  0.71062  1.0000
  C   C26       1.0  0.00124  0.27988  0.84416  1.0000
  H   H22       1.0  0.06931  0.05659  0.71061  1.0000
  H   H23       1.0  0.99877  0.30470  0.82666  1.0000
  H   H24       1.0  0.15561  0.99558  0.65900  1.0000
  C   C27       1.0  0.17493  0.01638  0.66058  1.0000
  H   H25       1.0  0.06321  0.29260  0.67615  1.0000
  H   H26       1.0  0.22467  0.12276  0.74697  1.0000
  H   H27       1.0  0.22712  0.12200  0.77700  1.0000
  N   N4        1.0  0.16170  0.01110  0.67359  1.0000
  C   C28       1.0  0.22477  0.07231  0.65260  1.0000
  C   C29       1.0  0.21986  0.06519  0.64089  1.0000
  H   H28       1.0  0.22088  0.99518  0.55942  1.0000
  H   H29       1.0  0.05301  0.21154  0.68023  1.0000
  C   C30       1.0  0.23278  0.03276  0.78291  1.0000
  H   H30       1.0  0.21691  0.08412  0.65646  1.0000
  H   H31       1.0  0.00943  0.18744  0.66651  1.0000
  H   H32       1.0  0.07201  0.20442  0.66478  1.0000
  H   H33       1.0  0.05028  0.27898  0.65968  1.0000
  C   C31       1.0  0.13302  0.14718  0.73133  1.0000
  C   C32       1.0  0.04181  0.24955  0.62428  1.0000
  C   C33       1.0  0.05827  0.25315  0.61584  1.0000
  C   C34       1.0  0.07047  0.25335  0.62531  1.0000
  C   C35       1.0  0.06663  0.24952  0.64340  1.0000
  C   C36       1.0  0.05026  0.24556  0.65206  1.0000
  C   C37       1.0  0.03768  0.24592  0.64250  1.0000
  H   H34       1.0  0.06158  0.25598  0.60182  1.0000
  H   H35       1.0  0.08302  0.25651  0.61850  1.0000
  H   H36       1.0  0.04722  0.24256  0.66605  1.0000
  H   H37       1.0  0.02499  0.24309  0.64914  1.0000
  H   H38       1.0  0.23094  0.00798  0.53949  1.0000
  H   H39       1.0  0.07416  0.25649  0.81305  1.0000
  H   H40       1.0  0.18301  0.04745  0.67708  1.0000
  C   C38       1.0  0.12943  0.14513  0.69895  1.0000
  C   C39       1.0  0.02485  0.24948  0.82101  1.0000
  H   H41       1.0  0.19352  0.19931  0.71396  1.0000
  C   C40       1.0  0.02668  0.27188  0.85763  1.0000
  C   C41       1.0  0.03205  0.28743  0.84852  1.0000
  H   H42       1.0  0.03441  0.26279  0.86639  1.0000
  Fe  Fe13      1.0  0.23384  0.01263  0.62355  1.0000
  C   C42       1.0  0.02043  0.17197  0.72454  1.0000
  C   C43       1.0  0.03778  0.17150  0.72505  1.0000
  C   C44       1.0  0.04419  0.18684  0.72047  1.0000
  C   C45       1.0  0.03326  0.20266  0.71521  1.0000
  C   C46       1.0  0.24021  0.06447  0.65874  1.0000
  S   S25       1.0  0.12331  0.99962  0.79053  1.0000
  H   H43       1.0  0.04619  0.15925  0.72912  1.0000
  H   H44       1.0  0.03806  0.21454  0.71180  1.0000
  H   H45       1.0  0.00238  0.25866  0.80896  1.0000
  C   C47       1.0  0.20727  0.17344  0.67733  1.0000
  C   C48       1.0  0.23008  0.04997  0.63570  1.0000
  C   C49       1.0  0.02476  0.19841  0.64234  1.0000
  C   C50       1.0  0.02017  0.28326  0.72513  1.0000
  H   H46       1.0  0.21457  0.15734  0.72703  1.0000
  C   C51       1.0  0.01084  0.30034  0.88603  1.0000
  H   H47       1.0  0.02354  0.26691  0.67400  1.0000
  C   C52       1.0  0.14477  0.06636  0.72458  1.0000
  C   C53       1.0  0.15091  0.05515  0.73888  1.0000
  C   C54       1.0  0.16393  0.05892  0.74525  1.0000
  C   C55       1.0  0.17073  0.07389  0.73732  1.0000
  C   C56       1.0  0.16387  0.08549  0.72366  1.0000
  C   C57       1.0  0.15107  0.08165  0.71715  1.0000
  H   H48       1.0  0.14586  0.04346  0.74487  1.0000
  H   H49       1.0  0.16900  0.05003  0.75602  1.0000
  H   H50       1.0  0.16853  0.09738  0.71801  1.0000
  H   H51       1.0  0.14622  0.09040  0.70620  1.0000
  C   C58       1.0  0.04527  0.05825  0.75279  1.0000
  C   C59       1.0  0.05285  0.06607  0.76173  1.0000
  C   C60       1.0  0.04417  0.08208  0.76637  1.0000
  C   C61       1.0  0.02801  0.09067  0.76183  1.0000
  C   C62       1.0  0.02032  0.08282  0.75301  1.0000
  C   C63       1.0  0.02885  0.06661  0.74867  1.0000
  H   H52       1.0  0.06534  0.05974  0.76518  1.0000
  H   H53       1.0  0.05020  0.08797  0.77327  1.0000
  H   H54       1.0  0.02277  0.06060  0.74191  1.0000
  C   C64       1.0  0.15448  0.01121  0.78076  1.0000
  C   C65       1.0  0.17011  0.01339  0.78388  1.0000
  C   C66       1.0  0.01525  0.26050  0.80902  1.0000
  C   C67       1.0  0.02197  0.27430  0.79760  1.0000
  H   H55       1.0  0.01901  0.11743  0.80205  1.0000
  C   C68       1.0  0.23784  0.12464  0.76631  1.0000
  Fe  Fe14      1.0  0.20621  0.99858  0.82712  1.0000
  H   H56       1.0  0.01179  0.30920  0.87310  1.0000
  H   H57       1.0  0.02408  0.29199  0.88620  1.0000
  H   H58       1.0  0.19965  0.04566  0.79458  1.0000
  H   H59       1.0  0.18853  0.19319  0.66473  1.0000
  C   C69       1.0  0.01129  0.26809  0.85546  1.0000
  S   S26       1.0  0.21167  0.01435  0.84351  1.0000
  H   H60       1.0  0.14595  0.01392  0.69842  1.0000
  H   H61       1.0  0.15930  0.03736  0.70082  1.0000
  S   S27       1.0  0.10019  0.29866  0.77406  1.0000
  H   H62       1.0  0.19804  0.04315  0.77368  1.0000
  H   H63       1.0  0.00745  0.21536  0.71052  1.0000
  H   H64       1.0  0.01563  0.19814  0.63465  1.0000
  C   C70       1.0  0.03301  0.19323  0.67001  1.0000
  H   H65       1.0  0.21296  0.17897  0.72985  1.0000
  C   C71       1.0  0.14154  0.13250  0.70727  1.0000
  H   H66       1.0  0.14988  0.12228  0.70084  1.0000
  H   H67       1.0  0.17079  0.98868  0.92287  1.0000
  Fe  Fe15      1.0  0.21096  0.99025  0.86476  1.0000
  H   H68       1.0  0.00782  0.08920  0.74953  1.0000
  C   C72       1.0  0.05145  0.28750  0.68228  1.0000
  H   H69       1.0  0.23966  0.09019  0.79182  1.0000
  C   C73       1.0  0.05943  0.20116  0.67277  1.0000
  H   H70       1.0  0.17994  0.21002  0.68822  1.0000
  S   S28       1.0  0.01851  0.11150  0.76674  1.0000
  H   H71       1.0  0.15270  0.12365  0.73019  1.0000
  C   C74       1.0  0.16279  0.99882  0.81377  1.0000
  C   C75       1.0  0.14326  0.13339  0.72365  1.0000
  H   H72       1.0  0.12827  0.14468  0.68609  1.0000
  C   C76       1.0  0.04111  0.25247  0.82139  1.0000
  C   C77       1.0  0.16379  0.03153  0.68945  1.0000
  H   H73       1.0  0.01454  0.28303  0.78832  1.0000
  C   C78       1.0  0.01593  0.20311  0.71450  1.0000
  S   S29       1.0  0.19649  0.99157  0.89218  1.0000
  C   C79       1.0  0.06462  0.26893  0.81093  1.0000
  H   H74       1.0  0.01946  0.23903  0.83027  1.0000
  N   N5        1.0  0.04768  0.26596  0.81003  1.0000
  N   N6        1.0  0.12151  0.15976  0.72286  1.0000
  C   C80       1.0  0.11098  0.17419  0.73099  1.0000
  H   H75       1.0  0.11007  0.16860  0.70045  1.0000
  H   H76       1.0  0.09816  0.17107  0.73838  1.0000
  H   H77       1.0  0.11789  0.17734  0.73968  1.0000
  H   H78       1.0  0.10852  0.18616  0.72102  1.0000
  C   C81       1.0  0.14286  0.00294  0.79415  1.0000
  C   C82       1.0  0.02129  0.19241  0.66024  1.0000
  H   H79       1.0  0.04226  0.21044  0.62059  1.0000
  H   H80       1.0  0.07736  0.11052  0.74184  1.0000
  H   H81       1.0  0.13962  0.99927  0.67817  1.0000
  H   H82       1.0  0.06249  0.18875  0.68207  1.0000
  N   N7        1.0  0.22269  0.04719  0.77482  1.0000
  H   H83       1.0  0.00978  0.26912  0.70432  1.0000
  H   H84       1.0  0.01556  0.16004  0.72813  1.0000
  C   C83       1.0  0.23740  0.06604  0.82482  1.0000
  H   H85       1.0  0.00761  0.31165  0.79474  1.0000
  H   H86       1.0  0.04843  0.11776  0.73327  1.0000
  C   C84       1.0  0.20360  0.05023  0.78037  1.0000
  C   C85       1.0  0.06160  0.07005  0.70803  1.0000
  C   C86       1.0  0.23816  0.07233  0.85203  1.0000
  H   H87       1.0  0.20818  0.07156  0.63578  1.0000
  H   H88       1.0  0.06418  0.07539  0.69390  1.0000
  H   H89       1.0  0.01933  0.13201  0.82551  1.0000
  H   H90       1.0  0.00755  0.30820  0.89618  1.0000
  H   H91       1.0  0.17951  0.01044  0.64930  1.0000
  H   H92       1.0  0.19758  0.06422  0.77735  1.0000
  H   H93       1.0  0.09146  0.06578  0.71874  1.0000
  H   H94       1.0  0.23524  0.06957  0.86608  1.0000
  H   H95       1.0  0.22585  0.05247  0.84986  1.0000
  Fe  Fe16      1.0  0.99954  0.24627  0.62167  1.0000
  H   H96       1.0  0.21154  0.02404  0.56876  1.0000
  C   C87       1.0  0.14706  0.99675  0.81066  1.0000
  H   H97       1.0  0.19326  0.03372  0.65123  1.0000
  C   C88       1.0  0.19485  0.18887  0.67582  1.0000
  H   H98       1.0  0.22673  0.02369  0.79357  1.0000
  H   H99       1.0  0.22434  0.15563  0.69318  1.0000
  C   C89       1.0  0.19769  0.19208  0.70361  1.0000
  C   C90       1.0  0.04428  0.27966  0.67307  1.0000
  S   S30       1.0  0.05092  0.29250  0.85181  1.0000
  C   C91       1.0  0.02187  0.29918  0.83742  1.0000
  H   H100      1.0  0.04896  0.29479  0.70648  1.0000
  C   C92       1.0  0.00951  0.18777  0.71932  1.0000
  C   C93       1.0  0.03979  0.20514  0.63443  1.0000
  C   C94       1.0  0.02935  0.27280  0.68114  1.0000
  C   C95       1.0  0.02158  0.27418  0.69828  1.0000
  H   H101      1.0  0.04136  0.09876  0.71769  1.0000
  N   N8        1.0  0.02844  0.28228  0.70708  1.0000
  H   H102      1.0  0.09903  0.08427  0.73437  1.0000
  C   C96       1.0  0.08202  0.07723  0.72177  1.0000
  H   H103      1.0  0.00757  0.29488  0.65092  1.0000
  C   C97       1.0  0.08640  0.08774  0.73058  1.0000
  Fe  Fe17      1.0  0.11684  0.00106  0.73028  1.0000
  C   C98       1.0  0.17710  0.03717  0.67614  1.0000
  H   H104      1.0  0.23373  0.05816  0.81789  1.0000
  Fe  Fe18      1.0  0.24000  0.00249  0.83566  1.0000
  H   H105      1.0  0.22224  0.06955  0.75437  1.0000
  H   H106      1.0  0.02351  0.27042  0.73365  1.0000
  C   C99       1.0  0.22506  0.02238  0.56974  1.0000
  N   N9        1.0  0.06597  0.08115  0.71733  1.0000
  C   C100      1.0  0.07432  0.10248  0.73465  1.0000
  C   C101      1.0  0.18280  0.02952  0.66162  1.0000
  H   H107      1.0  0.09793  0.30893  0.72708  1.0000
  S   S31       1.0  0.00473  0.31203  0.75995  1.0000
  S   S32       1.0  0.09193  0.31102  0.82011  1.0000
  H   H108      1.0  0.04763  0.06892  0.71257  1.0000
  H   H109      1.0  0.99830  0.17550  0.81686  1.0000
  C   C102      1.0  0.15624  0.01833  0.68799  1.0000
  H   H110      1.0  0.21918  0.04193  0.58531  1.0000
  H   H111      1.0  0.16586  0.99415  0.82654  1.0000
  H   H112      1.0  0.23221  0.16865  0.71664  1.0000
  H   H113      1.0  0.02551  0.31144  0.83089  1.0000
  S   S33       1.0  0.05669  0.31463  0.80461  1.0000
  S   S34       1.0  0.22073  0.99722  0.61320  1.0000
  C   C103      1.0  0.23642  0.12509  0.74933  1.0000
  C   C104      1.0  0.23029  0.05837  0.76108  1.0000
  C   C105      1.0  0.15389  0.99699  0.67260  1.0000
  C   C106      1.0  0.00703  0.13052  0.82347  1.0000
  H   H114      1.0  0.00719  0.25612  0.86252  1.0000
  C   C107      1.0  0.22928  0.03258  0.57902  1.0000
  Fe  Fe19      1.0  0.08499  0.31457  0.79417  1.0000
  C   C108      1.0  0.23301  1.00000  0.55232  1.0000
  N   N10       1.0  0.99765  0.28976  0.88894  1.0000
  H   H115      1.0  0.00862  0.27063  0.90869  1.0000
  H   H116      1.0  0.13808  0.99040  0.82110  1.0000
  S   S35       1.0  0.00590  0.31453  0.67610  1.0000
  S   S36       1.0  0.23461  0.98784  0.81828  1.0000
  H   H117      1.0  0.23882  0.98847  0.68509  1.0000
  C   C109      1.0  0.99825  0.27483  0.90134  1.0000
  H   H118      1.0  0.07864  0.31336  0.70618  1.0000
  H   H119      1.0  0.24471  0.01793  0.68002  1.0000
  C   C110      1.0  0.99616  0.29294  0.66101  1.0000
  H   H120      1.0  0.99532  0.20841  0.77842  1.0000
  H   H121      1.0  0.16024  0.98452  0.67993  1.0000
  S   S37       1.0  0.00854  0.62125  0.26374  1.0000
  S   S38       1.0  0.23743  0.59173  0.98050  1.0000
  H   H122      1.0  0.06785  0.62888  0.25752  1.0000
  C   C111      1.0  0.04136  0.62605  0.26066  1.0000
  H   H123      1.0  0.00928  0.63306  0.22690  1.0000
  Fe  Fe20      1.0  0.21711  0.64586  0.00929  1.0000
  C   C112      1.0  0.05435  0.63558  0.25813  1.0000
  H   H124      1.0  0.16537  0.64279  0.45890  1.0000
  H   H125      1.0  0.04496  0.61210  0.26199  1.0000
  C   C113      1.0  0.02385  0.63435  0.26134  1.0000
  H   H126      1.0  0.21871  0.64177  0.43174  1.0000
  Fe  Fe21      1.0  0.23246  0.61891  0.98602  1.0000
  C   C114      1.0  0.00749  0.64171  0.21423  1.0000
  H   H127      1.0  0.01574  0.63523  0.20362  1.0000
  C   C115      1.0  0.19273  0.64060  0.44683  1.0000
  S   S39       1.0  0.20670  0.63768  0.98994  1.0000
  H   H128      1.0  0.03558  0.64636  0.22265  1.0000
  H   H129      1.0  0.19723  0.63057  0.45728  1.0000
  C   C116      1.0  0.17490  0.64747  0.44774  1.0000
  C   C117      1.0  0.20479  0.64681  0.43245  1.0000
  H   H130      1.0  0.17580  0.62900  0.98047  1.0000
  S   S40       1.0  0.24172  0.62528  0.00741  1.0000
  H   H131      1.0  0.11886  0.51711  0.87553  1.0000
  H   H132      1.0  0.20499  0.46559  0.68679  1.0000
  C   C118      1.0  0.22321  0.56398  0.95274  1.0000
  H   H133      1.0  0.05774  0.36977  0.74438  1.0000
  H   H134      1.0  0.14529  0.56877  0.53709  1.0000
  Fe  Fe22      1.0  0.11254  0.57699  0.81464  1.0000
  S   S41       1.0  0.14062  0.57235  0.80149  1.0000
  S   S42       1.0  0.10195  0.59537  0.83357  1.0000
  Fe  Fe23      1.0  0.10428  0.55076  0.79747  1.0000
  S   S43       1.0  0.13201  0.54387  0.78339  1.0000
  S   S44       1.0  0.08167  0.53852  0.79800  1.0000
  Fe  Fe24      1.0  0.13905  0.54428  0.80824  1.0000
  S   S45       1.0  0.16098  0.52585  0.81958  1.0000
  Fe  Fe25      1.0  0.13107  0.57253  0.77793  1.0000
  S   S46       1.0  0.14470  0.58642  0.75264  1.0000
  S   S47       1.0  0.11145  0.54866  0.82308  1.0000
  S   S48       1.0  0.10272  0.57973  0.79024  1.0000
  C   C119      1.0  0.08381  0.33172  0.73727  1.0000
  H   H135      1.0  0.19717  0.49685  0.67383  1.0000
  S   S49       1.0  0.19111  0.63107  0.90533  1.0000
  S   S50       1.0  0.02146  0.38059  0.70009  1.0000
  H   H136      1.0  0.18112  0.52832  0.71235  1.0000
  C   C120      1.0  0.99523  0.43749  0.72886  1.0000
  S   S51       1.0  0.18357  0.63219  0.49545  1.0000
  Fe  Fe26      1.0  0.18033  0.62339  0.52435  1.0000
  S   S52       1.0  0.18620  0.59485  0.53598  1.0000
  H   H137      1.0  0.15685  0.61506  0.76052  1.0000
  H   H138      1.0  0.04361  0.44664  0.67094  1.0000
  Fe  Fe27      1.0  0.05855  0.44056  0.73841  1.0000
  S   S53       1.0  0.08288  0.43585  0.71822  1.0000
  S   S54       1.0  0.03860  0.42300  0.74753  1.0000
  Fe  Fe28      1.0  0.06697  0.47441  0.74276  1.0000
  S   S55       1.0  0.09144  0.47256  0.72232  1.0000
  S   S56       1.0  0.05543  0.49783  0.75512  1.0000
  Fe  Fe29      1.0  0.07598  0.46439  0.70754  1.0000
  S   S57       1.0  0.07284  0.47529  0.68017  1.0000
  Fe  Fe30      1.0  0.09579  0.44437  0.73526  1.0000
  S   S58       1.0  0.12165  0.43087  0.74232  1.0000
  S   S59       1.0  0.05086  0.46871  0.72674  1.0000
  S   S60       1.0  0.07206  0.44661  0.75666  1.0000
  Fe  Fe31      1.0  0.19344  0.50665  0.63084  1.0000
  S   S61       1.0  0.17235  0.49460  0.65020  1.0000
  C   C121      1.0  0.19307  0.48338  0.83475  1.0000
  Fe  Fe32      1.0  0.17187  0.54349  0.62824  1.0000
  S   S62       1.0  0.14894  0.53482  0.64764  1.0000
  S   S63       1.0  0.16979  0.57222  0.61771  1.0000
  Fe  Fe33      1.0  0.16882  0.51742  0.66240  1.0000
  S   S64       1.0  0.16554  0.51548  0.69090  1.0000
  Fe  Fe34      1.0  0.15432  0.51301  0.63371  1.0000
  S   S65       1.0  0.13238  0.50781  0.62485  1.0000
  S   S66       1.0  0.19148  0.52808  0.64437  1.0000
  S   S67       1.0  0.17567  0.52299  0.61304  1.0000
  S   S68       1.0  0.01793  0.33285  0.71112  1.0000
  C   C122      1.0  0.07629  0.32251  0.71458  1.0000
  H   H139      1.0  0.15124  0.58657  0.54206  1.0000
  Fe  Fe35      1.0  0.14429  0.44987  0.81991  1.0000
  S   S69       1.0  0.13002  0.44525  0.84754  1.0000
  S   S70       1.0  0.13032  0.46666  0.79917  1.0000
  Fe  Fe36      1.0  0.17870  0.42996  0.82884  1.0000
  S   S71       1.0  0.16747  0.42322  0.85729  1.0000
  S   S72       1.0  0.20705  0.42216  0.81721  1.0000
  Fe  Fe37      1.0  0.14518  0.41784  0.84840  1.0000
  S   S73       1.0  0.13345  0.39366  0.85970  1.0000
  Fe  Fe38      1.0  0.15348  0.45122  0.85370  1.0000
  S   S74       1.0  0.15012  0.47230  0.86894  1.0000
  S   S75       1.0  0.15788  0.42225  0.82034  1.0000
  S   S76       1.0  0.16629  0.45805  0.82576  1.0000
  S   S77       1.0  0.21609  0.42892  0.73658  1.0000
  Fe  Fe39      1.0  0.05362  0.34313  0.80222  1.0000
  S   S78       1.0  0.08141  0.34338  0.78934  1.0000
  S   S79       1.0  0.03307  0.36178  0.78933  1.0000
  Fe  Fe40      1.0  0.08596  0.34037  0.81625  1.0000
  S   S80       1.0  0.10181  0.36106  0.81355  1.0000
  S   S81       1.0  0.05736  0.34178  0.82883  1.0000
  Fe  Fe41      1.0  0.19496  0.55135  0.88396  1.0000
  S   S82       1.0  0.18332  0.53997  0.91105  1.0000
  S   S83       1.0  0.17646  0.56797  0.86732  1.0000
  Fe  Fe42      1.0  0.20354  0.51613  0.90638  1.0000
  S   S84       1.0  0.19701  0.48950  0.91151  1.0000
  S   S85       1.0  0.21383  0.52707  0.87871  1.0000
  C   C123      1.0  0.10943  0.37023  0.82723  1.0000
  C   C124      1.0  0.11644  0.38526  0.81989  1.0000
  C   C125      1.0  0.12315  0.39291  0.82987  1.0000
  C   C126      1.0  0.12335  0.38538  0.84728  1.0000
  C   C127      1.0  0.11629  0.37037  0.85469  1.0000
  C   C128      1.0  0.10923  0.36289  0.84476  1.0000
  H   H140      1.0  0.11690  0.39097  0.80631  1.0000
  H   H141      1.0  0.12844  0.40448  0.82397  1.0000
  C   C129      1.0  0.20980  0.42466  0.79471  1.0000
  C   C130      1.0  0.22592  0.41786  0.78507  1.0000
  C   C131      1.0  0.22792  0.41898  0.76722  1.0000
  C   C132      1.0  0.21383  0.42692  0.75897  1.0000
  C   C133      1.0  0.19769  0.43369  0.76864  1.0000
  C   C134      1.0  0.19572  0.43269  0.78645  1.0000
  S   S86       1.0  0.22342  0.52381  0.91694  1.0000
  H   H142      1.0  0.18666  0.43975  0.76243  1.0000
  H   H143      1.0  0.18329  0.43818  0.79373  1.0000
  C   C135      1.0  0.16675  0.47597  0.87748  1.0000
  C   C136      1.0  0.16938  0.49298  0.87477  1.0000
  C   C137      1.0  0.17969  0.49707  0.88427  1.0000
  C   C138      1.0  0.18712  0.48423  0.89687  1.0000
  C   C139      1.0  0.18515  0.46709  0.89901  1.0000
  C   C140      1.0  0.17513  0.46294  0.88927  1.0000
  H   H144      1.0  0.16286  0.50323  0.86579  1.0000
  H   H145      1.0  0.18113  0.51033  0.88242  1.0000
  H   H146      1.0  0.19086  0.45707  0.90873  1.0000
  H   H147      1.0  0.17301  0.44984  0.89169  1.0000
  H   H148      1.0  0.19250  0.36696  0.84608  1.0000
  C   C141      1.0  0.01803  0.33418  0.79271  1.0000
  C   C142      1.0  0.02358  0.34884  0.78168  1.0000
  C   C143      1.0  0.02327  0.35213  0.76410  1.0000
  H   H149      1.0  0.00684  0.38428  0.73599  1.0000
  H   H150      1.0  0.02213  0.42811  0.67392  1.0000
  H   H151      1.0  0.02775  0.36331  0.75560  1.0000
  C   C144      1.0  0.24324  0.61346  0.60921  1.0000
  H   H152      1.0  0.16725  0.56708  0.54013  1.0000
  C   C145      1.0  0.01229  0.32272  0.78610  1.0000
  H   H153      1.0  0.13456  0.60441  0.88190  1.0000
  C   C146      1.0  0.19249  0.60793  0.87107  1.0000
  C   C147      1.0  0.10173  0.48816  0.84019  1.0000
  C   C148      1.0  0.19322  0.58419  0.66432  1.0000
  H   H154      1.0  0.07896  0.36037  0.74954  1.0000
  N   N11       1.0  0.18330  0.46250  0.70794  1.0000
  C   C149      1.0  0.14768  0.46597  0.72197  1.0000
  C   C150      1.0  0.01764  0.39102  0.73099  1.0000
  C   C151      1.0  0.03291  0.45275  0.69621  1.0000
  C   C152      1.0  0.12430  0.44039  0.75833  1.0000
  C   C153      1.0  0.13804  0.43313  0.76725  1.0000
  C   C154      1.0  0.14002  0.44102  0.77996  1.0000
  C   C155      1.0  0.12832  0.45619  0.78362  1.0000
  C   C156      1.0  0.11485  0.46354  0.77446  1.0000
  C   C157      1.0  0.11275  0.45560  0.76197  1.0000
  H   H155      1.0  0.14713  0.42147  0.76432  1.0000
  H   H156      1.0  0.15078  0.43557  0.78661  1.0000
  H   H157      1.0  0.10584  0.47529  0.77722  1.0000
  H   H158      1.0  0.10218  0.46140  0.75516  1.0000
  C   C158      1.0  0.03539  0.40966  0.73487  1.0000
  C   C159      1.0  0.02719  0.39077  0.71414  1.0000
  C   C160      1.0  0.04127  0.39947  0.70793  1.0000
  C   C161      1.0  0.04532  0.40894  0.71821  1.0000
  H   H159      1.0  0.04878  0.39930  0.69491  1.0000
  H   H160      1.0  0.05581  0.41605  0.71304  1.0000
  C   C162      1.0  0.09025  0.48330  0.66521  1.0000
  C   C163      1.0  0.08773  0.49111  0.64843  1.0000
  C   C164      1.0  0.10089  0.49836  0.63619  1.0000
  C   C165      1.0  0.11661  0.49804  0.64067  1.0000
  C   C166      1.0  0.11931  0.49015  0.65748  1.0000
  C   C167      1.0  0.10612  0.48262  0.66977  1.0000
  H   H161      1.0  0.07552  0.49161  0.64484  1.0000
  H   H162      1.0  0.09880  0.50436  0.62321  1.0000
  H   H163      1.0  0.13158  0.48968  0.66089  1.0000
  H   H164      1.0  0.10817  0.47643  0.68270  1.0000
  C   C168      1.0  0.18306  0.58907  0.55870  1.0000
  C   C169      1.0  0.18746  0.57157  0.56656  1.0000
  C   C170      1.0  0.18386  0.56636  0.58467  1.0000
  C   C171      1.0  0.17578  0.57863  0.59504  1.0000
  C   C172      1.0  0.17174  0.59621  0.58720  1.0000
  C   C173      1.0  0.17537  0.60144  0.56904  1.0000
  H   H165      1.0  0.19356  0.56197  0.55862  1.0000
  H   H166      1.0  0.18735  0.55285  0.59056  1.0000
  H   H167      1.0  0.16553  0.60578  0.59515  1.0000
  H   H168      1.0  0.17197  0.61498  0.56306  1.0000
  C   C174      1.0  0.17749  0.46146  0.72539  1.0000
  H   H169      1.0  0.00075  0.43658  0.74039  1.0000
  C   C175      1.0  0.11513  0.60701  0.83893  1.0000
  C   C176      1.0  0.13305  0.60525  0.83190  1.0000
  H   H170      1.0  0.21946  0.63552  0.64732  1.0000
  C   C177      1.0  0.01229  0.32588  0.76841  1.0000
  C   C178      1.0  0.23216  0.56941  0.96266  1.0000
  H   H171      1.0  0.12685  0.60800  0.77828  1.0000
  H   H172      1.0  0.13941  0.59583  0.82386  1.0000
  C   C179      1.0  0.02152  0.43461  0.68424  1.0000
  H   H173      1.0  0.22147  0.46639  0.81652  1.0000
  C   C180      1.0  0.23323  0.49699  0.73383  1.0000
  C   C181      1.0  0.16543  0.53704  0.83323  1.0000
  C   C182      1.0  0.15254  0.55037  0.83939  1.0000
  C   C183      1.0  0.15619  0.56015  0.84945  1.0000
  C   C184      1.0  0.17259  0.55628  0.85382  1.0000
  C   C185      1.0  0.18554  0.54294  0.84769  1.0000
  C   C186      1.0  0.18198  0.53333  0.83734  1.0000
  H   H174      1.0  0.13967  0.55323  0.83647  1.0000
  H   H175      1.0  0.14618  0.57056  0.85404  1.0000
  H   H176      1.0  0.19850  0.54052  0.85027  1.0000
  H   H177      1.0  0.19220  0.52355  0.83202  1.0000
  C   C187      1.0  0.07599  0.52752  0.78457  1.0000
  C   C188      1.0  0.05821  0.52749  0.78688  1.0000
  C   C189      1.0  0.05244  0.51823  0.77781  1.0000
  C   C190      1.0  0.06435  0.50824  0.76664  1.0000
  C   C191      1.0  0.08233  0.50793  0.76430  1.0000
  C   C192      1.0  0.08816  0.51781  0.77307  1.0000
  H   H178      1.0  0.04870  0.53479  0.79576  1.0000
  H   H179      1.0  0.03856  0.51870  0.77963  1.0000
  H   H180      1.0  0.09167  0.50025  0.75568  1.0000
  H   H181      1.0  0.10196  0.51757  0.77127  1.0000
  C   C193      1.0  0.20325  0.56718  0.75049  1.0000
  C   C194      1.0  0.19731  0.58088  0.73765  1.0000
  C   C195      1.0  0.17927  0.58701  0.73842  1.0000
  C   C196      1.0  0.16726  0.57898  0.75162  1.0000
  C   C197      1.0  0.17331  0.56507  0.76419  1.0000
  C   C198      1.0  0.19125  0.55940  0.76382  1.0000
  H   H182      1.0  0.20661  0.58699  0.72736  1.0000
  H   H183      1.0  0.17467  0.59790  0.72877  1.0000
  H   H184      1.0  0.16424  0.55851  0.77420  1.0000
  H   H185      1.0  0.19580  0.54875  0.77372  1.0000
  C   C199      1.0  0.22216  0.51351  0.69087  1.0000
  C   C200      1.0  0.20893  0.52208  0.70243  1.0000
  C   C201      1.0  0.19139  0.52143  0.70373  1.0000
  C   C202      1.0  0.18715  0.51272  0.69304  1.0000
  C   C203      1.0  0.20044  0.50353  0.68214  1.0000
  C   C204      1.0  0.21795  0.50364  0.68128  1.0000
  H   H186      1.0  0.21216  0.52936  0.71020  1.0000
  H   H187      1.0  0.14725  0.63056  0.94183  1.0000
  H   H188      1.0  0.15797  0.49002  0.92566  1.0000
  C   C205      1.0  0.22248  0.48394  0.76285  1.0000
  C   C206      1.0  0.19950  0.64273  0.91565  1.0000
  H   H189      1.0  0.16194  0.60039  0.78007  1.0000
  C   C207      1.0  0.20391  0.63496  0.93171  1.0000
  H   H190      1.0  0.16150  0.61395  0.96654  1.0000
  C   C208      1.0  0.20927  0.59480  0.96528  1.0000
  C   C209      1.0  0.17433  0.56570  0.66364  1.0000
  C   C210      1.0  0.22532  0.58493  0.96882  1.0000
  H   H191      1.0  0.21706  0.47773  0.65552  1.0000
  C   C211      1.0  0.15858  0.61430  0.77384  1.0000
  H   H192      1.0  0.01425  0.40053  0.75435  1.0000
  S   S87       1.0  0.19459  0.56733  0.93782  1.0000
  C   C212      1.0  0.12662  0.51802  0.88428  1.0000
  H   H193      1.0  0.22317  0.45642  0.76794  1.0000
  N   N12       1.0  0.08007  0.51722  0.70389  1.0000
  C   C213      1.0  0.09228  0.51663  0.68884  1.0000
  C   C214      1.0  0.08424  0.52017  0.71805  1.0000
  C   C215      1.0  0.10944  0.51809  0.68799  1.0000
  C   C216      1.0  0.10127  0.52167  0.71768  1.0000
  C   C217      1.0  0.11397  0.52048  0.70257  1.0000
  C   C218      1.0  0.06222  0.51551  0.70454  1.0000
  H   H194      1.0  0.08880  0.51488  0.67742  1.0000
  H   H195      1.0  0.07438  0.52130  0.72976  1.0000
  H   H196      1.0  0.11915  0.51737  0.67609  1.0000
  H   H197      1.0  0.10453  0.52376  0.72906  1.0000
  H   H198      1.0  0.12726  0.52154  0.70212  1.0000
  H   H199      1.0  0.06226  0.50635  0.69640  1.0000
  H   H200      1.0  0.05580  0.51021  0.71797  1.0000
  H   H201      1.0  0.05428  0.52836  0.69990  1.0000
  C   C219      1.0  0.17170  0.46511  0.69735  1.0000
  C   C220      1.0  0.15372  0.46693  0.70419  1.0000
  H   H202      1.0  0.17632  0.46565  0.68355  1.0000
  H   H203      1.0  0.14457  0.46885  0.69580  1.0000
  H   H204      1.0  0.09180  0.48154  0.84894  1.0000
  H   H205      1.0  0.18955  0.57904  0.64084  1.0000
  C   C221      1.0  0.00894  0.43230  0.69955  1.0000
  C   C222      1.0  0.18607  0.57655  0.65490  1.0000
  H   H206      1.0  0.20476  0.49761  0.85484  1.0000
  H   H207      1.0  0.24356  0.46391  0.60670  1.0000
  Fe  Fe43      1.0  0.23898  0.56019  0.72200  1.0000
  H   H208      1.0  0.14794  0.47755  0.91732  1.0000
  H   H209      1.0  0.23548  0.49518  0.85670  1.0000
  H   H210      1.0  0.01997  0.45599  0.72202  1.0000
  S   S88       1.0  0.24397  0.51529  0.68768  1.0000
  H   H211      1.0  0.15822  0.37116  0.83436  1.0000
  H   H212      1.0  0.99988  0.42394  0.70085  1.0000
  H   H213      1.0  0.14839  0.54564  0.89128  1.0000
  C   C223      1.0  0.22911  0.47251  0.63013  1.0000
  N   N13       1.0  0.06850  0.39356  0.79020  1.0000
  C   C224      1.0  0.08360  0.39833  0.79025  1.0000
  C   C225      1.0  0.06442  0.39342  0.77490  1.0000
  C   C226      1.0  0.09550  0.40234  0.77478  1.0000
  C   C227      1.0  0.07602  0.39739  0.75918  1.0000
  C   C228      1.0  0.09171  0.40172  0.75917  1.0000
  C   C229      1.0  0.05629  0.38947  0.80662  1.0000
  H   H214      1.0  0.08659  0.39882  0.80236  1.0000
  H   H215      1.0  0.05204  0.39046  0.77476  1.0000
  H   H216      1.0  0.10753  0.40603  0.77487  1.0000
  H   H217      1.0  0.07261  0.39754  0.74707  1.0000
  H   H218      1.0  0.10080  0.40494  0.74709  1.0000
  H   H219      1.0  0.06356  0.38164  0.81690  1.0000
  H   H220      1.0  0.04843  0.40164  0.81062  1.0000
  H   H221      1.0  0.04724  0.38166  0.80551  1.0000
  N   N14       1.0  0.14792  0.56494  0.56323  1.0000
  C   C230      1.0  0.14325  0.57537  0.57515  1.0000
  C   C231      1.0  0.14822  0.54753  0.56846  1.0000
  C   C232      1.0  0.13859  0.56841  0.59283  1.0000
  C   C233      1.0  0.14347  0.54018  0.58601  1.0000
  C   C234      1.0  0.13862  0.55072  0.59824  1.0000
  C   C235      1.0  0.15311  0.57218  0.54473  1.0000
  H   H222      1.0  0.14355  0.58908  0.57109  1.0000
  H   H223      1.0  0.15227  0.53920  0.55906  1.0000
  H   H224      1.0  0.13550  0.57660  0.60230  1.0000
  H   H225      1.0  0.14378  0.52634  0.59018  1.0000
  H   H226      1.0  0.13516  0.54509  0.61192  1.0000
  C   C236      1.0  0.22626  0.46868  0.64827  1.0000
  H   H227      1.0  0.20902  0.46535  0.70750  1.0000
  C   C237      1.0  0.14612  0.60245  0.88725  1.0000
  C   C238      1.0  0.01781  0.34058  0.75742  1.0000
  H   H228      1.0  0.15637  0.61517  0.82860  1.0000
  C   C239      1.0  0.11166  0.63773  0.80398  1.0000
  C   C240      1.0  0.02185  0.40028  0.74136  1.0000
  C   C241      1.0  0.23653  0.48112  0.72867  1.0000
  C   C242      1.0  0.16149  0.62768  0.96192  1.0000
  C   C243      1.0  0.11339  0.50263  0.81206  1.0000
  H   H229      1.0  0.06031  0.35102  0.76158  1.0000
  H   H230      1.0  0.09207  0.32943  0.74664  1.0000
  H   H231      1.0  0.12942  0.54420  0.87202  1.0000
  N   N15       1.0  0.22613  0.49827  0.75068  1.0000
  C   C244      1.0  0.08653  0.49168  0.81656  1.0000
  H   H232      1.0  0.10396  0.35128  0.85059  1.0000
  C   C245      1.0  0.10720  0.61918  0.84961  1.0000
  Fe  Fe44      1.0  0.99831  0.32920  0.69776  1.0000
  H   H233      1.0  0.11642  0.36441  0.86815  1.0000
  C   C246      1.0  0.08718  0.32005  0.72624  1.0000
  H   H234      1.0  0.05380  0.33884  0.70485  1.0000
  H   H235      1.0  0.21258  0.51626  0.76712  1.0000
  H   H236      1.0  0.20762  0.44544  0.70238  1.0000
  H   H237      1.0  0.18673  0.45903  0.73380  1.0000
  H   H238      1.0  0.23682  0.41153  0.79143  1.0000
  N   N16       1.0  0.07009  0.34558  0.73653  1.0000
  H   H239      1.0  0.24325  0.50362  0.63479  1.0000
  H   H240      1.0  0.19901  0.39356  0.78178  1.0000
  H   H241      1.0  0.13488  0.48997  0.93343  1.0000
  C   C247      1.0  0.15961  0.46328  0.73267  1.0000
  C   C248      1.0  0.20215  0.45959  0.70077  1.0000
  H   H242      1.0  0.23579  0.51560  0.75969  1.0000
  C   C249      1.0  0.14719  0.51972  0.90626  1.0000
  C   C250      1.0  0.20850  0.64469  0.94118  1.0000
  C   C251      1.0  0.19001  0.38852  0.79324  1.0000
  C   C252      1.0  0.17501  0.38390  0.79166  1.0000
  H   H243      1.0  0.21151  0.63860  0.95376  1.0000
  C   C253      1.0  0.13270  0.53319  0.88221  1.0000
  H   H244      1.0  0.24191  0.60192  0.60506  1.0000
  S   S89       1.0  0.19528  0.64195  0.52717  1.0000
  C   C254      1.0  0.23595  0.45346  0.65688  1.0000
  C   C255      1.0  0.11688  0.63006  0.85254  1.0000
  H   H245      1.0  0.15207  0.37350  0.80547  1.0000
  H   H246      1.0  0.01811  0.34301  0.74371  1.0000
  H   H247      1.0  0.11272  0.50746  0.79853  1.0000
  C   C256      1.0  0.16366  0.37736  0.80652  1.0000
  C   C257      1.0  0.02020  0.45012  0.71135  1.0000
  C   C258      1.0  0.14269  0.63506  0.79265  1.0000
  C   C259      1.0  0.19328  0.38678  0.80975  1.0000
  C   C260      1.0  0.22567  0.46784  0.75818  1.0000
  C   C261      1.0  0.13101  0.50390  0.89743  1.0000
  C   C262      1.0  0.06660  0.35732  0.74855  1.0000
  H   H248      1.0  0.22858  0.55199  0.94813  1.0000
  H   H249      1.0  0.20505  0.39021  0.81088  1.0000
  H   H250      1.0  0.24030  0.41342  0.75997  1.0000
  H   H251      1.0  0.20150  0.61049  0.87804  1.0000
  N   N17       1.0  0.00855  0.43985  0.71293  1.0000
  H   H252      1.0  0.21763  0.48478  0.77635  1.0000
  H   H253      1.0  0.07557  0.50306  0.81745  1.0000
  H   H254      1.0  0.01806  0.33178  0.80637  1.0000
  N   N18       1.0  0.18164  0.38116  0.82427  1.0000
  N   N19       1.0  0.14129  0.50483  0.90811  1.0000
  H   H255      1.0  0.19906  0.59676  0.86468  1.0000
  H   H256      1.0  0.13381  0.46705  0.72750  1.0000
  Fe  Fe45      1.0  0.23191  0.53668  0.88921  1.0000
  C   C263      1.0  0.22369  0.51482  0.75596  1.0000
  C   C264      1.0  0.16721  0.37604  0.82283  1.0000
  H   H257      1.0  0.20313  0.62158  0.93707  1.0000
  C   C265      1.0  0.17002  0.56247  0.68174  1.0000
  C   C266      1.0  0.18842  0.58092  0.68241  1.0000
  H   H258      1.0  0.15503  0.46236  0.74654  1.0000
  C   C267      1.0  0.12760  0.50446  0.81791  1.0000
  H   H259      1.0  0.09335  0.62062  0.85514  1.0000
  H   H260      1.0  0.18803  0.59479  0.90520  1.0000
  H   H261      1.0  0.12664  0.49197  0.89866  1.0000
  H   H262      1.0  0.13969  0.49953  0.83989  1.0000
  H   H263      1.0  0.13408  0.59189  0.91329  1.0000
  N   N20       1.0  0.17631  0.60414  0.88292  1.0000
  H   H264      1.0  0.16387  0.57937  0.71384  1.0000
  H   H265      1.0  0.11633  0.48510  0.86005  1.0000
  H   H266      1.0  0.23044  0.61915  0.61667  1.0000
  C   C268      1.0  0.14565  0.48989  0.92186  1.0000
  C   C269      1.0  0.21514  0.49030  0.84659  1.0000
  C   C270      1.0  0.18495  0.38003  0.84146  1.0000
  C   C271      1.0  0.23276  0.46646  0.74097  1.0000
  C   C272      1.0  0.17628  0.59705  0.90005  1.0000
  H   H267      1.0  0.16188  0.61151  0.86273  1.0000
  H   H268      1.0  0.18961  0.61972  0.86097  1.0000
  C   C273      1.0  0.12864  0.49823  0.83527  1.0000
  H   H269      1.0  0.13787  0.51044  0.80897  1.0000
  H   H270      1.0  0.16982  0.62039  0.77270  1.0000
  H   H271      1.0  0.18771  0.59677  0.95312  1.0000
  H   H272      1.0  0.19393  0.58708  0.68961  1.0000
  C   C274      1.0  0.16156  0.60667  0.87644  1.0000
  H   H273      1.0  0.20239  0.59265  0.65768  1.0000
  H   H274      1.0  0.24447  0.56155  0.96552  1.0000
  C   C275      1.0  0.11554  0.49017  0.84656  1.0000
  C   C276      1.0  0.20014  0.58914  0.95575  1.0000
  H   H275      1.0  0.22654  0.62957  0.58347  1.0000
  H   H276      1.0  0.19237  0.39000  0.84116  1.0000
  C   C277      1.0  0.12731  0.64283  0.80266  1.0000
  C   C278      1.0  0.16111  0.59258  0.91125  1.0000
  H   H277      1.0  0.16131  0.58683  0.92478  1.0000
  C   C279      1.0  0.14592  0.59537  0.90479  1.0000
  Fe  Fe46      1.0  0.00383  0.36067  0.70877  1.0000
  C   C280      1.0  0.20708  0.57382  0.94933  1.0000
  H   H278      1.0  0.09982  0.64298  0.81240  1.0000
  H   H279      1.0  0.18839  0.47189  0.84358  1.0000
  S   S90       1.0  0.22563  0.56123  0.70069  1.0000
  N   N21       1.0  0.14239  0.62278  0.78395  1.0000
  C   C281      1.0  0.14267  0.61621  0.83470  1.0000
  S   S91       1.0  0.21395  0.56222  0.89163  1.0000
  S   S92       1.0  0.21943  0.49242  0.61864  1.0000
  C   C282      1.0  0.24125  0.46095  0.62071  1.0000
  C   C283      1.0  0.23755  0.59901  0.91502  1.0000
  H   H280      1.0  0.17243  0.38250  0.85096  1.0000
  N   N22       1.0  0.10098  0.49409  0.82306  1.0000
  C   C284      1.0  0.24266  0.61740  0.65356  1.0000
  Fe  Fe47      1.0  0.20400  0.54906  0.91876  1.0000
  H   H281      1.0  0.23582  0.45395  0.73729  1.0000
  C   C285      1.0  0.14318  0.53405  0.89315  1.0000
  S   S93       1.0  0.22563  0.55922  0.74964  1.0000
  H   H282      1.0  0.09086  0.49025  0.80282  1.0000
  H   H283      1.0  0.15552  0.52035  0.91460  1.0000
  H   H284      1.0  0.16858  0.55988  0.65638  1.0000
  C   C286      1.0  0.13458  0.62892  0.84470  1.0000
  H   H285      1.0  0.08184  0.47967  0.82392  1.0000
  C   C287      1.0  0.12705  0.61787  0.78501  1.0000
  S   S94       1.0  0.15401  0.64060  0.53012  1.0000
  H   H286      1.0  0.19160  0.48389  0.82141  1.0000
  C   C288      1.0  0.05925  0.34803  0.72522  1.0000
  H   H287      1.0  0.04811  0.35875  0.72488  1.0000
  N   N23       1.0  0.17703  0.57009  0.69089  1.0000
  C   C289      1.0  0.06230  0.33666  0.71395  1.0000
  C   C290      1.0  0.16947  0.63616  0.96977  1.0000
  H   H288      1.0  0.23602  0.61338  0.94203  1.0000
  C   C291      1.0  0.15346  0.63697  0.94812  1.0000
  H   H289      1.0  0.18436  0.49525  0.83874  1.0000
  H   H290      1.0  0.17223  0.38532  0.77894  1.0000
  N   N24       1.0  0.21133  0.48248  0.83531  1.0000
  H   H291      1.0  0.16402  0.55700  0.71526  1.0000
  C   C292      1.0  0.17192  0.56724  0.70983  1.0000
  H   H292      1.0  0.23690  0.50814  0.72437  1.0000
  H   H293      1.0  0.04231  0.46067  0.69508  1.0000
  C   C293      1.0  0.03360  0.44489  0.68262  1.0000
  H   H294      1.0  0.09950  0.62066  0.79657  1.0000
  H   H295      1.0  0.20384  0.60671  0.96999  1.0000
  H   H296      1.0  0.18372  0.56317  0.71573  1.0000
  H   H297      1.0  0.22797  0.58980  0.89726  1.0000
  H   H298      1.0  0.22841  0.61133  0.91358  1.0000
  H   H299      1.0  0.15489  0.63865  0.79228  1.0000
  H   H300      1.0  0.22076  0.52598  0.74526  1.0000
  H   H301      1.0  0.16104  0.55383  0.68839  1.0000
  H   H302      1.0  0.22815  0.49680  0.67252  1.0000
  S   S95       1.0  0.14637  0.64470  0.84456  1.0000
  C   C294      1.0  0.23360  0.63299  0.64504  1.0000
  C   C295      1.0  0.23250  0.48902  0.84767  1.0000
  S   S96       1.0  0.23075  0.60167  0.66676  1.0000
  C   C296      1.0  0.11149  0.62517  0.79511  1.0000
  H   H303      1.0  0.23405  0.45064  0.67083  1.0000
  C   C297      1.0  0.22446  0.47298  0.82516  1.0000
  Fe  Fe48      1.0  0.24405  0.57852  0.68426  1.0000
  Fe  Fe49      1.0  0.24370  0.42247  0.72168  1.0000
  H   H304      1.0  0.11043  0.63991  0.86011  1.0000
  H   H305      1.0  0.24258  0.48016  0.71533  1.0000
  C   C298      1.0  0.23727  0.58685  0.90569  1.0000
  Fe  Fe50      1.0  0.99768  0.32832  0.73525  1.0000
  C   C299      1.0  0.24197  0.47157  0.82578  1.0000
  C   C300      1.0  0.24407  0.64591  0.56742  1.0000
  C   C301      1.0  0.24272  0.64536  0.63357  1.0000
  S   S97       1.0  0.14361  0.64658  0.89465  1.0000
  Fe  Fe51      1.0  0.17092  0.65011  0.89192  1.0000
  C   C302      1.0  0.23886  0.63347  0.58194  1.0000
  H   H306      1.0  0.99534  0.77560  0.16234  1.0000
  H   H307      1.0  0.15963  0.70294  0.44475  1.0000
  H   H308      1.0  0.08456  0.74018  0.15663  1.0000
  S   S98       1.0  0.02937  0.74986  0.14394  1.0000
  C   C303      1.0  0.22599  0.78520  0.37405  1.0000
  H   H309      1.0  0.20239  0.90719  0.47411  1.0000
  C   C304      1.0  0.01911  0.74591  0.38783  1.0000
  H   H310      1.0  0.17608  0.81091  0.00946  1.0000
  S   S99       1.0  0.23410  0.77218  0.35844  1.0000
  Fe  Fe52      1.0  0.10262  0.76296  0.00598  1.0000
  S   S100      1.0  0.12508  0.77162  0.01092  1.0000
  S   S101      1.0  0.08221  0.75753  0.03075  1.0000
  C   C305      1.0  0.00979  0.78667  0.31582  1.0000
  C   C306      1.0  0.17558  0.68191  0.40728  1.0000
  Fe  Fe53      1.0  0.14149  0.74839  0.00071  1.0000
  S   S102      1.0  0.16270  0.73003  0.01320  1.0000
  H   H311      1.0  0.08018  0.73657  0.13718  1.0000
  H   H312      1.0  0.07118  0.79111  0.36340  1.0000
  S   S103      1.0  0.11931  0.73883  0.99697  1.0000
  H   H313      1.0  0.09660  0.77555  0.07259  1.0000
  H   H314      1.0  0.02122  0.79680  0.40220  1.0000
  N   N25       1.0  0.17600  0.69952  0.98911  1.0000
  C   C307      1.0  0.02214  0.68968  0.20937  1.0000
  H   H315      1.0  0.15556  0.79849  0.00004  1.0000
  C   C308      1.0  0.09190  0.77646  0.06061  1.0000
  C   C309      1.0  0.16197  0.82159  0.33097  1.0000
  H   H316      1.0  0.19765  0.83506  0.35058  1.0000
  C   C310      1.0  0.10480  0.70524  0.16171  1.0000
  C   C311      1.0  0.00216  0.67355  0.20607  1.0000
  H   H317      1.0  0.17692  0.84153  0.36477  1.0000
  H   H318      1.0  0.13776  0.80492  0.43722  1.0000
  Fe  Fe54      1.0  0.14392  0.85249  0.42863  1.0000
  S   S104      1.0  0.14448  0.87931  0.41284  1.0000
  S   S105      1.0  0.12031  0.84425  0.44701  1.0000
  Fe  Fe55      1.0  0.18147  0.83830  0.41315  1.0000
  S   S106      1.0  0.18475  0.86368  0.39546  1.0000
  S   S107      1.0  0.20393  0.81603  0.41700  1.0000
  Fe  Fe56      1.0  0.17122  0.87495  0.41916  1.0000
  S   S108      1.0  0.18581  0.89149  0.42683  1.0000
  Fe  Fe57      1.0  0.15778  0.86516  0.39097  1.0000
  S   S109      1.0  0.14961  0.87435  0.36468  1.0000
  S   S110      1.0  0.16917  0.84936  0.43688  1.0000
  S   S111      1.0  0.15606  0.83847  0.40669  1.0000
  N   N26       1.0  0.18140  0.66731  0.42071  1.0000
  C   C312      1.0  0.16522  0.77984  0.41014  1.0000
  Fe  Fe58      1.0  0.06435  0.72640  0.25523  1.0000
  S   S112      1.0  0.06308  0.73649  0.27898  1.0000
  S   S113      1.0  0.05871  0.74338  0.23013  1.0000
  H   H319      1.0  0.12253  0.78600  0.05503  1.0000
  Fe  Fe59      1.0  0.06674  0.84707  0.29113  1.0000
  S   S114      1.0  0.09634  0.83940  0.28712  1.0000
  S   S115      1.0  0.05238  0.86704  0.27163  1.0000
  Fe  Fe60      1.0  0.06169  0.81779  0.32159  1.0000
  S   S116      1.0  0.09020  0.80741  0.31965  1.0000
  S   S117      1.0  0.04429  0.80295  0.34262  1.0000
  Fe  Fe61      1.0  0.09244  0.83514  0.31637  1.0000
  S   S118      1.0  0.10955  0.83288  0.33574  1.0000
  Fe  Fe62      1.0  0.09175  0.81242  0.29121  1.0000
  S   S119      1.0  0.10653  0.79292  0.27465  1.0000
  S   S120      1.0  0.06321  0.84520  0.32002  1.0000
  S   S121      1.0  0.06288  0.82028  0.29340  1.0000
  C   C313      1.0  0.00902  0.74063  0.17602  1.0000
  S   S122      1.0  0.08630  0.70738  0.24283  1.0000
  S   S123      1.0  0.14399  0.73866  0.09035  1.0000
  S   S124      1.0  0.17379  0.74462  0.11851  1.0000
  C   C314      1.0  0.07507  0.74802  0.33258  1.0000
  N   N27       1.0  0.16488  0.79535  0.43708  1.0000
  C   C315      1.0  0.12121  0.69409  0.16049  1.0000
  H   H320      1.0  0.07461  0.74083  0.32319  1.0000
  H   H321      1.0  0.06786  0.77330  0.38153  1.0000
  C   C316      1.0  0.12924  0.70894  0.13096  1.0000
  H   H322      1.0  0.18963  0.68814  0.07772  1.0000
  C   C317      1.0  0.19290  0.90204  0.47059  1.0000
  S   S125      1.0  0.10286  0.80240  0.40141  1.0000
  C   C318      1.0  0.19763  0.74960  0.15055  1.0000
  S   S126      1.0  0.18751  0.84351  0.99795  1.0000
  H   H323      1.0  0.07682  0.79487  0.03424  1.0000
  H   H324      1.0  0.17004  0.69208  0.01679  1.0000
  C   C319      1.0  0.07566  0.75176  0.27763  1.0000
  C   C320      1.0  0.07067  0.76215  0.29011  1.0000
  C   C321      1.0  0.08028  0.77460  0.28941  1.0000
  C   C322      1.0  0.09502  0.77666  0.27626  1.0000
  C   C323      1.0  0.10014  0.76613  0.26387  1.0000
  C   C324      1.0  0.09037  0.75380  0.26445  1.0000
  H   H325      1.0  0.05906  0.76089  0.30012  1.0000
  H   H326      1.0  0.07620  0.78264  0.29902  1.0000
  H   H327      1.0  0.11151  0.76772  0.25364  1.0000
  H   H328      1.0  0.09428  0.74581  0.25477  1.0000
  C   C325      1.0  0.13637  0.86361  0.35818  1.0000
  C   C326      1.0  0.12777  0.87208  0.34435  1.0000
  C   C327      1.0  0.11875  0.86319  0.33771  1.0000
  C   C328      1.0  0.11849  0.84566  0.34472  1.0000
  C   C329      1.0  0.12683  0.83733  0.35870  1.0000
  C   C330      1.0  0.13566  0.84624  0.36542  1.0000
  H   H329      1.0  0.12831  0.88551  0.33859  1.0000
  H   H330      1.0  0.11245  0.86976  0.32689  1.0000
  H   H331      1.0  0.12665  0.82379  0.36429  1.0000
  H   H332      1.0  0.14224  0.83948  0.37598  1.0000
  C   C331      1.0  0.18264  0.89366  0.44859  1.0000
  C   C332      1.0  0.19484  0.90033  0.45339  1.0000
  C   C333      1.0  0.16177  0.74113  0.18909  1.0000
  C   C334      1.0  0.03740  0.76314  0.06714  1.0000
  C   C335      1.0  0.20832  0.75028  0.03411  1.0000
  C   C336      1.0  0.16831  0.88895  0.46114  1.0000
  H   H333      1.0  0.21098  0.74357  0.14566  1.0000
  C   C337      1.0  0.14971  0.78964  0.41780  1.0000
  H   H334      1.0  0.05634  0.66877  0.28836  1.0000
  C   C338      1.0  0.23523  0.76228  0.11507  1.0000
  N   N28       1.0  0.23287  0.84901  0.43430  1.0000
  H   H335      1.0  0.99973  0.73897  0.16940  1.0000
  C   C339      1.0  0.22708  0.79132  0.40136  1.0000
  C   C340      1.0  0.21244  0.80473  0.40007  1.0000
  C   C341      1.0  0.20457  0.80851  0.38569  1.0000
  N   N29       1.0  0.99952  0.79081  0.17820  1.0000
  C   C342      1.0  0.07078  0.83110  0.47471  1.0000
  C   C343      1.0  0.20658  0.93945  0.98577  1.0000
  H   H336      1.0  0.19313  0.81875  0.38485  1.0000
  H   H337      1.0  0.99883  0.66850  0.29345  1.0000
  H   H338      1.0  0.02677  0.78452  0.17764  1.0000
  C   C344      1.0  0.02443  0.78170  0.33979  1.0000
  C   C345      1.0  0.03003  0.79735  0.33296  1.0000
  C   C346      1.0  0.02507  0.80795  0.31788  1.0000
  C   C347      1.0  0.01492  0.80263  0.30927  1.0000
  H   H339      1.0  0.15350  0.69598  0.19281  1.0000
  H   H340      1.0  0.02882  0.82037  0.31302  1.0000
  H   H341      1.0  0.03325  0.75734  0.08060  1.0000
  C   C348      1.0  0.03283  0.81446  0.38033  1.0000
  H   H342      1.0  0.99875  0.70150  0.19915  1.0000
  C   C349      1.0  0.23184  0.92087  0.99609  1.0000
  C   C350      1.0  0.13516  0.67420  0.47105  1.0000
  C   C351      1.0  0.04975  0.70080  0.33203  1.0000
  C   C352      1.0  0.14552  0.70666  0.18552  1.0000
  Fe  Fe63      1.0  0.06490  0.69344  0.24404  1.0000
  C   C353      1.0  0.03250  0.66212  0.25722  1.0000
  S   S127      1.0  0.01375  0.73457  0.22543  1.0000
  H   H343      1.0  0.18647  0.85743  0.34828  1.0000
  C   C354      1.0  0.11096  0.83524  0.43505  1.0000
  C   C355      1.0  0.11258  0.84145  0.41720  1.0000
  C   C356      1.0  0.10874  0.83193  0.40699  1.0000
  C   C357      1.0  0.10370  0.81607  0.41455  1.0000
  C   C358      1.0  0.10077  0.81054  0.43256  1.0000
  C   C359      1.0  0.10420  0.82027  0.44283  1.0000
  H   H344      1.0  0.11742  0.85327  0.41114  1.0000
  H   H345      1.0  0.11039  0.83651  0.39316  1.0000
  H   H346      1.0  0.01136  0.76365  0.33590  1.0000
  H   H347      1.0  0.05431  0.71277  0.38484  1.0000
  C   C360      1.0  0.02386  0.75388  0.39905  1.0000
  C   C361      1.0  0.15636  0.72916  0.03558  1.0000
  C   C362      1.0  0.16857  0.72171  0.04622  1.0000
  C   C363      1.0  0.16444  0.72380  0.06344  1.0000
  C   C364      1.0  0.14811  0.73330  0.06999  1.0000
  C   C365      1.0  0.13536  0.73928  0.05985  1.0000
  C   C366      1.0  0.13943  0.73704  0.04268  1.0000
  H   H348      1.0  0.18132  0.71465  0.04112  1.0000
  H   H349      1.0  0.17396  0.71823  0.07156  1.0000
  H   H350      1.0  0.12251  0.74593  0.06515  1.0000
  H   H351      1.0  0.12949  0.74149  0.03497  1.0000
  H   H352      1.0  0.10986  0.73028  0.12174  1.0000
  H   H353      1.0  0.12219  0.70611  0.20575  1.0000
  H   H354      1.0  0.15553  0.66612  0.43523  1.0000
  C   C367      1.0  0.16964  0.81834  0.99897  1.0000
  C   C368      1.0  0.15796  0.81130  0.99370  1.0000
  H   H355      1.0  0.02686  0.67197  0.32976  1.0000
  N   N30       1.0  0.07603  0.76675  0.35647  1.0000
  C   C369      1.0  0.08389  0.73012  0.14988  1.0000
  C   C370      1.0  0.22106  0.66959  0.46068  1.0000
  C   C371      1.0  0.18006  0.78544  0.42989  1.0000
  C   C372      1.0  0.02493  0.87246  0.25489  1.0000
  C   C373      1.0  0.03184  0.86414  0.26982  1.0000
  C   C374      1.0  0.02242  0.85331  0.28297  1.0000
  C   C375      1.0  0.23802  0.87509  0.04324  1.0000
  C   C376      1.0  0.18817  0.74168  0.16614  1.0000
  H   H356      1.0  0.02736  0.84726  0.29468  1.0000
  C   C377      1.0  0.22929  0.67123  0.05546  1.0000
  C   C378      1.0  0.02492  0.74507  0.16660  1.0000
  H   H357      1.0  0.00324  0.70676  0.26110  1.0000
  H   H358      1.0  0.21720  0.87171  0.44288  1.0000
  C   C379      1.0  0.01764  0.73933  0.20283  1.0000
  C   C380      1.0  0.03371  0.74330  0.19344  1.0000
  C   C381      1.0  0.03730  0.74627  0.17534  1.0000
  C   C382      1.0  0.22762  0.77377  0.10178  1.0000
  H   H359      1.0  0.06411  0.69609  0.29028  1.0000
  H   H360      1.0  0.04338  0.74425  0.20009  1.0000
  H   H361      1.0  0.04958  0.74976  0.16813  1.0000
  C   C383      1.0  0.02565  0.77605  0.05852  1.0000
  H   H362      1.0  0.14595  0.72637  0.47023  1.0000
  C   C384      1.0  0.05455  0.75762  0.05831  1.0000
  C   C385      1.0  0.06027  0.76501  0.04083  1.0000
  C   C386      1.0  0.04862  0.77807  0.03222  1.0000
  C   C387      1.0  0.03135  0.78347  0.04102  1.0000
  C   C388      1.0  0.00647  0.85056  0.28115  1.0000
  H   H363      1.0  0.06346  0.74751  0.06509  1.0000
  H   H364      1.0  0.05281  0.78383  0.01876  1.0000
  H   H365      1.0  0.02234  0.79344  0.03423  1.0000
  H   H366      1.0  0.09982  0.75495  0.31911  1.0000
  H   H367      1.0  0.14756  0.83309  0.31048  1.0000
  H   H368      1.0  0.07323  0.72330  0.15769  1.0000
  H   H369      1.0  0.04991  0.74424  0.34831  1.0000
  C   C389      1.0  0.21142  0.79877  0.37260  1.0000
  C   C390      1.0  0.00685  0.68945  0.20438  1.0000
  N   N31       1.0  0.05173  0.81382  0.25465  1.0000
  C   C391      1.0  0.05495  0.79610  0.25844  1.0000
  C   C392      1.0  0.03497  0.82303  0.25514  1.0000
  C   C393      1.0  0.04114  0.78715  0.26390  1.0000
  C   C394      1.0  0.02084  0.81452  0.26037  1.0000
  C   C395      1.0  0.02398  0.79647  0.26498  1.0000
  C   C396      1.0  0.06633  0.82302  0.24915  1.0000
  H   H370      1.0  0.06824  0.78879  0.25737  1.0000
  H   H371      1.0  0.03246  0.83704  0.25159  1.0000
  H   H372      1.0  0.04370  0.77309  0.26739  1.0000
  H   H373      1.0  0.08490  0.85187  0.46705  1.0000
  Fe  Fe64      1.0  0.00535  0.75786  0.13226  1.0000
  H   H374      1.0  0.07783  0.81530  0.25480  1.0000
  H   H375      1.0  0.07028  0.82570  0.23482  1.0000
  H   H376      1.0  0.06261  0.83552  0.25371  1.0000
  C   C397      1.0  0.06126  0.74986  0.34669  1.0000
  H   H377      1.0  0.05084  0.76138  0.36906  1.0000
  H   H378      1.0  0.19204  0.78384  0.43444  1.0000
  C   C398      1.0  0.23651  0.67978  0.43153  1.0000
  C   C399      1.0  0.16462  0.80335  0.45143  1.0000
  C   C400      1.0  0.21704  0.68013  0.06747  1.0000
  H   H379      1.0  0.08966  0.77581  0.37068  1.0000
  C   C401      1.0  0.20487  0.68653  0.43852  1.0000
  H   H380      1.0  0.09556  0.70413  0.17401  1.0000
  C   C402      1.0  0.08927  0.75583  0.33036  1.0000
  C   C403      1.0  0.18053  0.77771  0.41619  1.0000
  H   H381      1.0  0.14983  0.77013  0.16802  1.0000
  H   H382      1.0  0.10051  0.77142  0.34063  1.0000
  C   C404      1.0  0.06190  0.75947  0.35848  1.0000
  S   S128      1.0  0.22903  0.66668  0.98979  1.0000
  N   N32       1.0  0.23137  0.73359  0.04891  1.0000
  C   C405      1.0  0.22041  0.74905  0.04432  1.0000
  C   C406      1.0  0.05701  0.69388  0.30361  1.0000
  H   H383      1.0  0.19275  0.77030  0.41019  1.0000
  C   C407      1.0  0.23154  0.79038  0.09590  1.0000
  C   C408      1.0  0.22383  0.66346  0.04465  1.0000
  H   H384      1.0  0.22061  0.76038  0.04896  1.0000
  C   C409      1.0  0.17313  0.83488  0.99065  1.0000
  H   H385      1.0  0.20614  0.92557  0.01216  1.0000
  H   H386      1.0  0.19437  0.72941  0.17315  1.0000
  C   C410      1.0  0.23383  0.78160  0.38837  1.0000
  C   C411      1.0  0.22057  0.68749  0.42639  1.0000
  H   H387      1.0  0.08847  0.81660  0.00960  1.0000
  C   C412      1.0  0.22150  0.84956  0.42257  1.0000
  C   C413      1.0  0.20768  0.73564  0.02847  1.0000
  Fe  Fe65      1.0  0.10942  0.73883  0.42768  1.0000
  H   H388      1.0  0.14646  0.68776  0.14401  1.0000
  S   S129      1.0  0.01296  0.73194  0.32499  1.0000
  H   H389      1.0  0.09625  0.76366  0.05672  1.0000
  H   H390      1.0  0.17450  0.67709  0.39607  1.0000
  C   C414      1.0  0.13357  0.73141  0.47873  1.0000
  S   S130      1.0  0.20267  0.88866  0.99086  1.0000
  C   C415      1.0  0.12497  0.73433  0.16692  1.0000
  Fe  Fe66      1.0  0.07918  0.72322  0.21763  1.0000
  C   C416      1.0  0.05071  0.73250  0.39961  1.0000
  Fe  Fe67      1.0  0.04022  0.72621  0.23217  1.0000
  H   H391      1.0  0.18246  0.67505  0.00544  1.0000
  H   H392      1.0  0.11705  0.74502  0.15959  1.0000
  S   S131      1.0  0.07236  0.77713  0.43808  1.0000
  H   H393      1.0  0.15404  0.81513  0.45204  1.0000
  H   H394      1.0  0.20598  0.83618  0.06049  1.0000
  H   H395      1.0  0.07735  0.77934  0.06377  1.0000
  C   C417      1.0  0.03965  0.74722  0.40507  1.0000
  H   H396      1.0  0.09666  0.79839  0.43853  1.0000
  N   N33       1.0  0.10076  0.71795  0.14787  1.0000
  C   C418      1.0  0.03161  0.80412  0.39691  1.0000
  H   H397      1.0  0.99953  0.72737  0.28097  1.0000
  H   H398      1.0  0.22561  0.79938  0.08571  1.0000
  C   C419      1.0  0.11202  0.81409  0.01881  1.0000
  H   H399      1.0  0.19257  0.69168  0.00767  1.0000
  N   N34       1.0  0.09865  0.78976  0.04643  1.0000
  S   S132      1.0  0.09518  0.75584  0.40709  1.0000
  H   H400      1.0  0.00754  0.82191  0.26108  1.0000
  C   C420      1.0  0.12035  0.67971  0.46354  1.0000
  Fe  Fe68      1.0  0.16948  0.73168  0.09920  1.0000
  C   C421      1.0  0.03811  0.68947  0.33739  1.0000
  C   C422      1.0  0.00901  0.86954  0.25294  1.0000
  C   C423      1.0  0.04360  0.67317  0.29676  1.0000
  H   H401      1.0  0.17716  0.80756  0.44977  1.0000
  C   C424      1.0  0.11477  0.79309  0.04538  1.0000
  H   H402      1.0  0.14768  0.74272  0.18898  1.0000
  Fe  Fe69      1.0  0.08921  0.75850  0.45575  1.0000
  S   S133      1.0  0.00372  0.78286  0.06907  1.0000
  S   S134      1.0  0.13362  0.71828  0.42387  1.0000
  H   H403      1.0  0.22581  0.87771  0.05235  1.0000
  S   S135      1.0  0.08504  0.73536  0.44779  1.0000
  C   C425      1.0  0.21658  0.83553  0.04926  1.0000
  H   H404      1.0  0.05103  0.70814  0.34093  1.0000
  H   H405      1.0  0.11734  0.82340  0.00788  1.0000
  C   C426      1.0  0.20600  0.66443  0.04587  1.0000
  S   S136      1.0  0.99909  0.78535  0.11804  1.0000
  H   H406      1.0  0.22418  0.83558  0.00636  1.0000
  N   N35       1.0  0.17508  0.84083  0.33948  1.0000
  C   C427      1.0  0.17167  0.82469  0.34154  1.0000
  C   C428      1.0  0.16912  0.85416  0.32696  1.0000
  C   C429      1.0  0.15948  0.85149  0.31609  1.0000
  C   C430      1.0  0.18459  0.84381  0.35129  1.0000
  H   H407      1.0  0.17600  0.81425  0.35176  1.0000
  H   H408      1.0  0.17109  0.86715  0.32584  1.0000
  C   C431      1.0  0.03631  0.68037  0.32566  1.0000
  C   C432      1.0  0.07619  0.77726  0.36864  1.0000
  H   H409      1.0  0.03799  0.66150  0.30346  1.0000
  C   C433      1.0  0.08955  0.76519  0.34254  1.0000
  N   N36       1.0  0.17121  0.74904  0.17225  1.0000
  S   S137      1.0  0.17532  0.70793  0.16004  1.0000
  S   S138      1.0  0.02444  0.71994  0.36907  1.0000
  C   C434      1.0  0.15581  0.83511  0.31821  1.0000
  C   C435      1.0  0.04580  0.72435  0.38866  1.0000
  C   C436      1.0  0.19920  0.68142  0.06844  1.0000
  H   H410      1.0  0.12458  0.68441  0.17167  1.0000
  H   H411      1.0  0.03205  0.88100  0.24469  1.0000
  C   C437      1.0  0.19371  0.67352  0.05773  1.0000
  H   H412      1.0  0.02589  0.70191  0.20821  1.0000
  H   H413      1.0  0.23546  0.87096  0.46357  1.0000
  C   C438      1.0  0.11279  0.71998  0.13265  1.0000
  H   H414      1.0  0.13873  0.71062  0.11888  1.0000
  H   H415      1.0  0.15414  0.86224  0.30668  1.0000
  C   C439      1.0  0.11753  0.72631  0.18358  1.0000
  H   H416      1.0  0.02114  0.78540  0.15740  1.0000
  H   H417      1.0  0.07805  0.83512  0.38485  1.0000
  C   C440      1.0  0.17239  0.77261  0.14755  1.0000
  C   C441      1.0  0.23884  0.86100  0.45588  1.0000
  C   C442      1.0  0.13351  0.69601  0.14501  1.0000
  S   S139      1.0  0.22461  0.68924  0.08110  1.0000
  H   H418      1.0  0.06287  0.72717  0.40414  1.0000
  H   H419      1.0  0.08568  0.82028  0.37025  1.0000
  C   C443      1.0  0.21316  0.83599  0.03315  1.0000
  Fe  Fe70      1.0  0.18435  0.71743  0.13122  1.0000
  C   C444      1.0  0.07428  0.82997  0.37518  1.0000
  H   H420      1.0  0.14788  0.73466  0.14662  1.0000
  S   S140      1.0  0.04369  0.71107  0.25842  1.0000
  S   S141      1.0  0.22009  0.69721  0.40462  1.0000
  H   H421      1.0  0.15874  0.88397  0.45757  1.0000
  H   H422      1.0  0.07178  0.84092  0.36417  1.0000
  S   S142      1.0  0.21226  0.71795  0.11683  1.0000
  H   H423      1.0  0.16073  0.67847  0.47006  1.0000
  H   H424      1.0  0.04805  0.83049  0.36020  1.0000
  C   C445      1.0  0.16328  0.76431  0.16319  1.0000
  H   H425      1.0  0.15863  0.80900  0.33307  1.0000
  H   H426      1.0  0.23653  0.83433  0.06324  1.0000
  C   C446      1.0  0.04684  0.82310  0.37341  1.0000
  N   N37       1.0  0.05904  0.82182  0.38295  1.0000
  H   H427      1.0  0.02907  0.67605  0.25597  1.0000
  H   H428      1.0  0.01116  0.81084  0.29762  1.0000
  H   H429      1.0  0.06721  0.81105  0.40707  1.0000
  C   C447      1.0  0.05766  0.81204  0.39942  1.0000
  S   S143      1.0  0.99665  0.77993  0.30566  1.0000
  Fe  Fe71      1.0  0.20102  0.74423  0.10262  1.0000
  H   H430      1.0  0.03459  0.68181  0.28843  1.0000
  C   C448      1.0  0.13381  0.70197  0.44255  1.0000
  S   S144      1.0  0.19546  0.73405  0.08186  1.0000
  Fe  Fe72      1.0  0.00237  0.72848  0.35371  1.0000
  S   S145      1.0  0.23994  0.73604  0.39969  1.0000
  C   C449      1.0  0.02995  0.73093  0.38274  1.0000
  Fe  Fe73      1.0  0.09721  0.77745  0.41835  1.0000
  S   S146      1.0  0.04486  0.75774  0.41932  1.0000
  C   C450      1.0  0.14249  0.72844  0.15950  1.0000
  H   H431      1.0  0.02781  0.77364  0.35168  1.0000
  H   H432      1.0  0.10305  0.81540  0.45659  1.0000
  C   C451      1.0  0.04400  0.80300  0.40659  1.0000
  H   H433      1.0  0.04314  0.79491  0.41948  1.0000
  H   H434      1.0  0.02331  0.81532  0.37262  1.0000
  S   S147      1.0  0.06753  0.66453  0.25244  1.0000
  C   C452      1.0  0.99978  0.85843  0.26605  1.0000
  S   S148      1.0  0.09512  0.73371  0.19156  1.0000
  H   H435      1.0  0.00690  0.75117  0.38340  1.0000
  C   C453      1.0  0.12784  0.71242  0.19290  1.0000
  S   S149      1.0  0.05994  0.70736  0.21778  1.0000
  Fe  Fe74      1.0  0.07084  0.75436  0.42769  1.0000
  H   H436      1.0  0.16536  0.77391  0.39955  1.0000
  Fe  Fe75      1.0  0.20504  0.70770  0.09678  1.0000
  C   C454      1.0  0.23675  0.67084  0.44865  1.0000
  S   S150      1.0  0.17848  0.70446  0.11262  1.0000
  C   C455      1.0  0.15290  0.71464  0.16876  1.0000
  C   C456      1.0  0.14917  0.68283  0.46451  1.0000
  C   C457      1.0  0.18049  0.68904  0.00548  1.0000
  H   H437      1.0  0.04453  0.67407  0.21975  1.0000
  H   H438      1.0  0.19818  0.73636  0.02078  1.0000
  H   H439      1.0  0.16300  0.74720  0.19941  1.0000
  H   H440      1.0  0.06793  0.71225  0.31057  1.0000
  H   H441      1.0  0.10820  0.69778  0.44352  1.0000
  C   C458      1.0  0.14858  0.69659  0.45013  1.0000
  H   H442      1.0  0.00400  0.87575  0.24127  1.0000
  C   C459      1.0  0.20510  0.67750  0.45563  1.0000
  H   H443      1.0  0.16606  0.78463  0.14027  1.0000
  H   H444      1.0  0.18496  0.69089  0.40283  1.0000
  H   H445      1.0  0.14850  0.70231  0.99885  1.0000
  H   H446      1.0  0.99577  0.83427  0.15355  1.0000
  H   H447      1.0  0.11143  0.78263  0.46283  1.0000
  C   C460      1.0  0.09579  0.81031  0.01979  1.0000
  S   S151      1.0  0.21298  0.76815  0.09220  1.0000
  H   H448      1.0  0.19685  0.77145  0.12908  1.0000
  C   C461      1.0  0.14978  0.79726  0.43139  1.0000
  H   H449      1.0  0.16700  0.72694  0.19232  1.0000
  C   C462      1.0  0.08927  0.79801  0.03376  1.0000
  C   C463      1.0  0.18970  0.76521  0.14126  1.0000
  C   C464      1.0  0.12161  0.80543  0.03166  1.0000
  H   H450      1.0  0.19251  0.69260  0.43462  1.0000
  H   H451      1.0  0.20833  0.66517  0.40839  1.0000
  H   H452      1.0  0.19990  0.83695  0.03167  1.0000
  C   C465      1.0  0.11958  0.69374  0.44945  1.0000
  C   C466      1.0  0.19884  0.66010  0.41932  1.0000
  H   H453      1.0  0.00940  0.71998  0.08574  1.0000
  C   C467      1.0  0.22698  0.83532  0.01879  1.0000
  C   C468      1.0  0.22860  0.86141  0.44414  1.0000
  H   H454      1.0  0.23337  0.65628  0.03575  1.0000
  S   S152      1.0  0.11415  0.76081  0.43657  1.0000
  H   H455      1.0  0.22582  0.88267  0.02091  1.0000
  H   H456      1.0  0.13771  0.79143  0.41319  1.0000
  H   H457      1.0  0.13444  0.80799  0.03074  1.0000
  C   C469      1.0  0.21408  0.92839  0.99928  1.0000
  H   H458      1.0  0.19296  0.67665  0.46490  1.0000
  H   H459      1.0  0.20584  0.90424  0.44373  1.0000
  S   S153      1.0  0.19875  0.65395  0.03317  1.0000
  H   H460      1.0  0.03025  0.68813  0.35044  1.0000
  H   H461      1.0  0.20531  0.80146  0.36156  1.0000
  H   H462      1.0  0.01315  0.78970  0.26947  1.0000
  H   H463      1.0  0.06439  0.83544  0.46368  1.0000
  C   C470      1.0  0.23800  0.87790  0.02545  1.0000
  H   H464      1.0  0.19271  0.94520  0.98795  1.0000
  H   H465      1.0  0.21860  0.70845  0.02895  1.0000
  C   C471      1.0  0.16941  0.66076  0.43437  1.0000
  C   C472      1.0  0.21911  0.72002  0.03301  1.0000
  H   H466      1.0  0.20955  0.84472  0.43014  1.0000
  H   H467      1.0  0.16241  0.79402  0.46396  1.0000
  S   S154      1.0  0.00257  0.74604  0.11133  1.0000
  H   H468      1.0  0.19933  0.76241  0.03085  1.0000
  C   C473      1.0  0.05923  0.70309  0.31503  1.0000
  H   H469      1.0  0.01515  0.76521  0.40319  1.0000
  H   H470      1.0  0.12819  0.80013  0.47089  1.0000
  C   C474      1.0  0.01474  0.77617  0.33096  1.0000
  H   H471      1.0  0.23265  0.70564  0.45368  1.0000
  N   N38       1.0  0.01233  0.65833  0.21273  1.0000
  H   H472      1.0  0.01906  0.80525  0.16429  1.0000
  H   H473      1.0  0.16268  0.68975  0.41229  1.0000
  C   C475      1.0  0.11221  0.78098  0.47621  1.0000
  H   H474      1.0  0.23324  0.78839  0.41243  1.0000
  C   C476      1.0  0.00522  0.73809  0.19415  1.0000
  H   H475      1.0  0.23260  0.74931  0.11940  1.0000
  H   H476      1.0  0.99755  0.70458  0.08406  1.0000
  C   C477      1.0  0.23105  0.71929  0.04315  1.0000
  H   H477      1.0  0.10951  0.67303  0.46854  1.0000
  N   N39       1.0  0.04588  0.68247  0.30907  1.0000
  S   S155      1.0  0.00067  0.69571  0.30901  1.0000
  H   H478      1.0  0.24304  0.67028  0.05464  1.0000
  H   H479      1.0  0.17988  0.67433  0.05878  1.0000
  C   C478      1.0  0.16600  0.89131  0.47820  1.0000
  C   C479      1.0  0.03261  0.67408  0.21580  1.0000
  C   C480      1.0  0.01752  0.79154  0.16892  1.0000
  C   C481      1.0  0.23371  0.83435  0.05085  1.0000
  H   H480      1.0  0.99934  0.84224  0.29154  1.0000
  C   C482      1.0  0.15883  0.70488  0.98766  1.0000
  H   H481      1.0  0.21744  0.86307  0.41554  1.0000
  H   H482      1.0  0.99926  0.74790  0.07100  1.0000
  H   H483      1.0  0.12432  0.73937  0.47032  1.0000
  H   H484      1.0  0.00179  0.74255  0.26045  1.0000
  H   H485      1.0  0.23991  0.70714  0.04668  1.0000
  C   C483      1.0  0.08236  0.84039  0.47673  1.0000
  H   H486      1.0  0.99989  0.80673  0.19527  1.0000
  H   H487      1.0  0.22810  0.84144  0.41274  1.0000
  C   C484      1.0  0.01934  0.65247  0.25975  1.0000
  C   C485      1.0  0.05011  0.65361  0.25621  1.0000
  Fe  Fe76      1.0  0.12864  0.78572  0.98336  1.0000
  H   H488      1.0  0.10599  0.71936  0.47740  1.0000
  C   C486      1.0  0.02748  0.65843  0.21739  1.0000
  H   H489      1.0  0.24011  0.74310  0.06689  1.0000
  H   H490      1.0  0.00581  0.65898  0.26050  1.0000
  C   C487      1.0  0.99651  0.71597  0.08970  1.0000
  H   H491      1.0  0.23787  0.91228  0.00646  1.0000
  C   C488      1.0  0.24280  0.79560  0.10337  1.0000
  Fe  Fe77      1.0  0.24250  0.71096  0.39183  1.0000
  N   N40       1.0  0.24370  0.83447  0.02039  1.0000
  H   H492      1.0  0.24402  0.72314  0.44421  1.0000
  C   C489      1.0  0.14937  0.82095  0.98031  1.0000
  Fe  Fe78      1.0  0.19984  0.86603  0.98104  1.0000
  H   H493      1.0  0.24410  0.72001  0.06974  1.0000
  C   C490      1.0  0.24383  0.73226  0.05980  1.0000
  H   H494      1.0  0.10508  0.89251  0.71429  1.0000
  H   H495      1.0  0.20463  0.68367  0.91317  1.0000
  C   C491      1.0  0.08830  0.81981  0.50203  1.0000
  H   H496      1.0  0.17230  0.73925  0.55504  1.0000
  C   C492      1.0  0.19498  0.87354  0.59546  1.0000
  S   S156      1.0  0.13441  0.81287  0.97326  1.0000
  H   H497      1.0  0.20439  0.95462  0.79659  1.0000
  C   C493      1.0  0.17870  0.96428  0.75086  1.0000
  S   S157      1.0  0.18431  0.93119  0.95837  1.0000
  S   S158      1.0  0.20767  0.93965  0.55204  1.0000
  C   C494      1.0  0.15154  0.75379  0.87698  1.0000
  C   C495      1.0  0.15466  0.86699  0.52608  1.0000
  H   H498      1.0  0.23647  0.76016  0.54981  1.0000
  C   C496      1.0  0.23986  0.81357  0.83652  1.0000
  H   H499      1.0  0.10174  0.85747  0.48473  1.0000
  H   H500      1.0  0.19949  0.85963  0.59661  1.0000
  C   C497      1.0  0.20010  0.86838  0.69930  1.0000
  Fe  Fe79      1.0  0.22572  0.75036  0.90163  1.0000
  S   S159      1.0  0.20682  0.92335  0.78482  1.0000
  S   S160      1.0  0.19604  0.90028  0.54331  1.0000
  Fe  Fe80      1.0  0.23143  0.96644  0.84135  1.0000
  C   C498      1.0  0.20815  0.66239  0.93481  1.0000
  H   H501      1.0  0.16135  0.89925  0.71243  1.0000
  S   S161      1.0  0.22843  0.79805  0.85108  1.0000
  Fe  Fe81      1.0  0.14488  0.78174  0.56475  1.0000
  S   S162      1.0  0.12350  0.80283  0.55526  1.0000
  S   S163      1.0  0.13837  0.75921  0.58556  1.0000
  Fe  Fe82      1.0  0.17372  0.79944  0.54229  1.0000
  S   S164      1.0  0.15468  0.82195  0.53087  1.0000
  S   S165      1.0  0.20259  0.79890  0.53306  1.0000
  Fe  Fe83      1.0  0.13949  0.82067  0.55829  1.0000
  S   S166      1.0  0.12704  0.84423  0.57065  1.0000
  Fe  Fe84      1.0  0.14084  0.80172  0.52896  1.0000
  S   S167      1.0  0.13340  0.80338  0.50323  1.0000
  S   S168      1.0  0.15946  0.79946  0.56974  1.0000
  S   S169      1.0  0.16116  0.77934  0.53847  1.0000
  C   C499      1.0  0.14734  0.96732  0.75893  1.0000
  S   S170      1.0  0.24106  0.93839  0.83985  1.0000
  H   H502      1.0  0.18282  0.80655  0.95825  1.0000
  H   H503      1.0  0.13520  0.68587  0.52569  1.0000
  H   H504      1.0  0.18157  0.86550  0.55969  1.0000
  S   S171      1.0  0.20208  0.71854  0.62034  1.0000
  Fe  Fe85      1.0  0.14743  0.65784  0.86595  1.0000
  H   H505      1.0  0.14682  0.66184  0.93198  1.0000
  C   C500      1.0  0.09914  0.91474  0.72620  1.0000
  Fe  Fe86      1.0  0.13525  0.90481  0.67020  1.0000
  S   S172      1.0  0.13340  0.87668  0.68052  1.0000
  S   S173      1.0  0.11446  0.92714  0.67962  1.0000
  Fe  Fe87      1.0  0.17124  0.89527  0.64888  1.0000
  S   S174      1.0  0.17329  0.86669  0.65826  1.0000
  S   S175      1.0  0.19230  0.90688  0.62948  1.0000
  Fe  Fe88      1.0  0.14594  0.87224  0.65334  1.0000
  S   S176      1.0  0.14207  0.85140  0.64097  1.0000
  Fe  Fe89      1.0  0.16080  0.87315  0.68440  1.0000
  S   S177      1.0  0.16696  0.86167  0.71099  1.0000
  S   S178      1.0  0.14466  0.90081  0.64260  1.0000
  S   S179      1.0  0.16196  0.90110  0.67547  1.0000
  Fe  Fe90      1.0  0.13552  0.67449  0.89800  1.0000
  S   S180      1.0  0.13713  0.68574  0.86936  1.0000
  S   S181      1.0  0.11661  0.68327  0.92152  1.0000
  Fe  Fe91      1.0  0.16501  0.68611  0.86922  1.0000
  H   H506      1.0  0.12953  0.93149  0.73532  1.0000
  H   H507      1.0  0.24424  0.68774  0.90855  1.0000
  S   S182      1.0  0.16255  0.67660  0.89767  1.0000
  Fe  Fe92      1.0  0.12348  0.75545  0.97026  1.0000
  H   H508      1.0  0.21451  0.81685  0.95531  1.0000
  S   S183      1.0  0.22186  0.65829  0.48196  1.0000
  H   H509      1.0  0.23664  0.84219  0.52951  1.0000
  H   H510      1.0  0.16754  0.94326  0.91063  1.0000
  N   N41       1.0  0.16444  0.96133  0.78084  1.0000
  S   S184      1.0  0.23436  0.86901  0.92050  1.0000
  H   H511      1.0  0.23023  0.84098  0.74353  1.0000
  H   H512      1.0  0.09760  0.93668  0.73723  1.0000
  C   C501      1.0  0.18182  0.85985  0.53511  1.0000
  N   N42       1.0  0.17223  0.86017  0.52333  1.0000
  H   H513      1.0  0.13679  0.88748  0.71305  1.0000
  Fe  Fe93      1.0  0.23677  0.77814  0.91286  1.0000
  H   H514      1.0  0.21767  0.96046  0.81802  1.0000
  C   C502      1.0  0.24489  0.93819  0.94855  1.0000
  H   H515      1.0  0.14075  0.71845  0.97077  1.0000
  Fe  Fe94      1.0  0.22025  0.87965  0.54079  1.0000
  C   C503      1.0  0.16032  0.79679  0.93593  1.0000
  S   S185      1.0  0.22252  0.85526  0.56115  1.0000
  H   H516      1.0  0.15263  0.95989  0.80776  1.0000
  H   H517      1.0  0.19406  0.73035  0.55874  1.0000
  H   H518      1.0  0.15840  0.91882  0.71987  1.0000
  S   S186      1.0  0.23984  0.97960  0.85814  1.0000
  S   S187      1.0  0.20255  0.97583  0.84908  1.0000
  N   N43       1.0  0.12645  0.71692  0.49071  1.0000
  H   H519      1.0  0.21103  0.95138  0.95881  1.0000
  C   C504      1.0  0.10609  0.69776  0.49890  1.0000
  Fe  Fe95      1.0  0.20035  0.90413  0.96391  1.0000
  H   H520      1.0  0.21495  0.84793  0.94869  1.0000
  C   C505      1.0  0.24007  0.94200  0.55672  1.0000
  C   C506      1.0  0.19902  0.72600  0.89649  1.0000
  C   C507      1.0  0.18500  0.71222  0.95908  1.0000
  C   C508      1.0  0.16092  0.75102  0.86069  1.0000
  C   C509      1.0  0.19053  0.92762  0.63300  1.0000
  C   C510      1.0  0.17585  0.93499  0.64411  1.0000
  C   C511      1.0  0.17594  0.94992  0.64967  1.0000
  C   C512      1.0  0.19043  0.95781  0.64348  1.0000
  C   C513      1.0  0.20417  0.95158  0.63080  1.0000
  C   C514      1.0  0.20436  0.93632  0.62573  1.0000
  H   H521      1.0  0.16455  0.92905  0.64872  1.0000
  H   H522      1.0  0.21551  0.93094  0.61670  1.0000
  C   C515      1.0  0.18637  0.86607  0.71351  1.0000
  C   C516      1.0  0.22736  0.91231  0.67653  1.0000
  C   C517      1.0  0.23042  0.93388  0.82562  1.0000
  C   C518      1.0  0.21596  0.68712  0.54620  1.0000
  C   C519      1.0  0.20893  0.69019  0.53142  1.0000
  C   C520      1.0  0.19223  0.68717  0.53289  1.0000
  H   H523      1.0  0.23805  0.81229  0.79409  1.0000
  H   H524      1.0  0.21496  0.95812  0.62527  1.0000
  C   C521      1.0  0.20630  0.68093  0.56247  1.0000
  H   H525      1.0  0.21634  0.69491  0.51880  1.0000
  H   H526      1.0  0.18693  0.68942  0.52139  1.0000
  S   S188      1.0  0.18008  0.70765  0.85700  1.0000
  H   H527      1.0  0.21186  0.67808  0.57385  1.0000
  C   C522      1.0  0.13346  0.84807  0.58850  1.0000
  C   C523      1.0  0.12299  0.86127  0.59705  1.0000
  C   C524      1.0  0.12653  0.86357  0.61234  1.0000
  C   C525      1.0  0.14069  0.85276  0.61921  1.0000
  C   C526      1.0  0.15178  0.84025  0.61007  1.0000
  C   C527      1.0  0.14821  0.83791  0.59479  1.0000
  H   H528      1.0  0.11158  0.86926  0.59227  1.0000
  H   H529      1.0  0.11765  0.87301  0.61940  1.0000
  H   H530      1.0  0.16269  0.83170  0.61531  1.0000
  H   H531      1.0  0.15658  0.82789  0.58823  1.0000
  C   C528      1.0  0.15608  0.74959  0.59581  1.0000
  C   C529      1.0  0.17297  0.75225  0.58762  1.0000
  C   C530      1.0  0.18726  0.74326  0.59539  1.0000
  C   C531      1.0  0.18453  0.73201  0.61150  1.0000
  C   C532      1.0  0.16750  0.73032  0.62016  1.0000
  C   C533      1.0  0.15332  0.73886  0.61218  1.0000
  H   H532      1.0  0.17513  0.76067  0.57502  1.0000
  H   H533      1.0  0.20038  0.74482  0.58882  1.0000
  H   H534      1.0  0.16539  0.72167  0.63265  1.0000
  H   H535      1.0  0.14026  0.73693  0.61859  1.0000
  C   C534      1.0  0.20929  0.81345  0.54147  1.0000
  C   C535      1.0  0.22234  0.82239  0.53135  1.0000
  C   C536      1.0  0.22697  0.83487  0.53759  1.0000
  C   C537      1.0  0.21874  0.83816  0.55408  1.0000
  C   C538      1.0  0.20631  0.82863  0.56451  1.0000
  C   C539      1.0  0.20145  0.81643  0.55812  1.0000
  H   H536      1.0  0.22849  0.82006  0.51848  1.0000
  C   C540      1.0  0.11235  0.71216  0.48807  1.0000
  H   H537      1.0  0.19994  0.83112  0.57728  1.0000
  H   H538      1.0  0.19167  0.80931  0.56615  1.0000
  C   C541      1.0  0.12285  0.78907  0.49815  1.0000
  C   C542      1.0  0.11426  0.77719  0.51092  1.0000
  C   C543      1.0  0.10432  0.76760  0.50634  1.0000
  C   C544      1.0  0.10304  0.76964  0.48898  1.0000
  C   C545      1.0  0.17940  0.96132  0.76837  1.0000
  H   H539      1.0  0.10471  0.84295  0.50498  1.0000
  H   H540      1.0  0.11481  0.77580  0.52436  1.0000
  H   H541      1.0  0.09734  0.75879  0.51634  1.0000
  H   H542      1.0  0.12772  0.65211  0.81004  1.0000
  C   C546      1.0  0.23195  0.84758  0.92366  1.0000
  H   H543      1.0  0.22864  0.70165  0.92171  1.0000
  Fe  Fe96      1.0  0.21450  0.91890  0.53569  1.0000
  H   H544      1.0  0.08523  0.91728  0.72637  1.0000
  Fe  Fe97      1.0  0.19812  0.90229  0.51480  1.0000
  C   C547      1.0  0.22183  0.94604  0.56180  1.0000
  C   C548      1.0  0.12712  0.96601  0.70517  1.0000
  C   C549      1.0  0.14061  0.95408  0.69728  1.0000
  C   C550      1.0  0.13691  0.94247  0.68912  1.0000
  C   C551      1.0  0.11963  0.94252  0.68875  1.0000
  C   C552      1.0  0.10611  0.95472  0.69635  1.0000
  C   C553      1.0  0.10981  0.96638  0.70460  1.0000
  H   H545      1.0  0.15407  0.95377  0.69744  1.0000
  H   H546      1.0  0.14749  0.93357  0.68301  1.0000
  H   H547      1.0  0.09269  0.95500  0.69604  1.0000
  S   S189      1.0  0.08938  0.75837  0.48379  1.0000
  S   S190      1.0  0.21444  0.92284  0.50713  1.0000
  N   N44       1.0  0.17579  0.79505  0.94093  1.0000
  C   C554      1.0  0.16754  0.71786  0.95753  1.0000
  C   C555      1.0  0.23302  0.91694  0.82314  1.0000
  S   S191      1.0  0.19457  0.88229  0.95543  1.0000
  H   H548      1.0  0.19225  0.81319  0.93561  1.0000
  C   C556      1.0  0.18881  0.94706  0.93937  1.0000
  C   C557      1.0  0.17721  0.96307  0.93807  1.0000
  Fe  Fe98      1.0  0.16919  0.66002  0.53041  1.0000
  C   C558      1.0  0.19417  0.97386  0.90987  1.0000
  H   H549      1.0  0.22055  0.87931  0.58386  1.0000
  S   S192      1.0  0.14716  0.76314  0.97362  1.0000
  H   H550      1.0  0.16599  0.96530  0.94842  1.0000
  H   H551      1.0  0.17806  0.91367  0.92675  1.0000
  H   H552      1.0  0.11004  0.67664  0.52056  1.0000
  H   H553      1.0  0.16809  0.87199  0.60694  1.0000
  C   C559      1.0  0.12590  0.72972  0.93840  1.0000
  C   C560      1.0  0.13365  0.72626  0.92183  1.0000
  C   C561      1.0  0.13076  0.71215  0.91664  1.0000
  C   C562      1.0  0.12024  0.70113  0.92802  1.0000
  C   C563      1.0  0.11261  0.70440  0.94473  1.0000
  C   C564      1.0  0.11546  0.71862  0.94995  1.0000
  H   H554      1.0  0.14179  0.73466  0.91286  1.0000
  H   H555      1.0  0.13626  0.71003  0.90363  1.0000
  H   H556      1.0  0.10430  0.69603  0.95360  1.0000
  H   H557      1.0  0.19826  0.66590  0.89569  1.0000
  H   H558      1.0  0.19881  0.86749  0.68664  1.0000
  H   H559      1.0  0.17258  0.94419  0.80298  1.0000
  H   H560      1.0  0.15736  0.89843  0.73533  1.0000
  H   H561      1.0  0.17760  0.86526  0.74093  1.0000
  C   C565      1.0  0.22529  0.91358  0.81099  1.0000
  C   C566      1.0  0.22217  0.84017  0.93929  1.0000
  H   H562      1.0  0.21918  0.96979  0.59200  1.0000
  H   H563      1.0  0.19538  0.71466  0.94788  1.0000
  H   H564      1.0  0.20038  0.95944  0.57853  1.0000
  H   H565      1.0  0.17297  0.68496  0.94591  1.0000
  C   C567      1.0  0.18030  0.80982  0.94487  1.0000
  H   H566      1.0  0.16422  0.72496  0.94521  1.0000
  N   N45       1.0  0.16164  0.66283  0.94991  1.0000
  C   C568      1.0  0.21699  0.94274  0.96921  1.0000
  H   H567      1.0  0.18464  0.75307  0.84184  1.0000
  C   C569      1.0  0.10428  0.84361  0.49129  1.0000
  C   C570      1.0  0.21585  0.87104  0.70158  1.0000
  H   H568      1.0  0.14704  0.86751  0.51666  1.0000
  N   N46       1.0  0.12892  0.80392  0.61896  1.0000
  C   C571      1.0  0.13023  0.81159  0.63162  1.0000
  C   C572      1.0  0.14034  0.78899  0.61571  1.0000
  C   C573      1.0  0.14372  0.80471  0.64090  1.0000
  C   C574      1.0  0.15394  0.78169  0.62479  1.0000
  C   C575      1.0  0.15567  0.78969  0.63739  1.0000
  C   C576      1.0  0.11488  0.81130  0.60916  1.0000
  H   H569      1.0  0.12122  0.82346  0.63424  1.0000
  H   H570      1.0  0.13905  0.78273  0.60594  1.0000
  H   H571      1.0  0.14506  0.81128  0.65045  1.0000
  H   H572      1.0  0.16309  0.76994  0.62199  1.0000
  H   H573      1.0  0.16628  0.78430  0.64439  1.0000
  H   H574      1.0  0.10408  0.80404  0.61444  1.0000
  H   H575      1.0  0.10962  0.82524  0.60957  1.0000
  H   H576      1.0  0.11988  0.81067  0.59524  1.0000
  C   C577      1.0  0.18741  0.77956  0.94202  1.0000
  C   C578      1.0  0.15646  0.78288  0.93133  1.0000
  C   C579      1.0  0.18399  0.76542  0.93753  1.0000
  C   C580      1.0  0.16851  0.76717  0.93195  1.0000
  H   H577      1.0  0.19943  0.77806  0.94642  1.0000
  H   H578      1.0  0.14399  0.78410  0.92785  1.0000
  H   H579      1.0  0.19329  0.75319  0.93848  1.0000
  H   H580      1.0  0.16564  0.75622  0.92861  1.0000
  N   N47       1.0  0.17458  0.71594  0.57401  1.0000
  C   C581      1.0  0.18465  0.70774  0.58610  1.0000
  C   C582      1.0  0.15787  0.71348  0.57656  1.0000
  C   C583      1.0  0.17795  0.69699  0.60138  1.0000
  C   C584      1.0  0.15074  0.70279  0.59167  1.0000
  C   C585      1.0  0.16085  0.69457  0.60418  1.0000
  C   C586      1.0  0.18183  0.72691  0.55788  1.0000
  H   H581      1.0  0.19792  0.70960  0.58411  1.0000
  H   H582      1.0  0.14995  0.71985  0.56689  1.0000
  H   H583      1.0  0.18590  0.69095  0.61110  1.0000
  H   H584      1.0  0.13746  0.70093  0.59362  1.0000
  H   H585      1.0  0.15544  0.68639  0.61604  1.0000
  H   H586      1.0  0.16717  0.85715  0.97070  1.0000
  C   C587      1.0  0.21974  0.94734  0.81627  1.0000
  C   C588      1.0  0.11439  0.68819  0.51245  1.0000
  N   N48       1.0  0.23424  0.93477  0.96605  1.0000
  H   H587      1.0  0.15590  0.74466  0.85327  1.0000
  H   H588      1.0  0.23558  0.65733  0.62719  1.0000
  C   C589      1.0  0.22591  0.90335  0.88302  1.0000
  H   H589      1.0  0.16965  0.82150  0.94394  1.0000
  S   S193      1.0  0.17551  0.65954  0.86339  1.0000
  H   H590      1.0  0.19200  0.95889  0.77195  1.0000
  C   C590      1.0  0.20456  0.67005  0.91834  1.0000
  H   H591      1.0  0.21704  0.82807  0.82634  1.0000
  S   S194      1.0  0.21655  0.77904  0.89812  1.0000
  C   C591      1.0  0.16473  0.84436  0.97710  1.0000
  H   H592      1.0  0.22448  0.88965  0.88528  1.0000
  S   S195      1.0  0.22866  0.87698  0.77195  1.0000
  H   H593      1.0  0.20771  0.93358  0.66733  1.0000
  S   S196      1.0  0.21102  0.67500  0.94798  1.0000
  H   H594      1.0  0.14587  0.71134  0.50607  1.0000
  C   C592      1.0  0.17187  0.89845  0.59945  1.0000
  C   C593      1.0  0.21446  0.95608  0.57459  1.0000
  C   C594      1.0  0.18820  0.86710  0.72990  1.0000
  C   C595      1.0  0.11026  0.90084  0.71941  1.0000
  H   H595      1.0  0.21832  0.82550  0.77300  1.0000
  C   C596      1.0  0.22167  0.82258  0.94293  1.0000
  H   H596      1.0  0.17588  0.66032  0.96954  1.0000
  S   S197      1.0  0.22077  0.88000  0.51315  1.0000
  C   C597      1.0  0.13457  0.70771  0.50408  1.0000
  H   H597      1.0  0.07533  0.79802  0.50938  1.0000
  Fe  Fe99      1.0  0.23124  0.88180  0.97932  1.0000
  H   H598      1.0  0.23671  0.94152  0.93855  1.0000
  C   C598      1.0  0.18902  0.70294  0.97505  1.0000
  C   C599      1.0  0.15395  0.90632  0.72292  1.0000
  N   N49       1.0  0.13503  0.90924  0.72399  1.0000
  C   C600      1.0  0.12419  0.92265  0.73107  1.0000
  C   C601      1.0  0.12826  0.89820  0.71851  1.0000
  C   C602      1.0  0.10609  0.92562  0.73226  1.0000
  C   C603      1.0  0.07695  0.81011  0.50032  1.0000
  Fe  Fe100     1.0  0.22110  0.65674  0.97041  1.0000
  H   H599      1.0  0.09540  0.81509  0.51255  1.0000
  H   H600      1.0  0.22185  0.90256  0.67392  1.0000
  C   C604      1.0  0.12860  0.69328  0.51521  1.0000
  Fe  Fe101     1.0  0.19640  0.65235  0.49874  1.0000
  S   S198      1.0  0.10482  0.77910  0.97868  1.0000
  Fe  Fe102     1.0  0.21811  0.98120  0.63996  1.0000
  C   C605      1.0  0.16255  0.96734  0.74613  1.0000
  S   S199      1.0  0.13290  0.97979  0.71571  1.0000
  C   C606      1.0  0.17992  0.97635  0.92355  1.0000
  H   H601      1.0  0.18798  0.93356  0.59375  1.0000
  C   C607      1.0  0.20091  0.90247  0.58697  1.0000
  H   H602      1.0  0.21023  0.91098  0.58161  1.0000
  H   H603      1.0  0.16586  0.93108  0.60127  1.0000
  H   H604      1.0  0.20502  0.89526  0.91351  1.0000
  C   C608      1.0  0.17726  0.75571  0.85434  1.0000
  C   C609      1.0  0.20684  0.88459  0.58830  1.0000
  N   N50       1.0  0.18366  0.90915  0.59272  1.0000
  C   C610      1.0  0.17737  0.88047  0.60110  1.0000
  C   C611      1.0  0.17778  0.92793  0.59134  1.0000
  H   H605      1.0  0.16513  0.71065  0.89234  1.0000
  H   H606      1.0  0.22999  0.90790  0.86880  1.0000
  H   H607      1.0  0.17524  0.93412  0.57816  1.0000
  H   H608      1.0  0.15819  0.90376  0.60393  1.0000
  S   S200      1.0  0.23327  0.72232  0.57328  1.0000
  H   H609      1.0  0.18482  0.71998  0.54702  1.0000
  C   C612      1.0  0.16126  0.68147  0.94390  1.0000
  H   H610      1.0  0.09520  0.69376  0.49647  1.0000
  S   S201      1.0  0.23001  0.79039  0.93592  1.0000
  C   C613      1.0  0.22511  0.96200  0.58226  1.0000
  C   C614      1.0  0.23091  0.82696  0.82534  1.0000
  H   H611      1.0  0.16144  0.68546  0.92979  1.0000
  H   H612      1.0  0.17316  0.96671  0.80108  1.0000
  H   H613      1.0  0.22671  0.87197  0.69068  1.0000
  C   C615      1.0  0.20343  0.94446  0.92589  1.0000
  C   C616      1.0  0.14854  0.96419  0.77634  1.0000
  Fe  Fe103     1.0  0.22824  0.90498  0.77121  1.0000
  S   S202      1.0  0.23133  0.68297  0.59612  1.0000
  H   H614      1.0  0.16503  0.95501  0.65908  1.0000
  C   C617      1.0  0.17910  0.93494  0.90474  1.0000
  H   H615      1.0  0.18436  0.95421  0.88157  1.0000
  H   H616      1.0  0.17184  0.85343  0.49961  1.0000
  C   C618      1.0  0.20061  0.66008  0.90860  1.0000
  C   C619      1.0  0.17832  0.89779  0.48302  1.0000
  C   C620      1.0  0.18503  0.91834  0.91379  1.0000
  Fe  Fe104     1.0  0.23710  0.90011  0.50746  1.0000
  C   C621      1.0  0.21768  0.87222  0.71790  1.0000
  C   C622      1.0  0.18858  0.94109  0.88842  1.0000
  C   C623      1.0  0.15854  0.76123  0.88672  1.0000
  C   C624      1.0  0.17385  0.86602  0.55033  1.0000
  H   H617      1.0  0.21155  0.71968  0.85493  1.0000
  C   C625      1.0  0.21203  0.94399  0.80417  1.0000
  C   C626      1.0  0.18952  0.67798  0.56396  1.0000
  H   H618      1.0  0.11736  0.83733  0.48480  1.0000
  C   C627      1.0  0.17770  0.71422  0.88903  1.0000
  C   C628      1.0  0.20373  0.87051  0.73205  1.0000
  H   H619      1.0  0.10924  0.72120  0.96272  1.0000
  H   H620      1.0  0.13901  0.74985  0.88217  1.0000
  C   C629      1.0  0.14629  0.87358  0.54101  1.0000
  C   C630      1.0  0.24245  0.90756  0.68357  1.0000
  S   S203      1.0  0.19242  0.97401  0.65305  1.0000
  C   C631      1.0  0.20392  0.93050  0.88135  1.0000
  H   H621      1.0  0.21139  0.93552  0.86879  1.0000
  C   C632      1.0  0.18785  0.71392  0.87242  1.0000
  S   S204      1.0  0.16233  0.67611  0.55057  1.0000
  C   C633      1.0  0.20927  0.72582  0.87986  1.0000
  N   N51       1.0  0.09101  0.83465  0.49022  1.0000
  Fe  Fe105     1.0  0.22363  0.87619  0.94643  1.0000
  H   H622      1.0  0.15139  0.76324  0.89949  1.0000
  C   C634      1.0  0.18247  0.68121  0.54917  1.0000
  H   H623      1.0  0.23274  0.84913  0.80425  1.0000
  S   S205      1.0  0.23863  0.89784  0.53519  1.0000
  H   H624      1.0  0.18053  0.77117  0.88775  1.0000
  H   H625      1.0  0.20810  0.76688  0.86769  1.0000
  N   N52       1.0  0.20952  0.91414  0.89023  1.0000
  H   H626      1.0  0.17527  0.72026  0.91387  1.0000
  C   C635      1.0  0.21497  0.92715  0.80132  1.0000
  C   C636      1.0  0.18334  0.72001  0.90110  1.0000
  S   S206      1.0  0.17501  0.90055  0.50459  1.0000
  C   C637      1.0  0.17499  0.76567  0.88002  1.0000
  H   H627      1.0  0.21003  0.75894  0.84866  1.0000
  C   C638      1.0  0.20037  0.90807  0.90630  1.0000
  H   H628      1.0  0.22918  0.78182  0.56820  1.0000
  H   H629      1.0  0.19574  0.85493  0.53262  1.0000
  C   C639      1.0  0.18116  0.85345  0.50760  1.0000
  H   H630      1.0  0.20263  0.69831  0.97607  1.0000
  H   H631      1.0  0.13468  0.96992  0.75536  1.0000
  C   C640      1.0  0.20126  0.76771  0.85714  1.0000
  C   C641      1.0  0.22674  0.94225  0.67589  1.0000
  C   C642      1.0  0.23201  0.82645  0.76936  1.0000
  C   C643      1.0  0.15596  0.87298  0.55325  1.0000
  N   N53       1.0  0.18418  0.76273  0.86408  1.0000
  S   S207      1.0  0.17162  0.67225  0.50228  1.0000
  H   H632      1.0  0.14610  0.84512  0.96183  1.0000
  H   H633      1.0  0.19961  0.78125  0.84960  1.0000
  H   H634      1.0  0.15456  0.88822  0.48765  1.0000
  C   C644      1.0  0.15344  0.65468  0.94242  1.0000
  C   C645      1.0  0.15274  0.83752  0.97214  1.0000
  Fe  Fe106     1.0  0.22627  0.70987  0.60126  1.0000
  C   C646      1.0  0.21941  0.92976  0.67280  1.0000
  C   C647      1.0  0.16571  0.95781  0.79909  1.0000
  C   C648      1.0  0.24438  0.76860  0.54039  1.0000
  C   C649      1.0  0.20367  0.71978  0.86782  1.0000
  H   H635      1.0  0.23923  0.69010  0.94791  1.0000
  H   H636      1.0  0.14953  0.87778  0.56501  1.0000
  C   C650      1.0  0.16940  0.65387  0.96358  1.0000
  S   S208      1.0  0.12959  0.74823  0.94370  1.0000
  H   H637      1.0  0.20508  0.87131  0.74470  1.0000
  H   H638      1.0  0.09927  0.97558  0.71052  1.0000
  H   H639      1.0  0.13593  0.74018  0.48602  1.0000
  S   S209      1.0  0.20493  0.73428  0.91165  1.0000
  S   S210      1.0  0.22910  0.89902  0.95320  1.0000
  H   H640      1.0  0.21723  0.95587  0.90063  1.0000
  H   H641      1.0  0.15076  0.80887  0.93576  1.0000
  H   H642      1.0  0.18221  0.67276  0.57646  1.0000
  H   H643      1.0  0.13662  0.96437  0.78619  1.0000
  H   H644      1.0  0.14917  0.68891  0.95081  1.0000
  S   S211      1.0  0.22875  0.85834  0.97126  1.0000
  H   H645      1.0  0.21252  0.93214  0.92677  1.0000
  C   C651      1.0  0.23978  0.83893  0.81282  1.0000
  C   C652      1.0  0.23029  0.81249  0.93059  1.0000
  H   H646      1.0  0.22737  0.90047  0.80905  1.0000
  H   H647      1.0  0.22146  0.73033  0.87623  1.0000
  C   C653      1.0  0.20605  0.95785  0.91106  1.0000
  H   H648      1.0  0.13233  0.87879  0.54328  1.0000
  H   H649      1.0  0.05984  0.80802  0.48475  1.0000
  H   H650      1.0  0.19054  0.86172  0.49958  1.0000
  H   H651      1.0  0.18839  0.83990  0.51110  1.0000
  C   C654      1.0  0.15436  0.71412  0.97187  1.0000
  H   H652      1.0  0.22081  0.95588  0.67265  1.0000
  C   C655      1.0  0.24196  0.93706  0.68277  1.0000
  H   H653      1.0  0.16179  0.96979  0.73259  1.0000
  H   H654      1.0  0.23650  0.90360  0.88941  1.0000
  Fe  Fe107     1.0  0.23829  0.78058  0.87461  1.0000
  S   S212      1.0  0.23720  0.91193  0.74239  1.0000
  H   H655      1.0  0.19064  0.96414  0.74107  1.0000
  C   C656      1.0  0.12186  0.79078  0.48080  1.0000
  C   C657      1.0  0.24331  0.95837  0.57688  1.0000
  C   C658      1.0  0.24177  0.92413  0.97928  1.0000
  C   C659      1.0  0.06825  0.81574  0.48649  1.0000
  C   C660      1.0  0.23930  0.82003  0.91451  1.0000
  S   S213      1.0  0.23796  0.87478  0.72022  1.0000
  C   C661      1.0  0.23866  0.83518  0.75286  1.0000
  S   S214      1.0  0.23693  0.69075  0.54408  1.0000
  H   H656      1.0  0.24231  0.71109  0.90259  1.0000
  Fe  Fe108     1.0  0.24127  0.69524  0.56862  1.0000
  C   C662      1.0  0.24030  0.83759  0.91110  1.0000
  Fe  Fe109     1.0  0.24035  0.88355  0.74350  1.0000
  C   C663      1.0  0.24204  0.69976  0.91358  1.0000
  S   S215      1.0  0.24354  0.96250  0.63484  1.0000
  C   C664      1.0  0.24269  0.78421  0.56301  1.0000
  H   H657      1.0  0.24235  0.79770  0.56395  1.0000
  C   C665      1.0  0.24305  0.81902  0.78115  1.0000
  H   H658      1.0  0.24115  0.90643  0.83043  1.0000
  S   S216      1.0  0.13604  0.65617  0.48818  1.0000
  S   S217      1.0  0.24403  0.74924  0.91865  1.0000
  H   H659      1.0  0.23907  0.68566  0.48039  1.0000
  H   H660      1.0  0.23594  0.65156  0.55781  1.0000
  Fe  Fe110     1.0  0.15856  0.65123  0.50148  1.0000
  Fe  Fe111     1.0  0.40387  0.29159  0.70808  1.0000
  H   H661      1.0  0.27292  0.01594  0.57425  1.0000
  Fe  Fe112     1.0  0.36956  0.27964  0.71876  1.0000
  S   S218      1.0  0.36548  0.28529  0.69145  1.0000
  S   S219      1.0  0.34893  0.27123  0.74131  1.0000
  Fe  Fe113     1.0  0.39415  0.27338  0.68512  1.0000
  S   S220      1.0  0.40511  0.25564  0.66600  1.0000
  C   C666      1.0  0.26335  0.99951  0.71460  1.0000
  S   S221      1.0  0.39732  0.26545  0.71281  1.0000
  S   S222      1.0  0.37637  0.30516  0.71660  1.0000
  Fe  Fe114     1.0  0.39318  0.22287  0.81219  1.0000
  S   S223      1.0  0.40089  0.20396  0.83566  1.0000
  S   S224      1.0  0.37120  0.24581  0.81399  1.0000
  Fe  Fe115     1.0  0.41868  0.20223  0.78702  1.0000
  S   S225      1.0  0.42858  0.18175  0.80833  1.0000
  S   S226      1.0  0.43009  0.19934  0.75956  1.0000
  Fe  Fe116     1.0  0.40015  0.18380  0.82118  1.0000
  S   S227      1.0  0.38834  0.15970  0.83248  1.0000
  Fe  Fe117     1.0  0.42848  0.20389  0.82040  1.0000
  S   S228      1.0  0.45362  0.20827  0.82503  1.0000
  S   S229      1.0  0.39043  0.20303  0.79903  1.0000
  S   S230      1.0  0.42049  0.22420  0.79783  1.0000
  Fe  Fe118     1.0  0.30104  0.09373  0.82054  1.0000
  Fe  Fe119     1.0  0.31996  0.10688  0.78412  1.0000
  S   S231      1.0  0.30505  0.13410  0.78297  1.0000
  S   S232      1.0  0.33960  0.09825  0.76166  1.0000
  Fe  Fe120     1.0  0.31043  0.12990  0.80976  1.0000
  S   S233      1.0  0.31881  0.15296  0.81401  1.0000
  Fe  Fe121     1.0  0.28157  0.12218  0.79598  1.0000
  S   S234      1.0  0.32666  0.10296  0.81010  1.0000
  S   S235      1.0  0.29613  0.09528  0.79442  1.0000
  C   C667      1.0  0.34403  0.05874  0.78591  1.0000
  C   C668      1.0  0.25114  0.08191  0.79705  1.0000
  H   H662      1.0  0.26172  0.03302  0.71022  1.0000
  H   H663      1.0  0.27744  0.00395  0.64332  1.0000
  H   H664      1.0  0.46423  0.25725  0.64510  1.0000
  C   C669      1.0  0.45223  0.27362  0.66375  1.0000
  C   C670      1.0  0.26830  0.03250  0.84421  1.0000
  S   S236      1.0  0.48036  0.22155  0.88674  1.0000
  H   H665      1.0  0.26065  0.02426  0.85420  1.0000
  H   H666      1.0  0.36473  0.06890  0.78984  1.0000
  H   H667      1.0  0.34950  0.02496  0.76697  1.0000
  C   C671      1.0  0.39368  0.30243  0.76275  1.0000
  S   S237      1.0  0.26086  0.99687  0.61618  1.0000
  Fe  Fe122     1.0  0.30978  0.04036  0.72620  1.0000
  S   S238      1.0  0.33194  0.03947  0.70335  1.0000
  S   S239      1.0  0.29331  0.06495  0.73320  1.0000
  Fe  Fe123     1.0  0.32025  0.01928  0.69833  1.0000
  S   S240      1.0  0.31419  0.02236  0.67208  1.0000
  Fe  Fe124     1.0  0.34564  0.01769  0.72129  1.0000
  S   S241      1.0  0.37428  0.01499  0.72218  1.0000
  S   S242      1.0  0.29691  0.02237  0.71969  1.0000
  S   S243      1.0  0.32403  0.02000  0.74471  1.0000
  C   C672      1.0  0.36152  0.05901  0.78507  1.0000
  H   H668      1.0  0.27883  0.11386  0.69477  1.0000
  H   H669      1.0  0.39549  0.28845  0.74299  1.0000
  H   H670      1.0  0.44435  0.04870  0.70457  1.0000
  H   H671      1.0  0.30782  0.98887  0.69279  1.0000
  C   C673      1.0  0.48572  0.31523  0.84797  1.0000
  Fe  Fe125     1.0  0.31298  0.00147  0.73615  1.0000
  H   H672      1.0  0.48601  0.18595  0.85645  1.0000
  C   C674      1.0  0.28589  0.05499  0.83574  1.0000
  Fe  Fe126     1.0  0.42880  0.08174  0.73414  1.0000
  S   S244      1.0  0.41471  0.10483  0.71797  1.0000
  S   S245      1.0  0.41683  0.05782  0.74651  1.0000
  Fe  Fe127     1.0  0.42177  0.12014  0.73363  1.0000
  S   S246      1.0  0.40091  0.14070  0.74468  1.0000
  S   S247      1.0  0.43414  0.09699  0.75129  1.0000
  H   H673      1.0  0.48776  0.16838  0.82276  1.0000
  H   H674      1.0  0.34885  0.22231  0.80471  1.0000
  C   C675      1.0  0.38544  0.02820  0.72811  1.0000
  C   C676      1.0  0.37985  0.04623  0.72680  1.0000
  C   C677      1.0  0.38990  0.05589  0.73129  1.0000
  C   C678      1.0  0.40541  0.04748  0.73735  1.0000
  C   C679      1.0  0.41082  0.02955  0.73856  1.0000
  C   C680      1.0  0.40116  0.02010  0.73365  1.0000
  H   H675      1.0  0.36785  0.05268  0.72233  1.0000
  H   H676      1.0  0.38530  0.06968  0.73074  1.0000
  H   H677      1.0  0.42250  0.02283  0.74354  1.0000
  H   H678      1.0  0.40569  0.00624  0.73463  1.0000
  C   C681      1.0  0.30223  0.00781  0.67003  1.0000
  C   C682      1.0  0.29359  0.01199  0.65612  1.0000
  S   S248      1.0  0.42612  0.29560  0.71733  1.0000
  H   H679      1.0  0.26975  0.08115  0.69096  1.0000
  H   H680      1.0  0.46572  0.15868  0.79277  1.0000
  H   H681      1.0  0.47054  0.28222  0.82358  1.0000
  H   H682      1.0  0.29434  0.02405  0.64682  1.0000
  C   C683      1.0  0.28402  0.00062  0.65411  1.0000
  C   C684      1.0  0.24767  0.08514  0.84296  1.0000
  H   H683      1.0  0.31990  0.04229  0.76887  1.0000
  C   C685      1.0  0.43156  0.07119  0.68852  1.0000
  C   C686      1.0  0.47765  0.16590  0.81717  1.0000
  H   H684      1.0  0.46462  0.16947  0.82548  1.0000
  H   H685      1.0  0.31690  0.19897  0.82513  1.0000
  C   C687      1.0  0.49050  0.14620  0.71508  1.0000
  C   C688      1.0  0.45888  0.30614  0.84911  1.0000
  C   C689      1.0  0.48021  0.28763  0.86566  1.0000
  H   H686      1.0  0.43868  0.24867  0.84146  1.0000
  C   C690      1.0  0.32762  0.09098  0.75075  1.0000
  C   C691      1.0  0.33525  0.07674  0.74288  1.0000
  C   C692      1.0  0.32478  0.06898  0.73694  1.0000
  C   C693      1.0  0.30675  0.07559  0.73884  1.0000
  C   C694      1.0  0.29932  0.09035  0.74591  1.0000
  C   C695      1.0  0.30979  0.09809  0.75180  1.0000
  H   H687      1.0  0.34902  0.07121  0.74219  1.0000
  H   H688      1.0  0.33062  0.05760  0.73142  1.0000
  H   H689      1.0  0.28540  0.09557  0.74728  1.0000
  H   H690      1.0  0.30397  0.10937  0.75751  1.0000
  H   H691      1.0  0.27833  0.13406  0.75797  1.0000
  H   H692      1.0  0.27557  0.13565  0.72791  1.0000
  C   C696      1.0  0.32147  0.04692  0.77998  1.0000
  C   C697      1.0  0.37071  0.15655  0.82497  1.0000
  C   C698      1.0  0.36264  0.16930  0.81274  1.0000
  C   C699      1.0  0.34730  0.16749  0.80869  1.0000
  C   C700      1.0  0.33998  0.15279  0.81660  1.0000
  C   C701      1.0  0.34856  0.13951  0.82807  1.0000
  C   C702      1.0  0.36383  0.14145  0.83229  1.0000
  H   H693      1.0  0.36769  0.18091  0.80691  1.0000
  H   H694      1.0  0.34073  0.17783  0.79983  1.0000
  H   H695      1.0  0.34293  0.12820  0.83442  1.0000
  H   H696      1.0  0.36995  0.13148  0.84177  1.0000
  C   C703      1.0  0.42220  0.18258  0.75608  1.0000
  C   C704      1.0  0.40446  0.18185  0.76169  1.0000
  C   C705      1.0  0.39801  0.16892  0.75818  1.0000
  C   C706      1.0  0.40937  0.15643  0.74939  1.0000
  C   C707      1.0  0.42719  0.15690  0.74414  1.0000
  C   C708      1.0  0.43356  0.17013  0.74725  1.0000
  H   H697      1.0  0.39555  0.19155  0.76827  1.0000
  H   H698      1.0  0.38422  0.16860  0.76227  1.0000
  H   H699      1.0  0.43608  0.14714  0.73767  1.0000
  H   H700      1.0  0.44729  0.17054  0.74305  1.0000
  C   C709      1.0  0.45880  0.21409  0.84241  1.0000
  C   C710      1.0  0.45055  0.20918  0.85965  1.0000
  C   C711      1.0  0.45692  0.21208  0.87312  1.0000
  C   C712      1.0  0.47146  0.22000  0.86945  1.0000
  C   C713      1.0  0.47917  0.22556  0.85215  1.0000
  C   C714      1.0  0.47287  0.22258  0.83874  1.0000
  H   H701      1.0  0.43973  0.20256  0.86267  1.0000
  H   H702      1.0  0.45082  0.20778  0.88647  1.0000
  H   H703      1.0  0.40314  0.02497  0.69196  1.0000
  H   H704      1.0  0.47906  0.22667  0.82541  1.0000
  C   C715      1.0  0.47026  0.16644  0.69154  1.0000
  C   C716      1.0  0.35581  0.26564  0.76118  1.0000
  C   C717      1.0  0.34350  0.26817  0.77632  1.0000
  C   C718      1.0  0.34852  0.26291  0.79243  1.0000
  C   C719      1.0  0.36569  0.25436  0.79355  1.0000
  C   C720      1.0  0.37806  0.25188  0.77841  1.0000
  C   C721      1.0  0.37322  0.25788  0.76220  1.0000
  H   H705      1.0  0.33006  0.27426  0.77556  1.0000
  H   H706      1.0  0.33896  0.26504  0.80406  1.0000
  H   H707      1.0  0.39138  0.24536  0.77915  1.0000
  H   H708      1.0  0.38284  0.25598  0.75057  1.0000
  C   C722      1.0  0.42573  0.24233  0.66778  1.0000
  C   C723      1.0  0.43265  0.24021  0.68247  1.0000
  C   C724      1.0  0.44889  0.22928  0.68397  1.0000
  C   C725      1.0  0.45852  0.22067  0.67062  1.0000
  C   C726      1.0  0.45173  0.22277  0.65586  1.0000
  C   C727      1.0  0.43524  0.23348  0.65453  1.0000
  H   H709      1.0  0.42554  0.24698  0.69271  1.0000
  H   H710      1.0  0.45416  0.22776  0.69538  1.0000
  H   H711      1.0  0.45910  0.21610  0.64553  1.0000
  H   H712      1.0  0.42991  0.23502  0.64315  1.0000
  C   C728      1.0  0.37475  0.04664  0.77779  1.0000
  H   H713      1.0  0.46372  0.11763  0.76264  1.0000
  C   C729      1.0  0.37034  0.03413  0.77160  1.0000
  C   C730      1.0  0.28810  0.05389  0.81847  1.0000
  H   H714      1.0  0.25896  0.01804  0.78413  1.0000
  H   H715      1.0  0.29609  0.06163  0.80855  1.0000
  H   H716      1.0  0.27305  0.03861  0.75960  1.0000
  C   C731      1.0  0.32716  0.19641  0.83242  1.0000
  S   S249      1.0  0.28530  0.12042  0.82283  1.0000
  N   N54       1.0  0.29294  0.08868  0.69197  1.0000
  C   C732      1.0  0.28381  0.07963  0.68657  1.0000
  C   C733      1.0  0.31064  0.08696  0.68623  1.0000
  C   C734      1.0  0.24873  0.00823  0.69091  1.0000
  C   C735      1.0  0.31966  0.07594  0.67475  1.0000
  C   C736      1.0  0.31046  0.06660  0.66926  1.0000
  C   C737      1.0  0.28353  0.10121  0.70294  1.0000
  H   H717      1.0  0.46365  0.17627  0.76363  1.0000
  H   H718      1.0  0.31786  0.09409  0.69059  1.0000
  H   H719      1.0  0.26486  0.99837  0.55783  1.0000
  H   H720      1.0  0.33371  0.07446  0.67032  1.0000
  C   C738      1.0  0.43425  0.05382  0.69689  1.0000
  H   H721      1.0  0.47957  0.09659  0.67741  1.0000
  H   H722      1.0  0.33382  0.06841  0.79158  1.0000
  H   H723      1.0  0.41299  0.27845  0.78910  1.0000
  N   N55       1.0  0.41001  0.27313  0.81641  1.0000
  C   C739      1.0  0.40410  0.28710  0.82429  1.0000
  C   C740      1.0  0.42238  0.25949  0.82235  1.0000
  C   C741      1.0  0.35274  0.03452  0.77219  1.0000
  C   C742      1.0  0.24996  0.12922  0.73545  1.0000
  C   C743      1.0  0.40388  0.27327  0.80087  1.0000
  H   H724      1.0  0.39459  0.29809  0.81939  1.0000
  H   H725      1.0  0.42735  0.24854  0.81595  1.0000
  H   H726      1.0  0.49051  0.24430  0.65828  1.0000
  H   H727      1.0  0.44340  0.28773  0.68440  1.0000
  C   C744      1.0  0.40180  0.31245  0.76872  1.0000
  H   H728      1.0  0.38050  0.02432  0.76613  1.0000
  H   H729      1.0  0.25321  0.03016  0.63826  1.0000
  C   C745      1.0  0.42283  0.27362  0.84494  1.0000
  C   C746      1.0  0.46531  0.11968  0.66347  1.0000
  S   S250      1.0  0.24790  0.13165  0.71393  1.0000
  H   H730      1.0  0.48411  0.27574  0.87455  1.0000
  H   H731      1.0  0.42569  0.20822  0.72164  1.0000
  N   N56       1.0  0.40054  0.21664  0.71510  1.0000
  C   C747      1.0  0.39142  0.22033  0.73079  1.0000
  C   C748      1.0  0.39341  0.22325  0.70063  1.0000
  C   C749      1.0  0.37466  0.23078  0.73228  1.0000
  C   C750      1.0  0.37688  0.23413  0.70157  1.0000
  C   C751      1.0  0.36742  0.23782  0.71754  1.0000
  C   C752      1.0  0.41767  0.20489  0.71409  1.0000
  H   H732      1.0  0.39717  0.21533  0.74221  1.0000
  H   H733      1.0  0.40062  0.22043  0.68814  1.0000
  H   H734      1.0  0.36743  0.23372  0.74472  1.0000
  H   H735      1.0  0.37160  0.23984  0.68992  1.0000
  H   H736      1.0  0.35462  0.24635  0.71849  1.0000
  H   H737      1.0  0.42513  0.20573  0.70053  1.0000
  S   S251      1.0  0.45523  0.08232  0.71638  1.0000
  C   C753      1.0  0.40165  0.29647  0.74737  1.0000
  C   C754      1.0  0.42373  0.04314  0.69544  1.0000
  C   C755      1.0  0.41033  0.28751  0.83870  1.0000
  C   C756      1.0  0.48045  0.10873  0.66829  1.0000
  H   H738      1.0  0.38841  0.04679  0.77683  1.0000
  S   S252      1.0  0.40286  0.29865  0.67993  1.0000
  C   C757      1.0  0.48286  0.14025  0.64488  1.0000
  C   C758      1.0  0.42890  0.25949  0.83675  1.0000
  H   H739      1.0  0.40584  0.29874  0.84476  1.0000
  H   H740      1.0  0.40139  0.03779  0.67075  1.0000
  Fe  Fe128     1.0  0.45907  0.10005  0.73190  1.0000
  H   H741      1.0  0.48367  0.15246  0.63593  1.0000
  H   H742      1.0  0.28199  0.04195  0.80052  1.0000
  H   H743      1.0  0.43818  0.31380  0.73662  1.0000
  N   N57       1.0  0.33987  0.04689  0.77909  1.0000
  N   N58       1.0  0.41066  0.04970  0.68618  1.0000
  H   H744      1.0  0.38123  0.29931  0.76994  1.0000
  H   H745      1.0  0.31634  0.03841  0.79223  1.0000
  C   C759      1.0  0.48158  0.25940  0.67832  1.0000
  H   H746      1.0  0.42597  0.02963  0.70194  1.0000
  H   H747      1.0  0.29196  0.10316  0.71092  1.0000
  C   C760      1.0  0.27625  0.04397  0.84867  1.0000
  N   N59       1.0  0.33853  0.20745  0.82884  1.0000
  C   C761      1.0  0.35179  0.20384  0.83769  1.0000
  C   C762      1.0  0.35407  0.18873  0.85040  1.0000
  C   C763      1.0  0.32901  0.18122  0.84510  1.0000
  C   C764      1.0  0.34263  0.17734  0.85405  1.0000
  H   H748      1.0  0.36088  0.21254  0.83471  1.0000
  H   H749      1.0  0.36504  0.18552  0.85689  1.0000
  H   H750      1.0  0.32043  0.17213  0.84738  1.0000
  H   H751      1.0  0.34473  0.16522  0.86335  1.0000
  N   N60       1.0  0.36974  0.12572  0.77606  1.0000
  C   C765      1.0  0.37672  0.11089  0.76964  1.0000
  C   C766      1.0  0.37733  0.12978  0.78740  1.0000
  C   C767      1.0  0.39132  0.09936  0.77506  1.0000
  C   C768      1.0  0.39196  0.11860  0.79306  1.0000
  C   C769      1.0  0.39895  0.10327  0.78687  1.0000
  C   C770      1.0  0.35489  0.13804  0.76976  1.0000
  H   H752      1.0  0.37134  0.10816  0.75991  1.0000
  H   H753      1.0  0.37232  0.14191  0.79182  1.0000
  H   H754      1.0  0.39699  0.08777  0.76968  1.0000
  H   H755      1.0  0.39800  0.12203  0.80191  1.0000
  H   H756      1.0  0.41053  0.09465  0.79085  1.0000
  H   H757      1.0  0.35983  0.14812  0.75890  1.0000
  H   H758      1.0  0.34698  0.13144  0.76507  1.0000
  H   H759      1.0  0.34600  0.14433  0.78029  1.0000
  N   N61       1.0  0.47772  0.17596  0.79948  1.0000
  C   C771      1.0  0.25947  0.01805  0.57281  1.0000
  C   C772      1.0  0.47065  0.17062  0.78859  1.0000
  H   H760      1.0  0.46187  0.26941  0.71266  1.0000
  C   C773      1.0  0.25890  0.04099  0.76384  1.0000
  C   C774      1.0  0.25039  0.04923  0.65354  1.0000
  S   S253      1.0  0.25985  0.01883  0.81990  1.0000
  C   C775      1.0  0.49099  0.29981  0.85942  1.0000
  H   H761      1.0  0.41605  0.09140  0.67280  1.0000
  C   C776      1.0  0.46952  0.18050  0.77204  1.0000
  Fe  Fe129     1.0  0.37449  0.30994  0.68887  1.0000
  H   H762      1.0  0.47081  0.13192  0.78286  1.0000
  S   S254      1.0  0.43885  0.30923  0.84291  1.0000
  C   C777      1.0  0.47777  0.28895  0.81125  1.0000
  C   C778      1.0  0.47718  0.11803  0.76207  1.0000
  H   H763      1.0  0.46262  0.17437  0.68207  1.0000
  H   H764      1.0  0.25078  0.03937  0.69245  1.0000
  S   S255      1.0  0.33591  0.99694  0.71422  1.0000
  C   C779      1.0  0.27018  0.03192  0.82678  1.0000
  H   H765      1.0  0.49297  0.25357  0.68407  1.0000
  H   H766      1.0  0.27390  0.03004  0.68886  1.0000
  H   H767      1.0  0.45487  0.14381  0.64779  1.0000
  C   C780      1.0  0.49058  0.10979  0.75045  1.0000
  C   C781      1.0  0.48276  0.20140  0.77785  1.0000
  H   H768      1.0  0.28520  0.06109  0.67104  1.0000
  H   H769      1.0  0.26247  0.04322  0.65805  1.0000
  C   C782      1.0  0.41751  0.30087  0.73775  1.0000
  H   H770      1.0  0.27214  0.09659  0.71222  1.0000
  H   H771      1.0  0.40290  0.26008  0.80032  1.0000
  C   C783      1.0  0.28029  0.04249  0.81400  1.0000
  H   H772      1.0  0.32539  0.22499  0.80933  1.0000
  S   S256      1.0  0.44695  0.12436  0.71536  1.0000
  H   H773      1.0  0.42801  0.27402  0.85590  1.0000
  C   C784      1.0  0.39975  0.03844  0.68454  1.0000
  H   H774      1.0  0.27465  0.04453  0.86213  1.0000
  C   C785      1.0  0.33695  0.22310  0.81519  1.0000
  C   C786      1.0  0.47548  0.19607  0.76670  1.0000
  C   C787      1.0  0.46985  0.27647  0.70113  1.0000
  C   C788      1.0  0.48371  0.19115  0.79432  1.0000
  C   C789      1.0  0.26670  0.13144  0.75562  1.0000
  H   H775      1.0  0.41588  0.19132  0.71945  1.0000
  H   H776      1.0  0.44043  0.27887  0.65848  1.0000
  H   H777      1.0  0.46482  0.29062  0.70051  1.0000
  C   C790      1.0  0.26509  0.13238  0.73862  1.0000
  S   S257      1.0  0.44483  0.11395  0.67244  1.0000
  Fe  Fe130     1.0  0.44126  0.10666  0.70140  1.0000
  S   S258      1.0  0.29469  0.07032  0.84128  1.0000
  H   H778      1.0  0.33572  0.23472  0.82059  1.0000
  H   H779      1.0  0.43980  0.07956  0.68921  1.0000
  H   H780      1.0  0.45580  0.28141  0.86567  1.0000
  H   H781      1.0  0.39734  0.07205  0.67096  1.0000
  H   H782      1.0  0.48890  0.19568  0.80307  1.0000
  C   C791      1.0  0.41819  0.07781  0.67919  1.0000
  C   C792      1.0  0.25299  0.12779  0.76948  1.0000
  C   C793      1.0  0.45393  0.27848  0.67848  1.0000
  C   C794      1.0  0.40774  0.06682  0.67820  1.0000
  C   C795      1.0  0.29244  0.06836  0.67525  1.0000
  C   C796      1.0  0.46656  0.13533  0.65156  1.0000
  H   H783      1.0  0.47718  0.30243  0.81241  1.0000
  N   N62       1.0  0.46858  0.27154  0.68543  1.0000
  C   C797      1.0  0.47040  0.17253  0.70605  1.0000
  H   H784      1.0  0.38575  0.04343  0.68979  1.0000
  H   H785      1.0  0.48744  0.21348  0.77396  1.0000
  S   S259      1.0  0.25429  0.12756  0.79078  1.0000
  C   C798      1.0  0.46414  0.29086  0.86064  1.0000
  H   H786      1.0  0.48062  0.16683  0.72940  1.0000
  H   H787      1.0  0.49028  0.23174  0.84909  1.0000
  H   H788      1.0  0.25227  0.09238  0.84985  1.0000
  H   H789      1.0  0.39055  0.28145  0.80075  1.0000
  H   H790      1.0  0.49265  0.26907  0.78757  1.0000
  N   N63       1.0  0.25743  0.01206  0.70147  1.0000
  S   S260      1.0  0.47903  0.20763  0.67301  1.0000
  H   H791      1.0  0.31346  0.06029  0.77926  1.0000
  H   H792      1.0  0.49267  0.11470  0.69797  1.0000
  C   C799      1.0  0.25177  0.08821  0.82486  1.0000
  C   C800      1.0  0.48125  0.12625  0.77345  1.0000
  C   C801      1.0  0.46558  0.26148  0.65625  1.0000
  H   H793      1.0  0.31727  0.05786  0.66049  1.0000
  H   H794      1.0  0.48364  0.27357  0.70288  1.0000
  H   H795      1.0  0.25455  0.06450  0.74471  1.0000
  S   S261      1.0  0.48622  0.09879  0.73625  1.0000
  H   H796      1.0  0.27070  0.00229  0.72270  1.0000
  H   H797      1.0  0.47097  0.28997  0.80063  1.0000
  C   C802      1.0  0.30116  0.99222  0.68203  1.0000
  C   C803      1.0  0.24850  0.05553  0.75549  1.0000
  C   C804      1.0  0.42589  0.31042  0.74399  1.0000
  H   H798      1.0  0.47418  0.20409  0.75407  1.0000
  C   C805      1.0  0.26119  0.02945  0.69809  1.0000
  N   N64       1.0  0.49045  0.14043  0.70069  1.0000
  C   C806      1.0  0.48035  0.15022  0.68911  1.0000
  H   H799      1.0  0.48014  0.14553  0.67786  1.0000
  H   H800      1.0  0.46286  0.18524  0.70790  1.0000
  C   C807      1.0  0.25101  0.02946  0.77758  1.0000
  C   C808      1.0  0.48032  0.25422  0.66362  1.0000
  H   H801      1.0  0.26220  0.08887  0.79184  1.0000
  H   H802      1.0  0.48053  0.15175  0.81731  1.0000
  S   S262      1.0  0.24750  0.07353  0.67249  1.0000
  N   N65       1.0  0.24686  0.07853  0.81604  1.0000
  H   H803      1.0  0.25922  0.09814  0.81798  1.0000
  C   C809      1.0  0.25481  0.00814  0.56354  1.0000
  C   C810      1.0  0.41804  0.31619  0.75949  1.0000
  C   C811      1.0  0.28333  0.98483  0.66581  1.0000
  S   S263      1.0  0.43699  0.31773  0.79566  1.0000
  C   C812      1.0  0.49199  0.31517  0.74439  1.0000
  H   H804      1.0  0.25512  0.06958  0.79227  1.0000
  C   C813      1.0  0.24660  0.03033  0.58059  1.0000
  C   C814      1.0  0.48048  0.16231  0.71799  1.0000
  H   H805      1.0  0.24995  0.03792  0.58809  1.0000
  C   C815      1.0  0.24519  0.04183  0.64231  1.0000
  C   C816      1.0  0.24529  0.99160  0.69373  1.0000
  H   H806      1.0  0.26632  0.64389  0.05329  1.0000
  H   H807      1.0  0.43183  0.61336  0.23805  1.0000
  H   H808      1.0  0.40829  0.63073  0.25622  1.0000
  S   S264      1.0  0.46356  0.61985  0.21585  1.0000
  C   C817      1.0  0.44798  0.63256  0.22941  1.0000
  C   C818      1.0  0.43313  0.62606  0.23884  1.0000
  S   S265      1.0  0.48982  0.63187  0.16902  1.0000
  H   H809      1.0  0.44676  0.63515  0.27244  1.0000
  C   C819      1.0  0.41979  0.63590  0.24913  1.0000
  H   H810      1.0  0.43435  0.64234  0.19752  1.0000
  H   H811      1.0  0.27055  0.63454  0.02371  1.0000
  C   C820      1.0  0.46986  0.63831  0.27919  1.0000
  H   H812      1.0  0.31075  0.64779  0.01218  1.0000
  H   H813      1.0  0.28587  0.61830  0.03521  1.0000
  Fe  Fe131     1.0  0.48719  0.62869  0.19779  1.0000
  C   C821      1.0  0.45211  0.64248  0.27861  1.0000
  H   H814      1.0  0.47845  0.62780  0.27336  1.0000
  C   C822      1.0  0.28424  0.63081  0.02579  1.0000
  N   N66       1.0  0.28828  0.64436  0.03225  1.0000
  Fe  Fe132     1.0  0.25294  0.64580  0.98657  1.0000
  C   C823      1.0  0.44958  0.64901  0.23053  1.0000
  H   H815      1.0  0.49036  0.64468  0.28750  1.0000
  H   H816      1.0  0.29279  0.62893  0.01308  1.0000
  C   C824      1.0  0.27764  0.64963  0.04672  1.0000
  C   C825      1.0  0.47651  0.64792  0.28719  1.0000
  Fe  Fe133     1.0  0.27485  0.55561  0.69970  1.0000
  S   S266      1.0  0.25897  0.53662  0.71683  1.0000
  S   S267      1.0  0.30315  0.55204  0.70088  1.0000
  C   C826      1.0  0.26832  0.47781  0.64364  1.0000
  C   C827      1.0  0.27956  0.36244  0.68814  1.0000
  S   S268      1.0  0.26505  0.55650  0.67581  1.0000
  S   S269      1.0  0.26173  0.42360  0.65724  1.0000
  C   C828      1.0  0.35528  0.41740  0.84400  1.0000
  Fe  Fe134     1.0  0.27829  0.39708  0.71403  1.0000
  S   S270      1.0  0.26844  0.41602  0.73186  1.0000
  S   S271      1.0  0.29192  0.36965  0.72347  1.0000
  C   C829      1.0  0.28407  0.37524  0.67377  1.0000
  S   S272      1.0  0.25933  0.53706  0.87441  1.0000
  H   H817      1.0  0.33348  0.45624  0.84151  1.0000
  Fe  Fe135     1.0  0.27764  0.43550  0.70857  1.0000
  S   S273      1.0  0.29049  0.45684  0.70914  1.0000
  C   C830      1.0  0.32687  0.42603  0.83738  1.0000
  S   S274      1.0  0.28953  0.41612  0.69145  1.0000
  H   H818      1.0  0.27566  0.38800  0.67204  1.0000
  H   H819      1.0  0.34808  0.38832  0.82432  1.0000
  C   C831      1.0  0.33617  0.44436  0.85156  1.0000
  C   C832      1.0  0.26072  0.56735  0.91840  1.0000
  Fe  Fe136     1.0  0.28300  0.47669  0.78955  1.0000
  S   S275      1.0  0.30841  0.47374  0.77063  1.0000
  C   C833      1.0  0.24598  0.47964  0.83712  1.0000
  Fe  Fe137     1.0  0.30018  0.47064  0.81974  1.0000
  S   S276      1.0  0.32742  0.46747  0.80374  1.0000
  S   S277      1.0  0.29323  0.46672  0.84862  1.0000
  Fe  Fe138     1.0  0.31568  0.49009  0.78494  1.0000
  S   S278      1.0  0.32961  0.51149  0.76981  1.0000
  Fe  Fe139     1.0  0.31797  0.45135  0.79068  1.0000
  S   S279      1.0  0.33250  0.42600  0.78295  1.0000
  S   S280      1.0  0.28935  0.49492  0.80234  1.0000
  S   S281      1.0  0.29158  0.45262  0.80828  1.0000
  C   C834      1.0  0.34556  0.39953  0.83019  1.0000
  H   H820      1.0  0.37109  0.39367  0.83656  1.0000
  C   C835      1.0  0.29344  0.54464  0.78404  1.0000
  H   H821      1.0  0.46563  0.33020  0.83379  1.0000
  H   H822      1.0  0.26231  0.47555  0.63412  1.0000
  H   H823      1.0  0.39571  0.34912  0.70422  1.0000
  Fe  Fe140     1.0  0.41715  0.36484  0.80183  1.0000
  S   S282      1.0  0.40558  0.34231  0.81849  1.0000
  S   S283      1.0  0.40515  0.39220  0.80560  1.0000
  Fe  Fe141     1.0  0.44601  0.34209  0.78074  1.0000
  C   C836      1.0  0.33464  0.33579  0.70530  1.0000
  Fe  Fe142     1.0  0.41018  0.33318  0.79374  1.0000
  H   H824      1.0  0.27189  0.51006  0.66060  1.0000
  Fe  Fe143     1.0  0.43345  0.32890  0.81905  1.0000
  C   C837      1.0  0.32970  0.41141  0.83018  1.0000
  S   S284      1.0  0.41927  0.35683  0.77687  1.0000
  S   S285      1.0  0.44498  0.35216  0.80438  1.0000
  H   H825      1.0  0.33521  0.43033  0.74252  1.0000
  C   C838      1.0  0.29051  0.34612  0.69027  1.0000
  C   C839      1.0  0.27006  0.62666  0.63909  1.0000
  H   H826      1.0  0.36554  0.41975  0.84901  1.0000
  C   C840      1.0  0.48489  0.32363  0.75832  1.0000
  C   C841      1.0  0.32544  0.44235  0.73921  1.0000
  C   C842      1.0  0.24824  0.44202  0.64733  1.0000
  H   H827      1.0  0.34178  0.33675  0.75931  1.0000
  N   N67       1.0  0.36352  0.34415  0.73981  1.0000
  C   C843      1.0  0.35341  0.41724  0.78786  1.0000
  C   C844      1.0  0.36122  0.40003  0.78653  1.0000
  C   C845      1.0  0.37734  0.39234  0.79154  1.0000
  C   C846      1.0  0.38581  0.40191  0.79771  1.0000
  C   C847      1.0  0.37826  0.41929  0.79850  1.0000
  C   C848      1.0  0.36208  0.42693  0.79363  1.0000
  H   H828      1.0  0.35458  0.39248  0.78205  1.0000
  H   H829      1.0  0.38305  0.37891  0.79096  1.0000
  H   H830      1.0  0.38482  0.42675  0.80319  1.0000
  H   H831      1.0  0.35631  0.44024  0.79449  1.0000
  C   C849      1.0  0.28370  0.48638  0.85552  1.0000
  C   C850      1.0  0.28926  0.50171  0.84630  1.0000
  C   C851      1.0  0.28186  0.51725  0.85224  1.0000
  C   C852      1.0  0.26850  0.51759  0.86705  1.0000
  C   C853      1.0  0.26258  0.50236  0.87593  1.0000
  C   C854      1.0  0.27038  0.48671  0.87034  1.0000
  H   H832      1.0  0.29962  0.50149  0.83491  1.0000
  H   H833      1.0  0.28647  0.52902  0.84538  1.0000
  C   C855      1.0  0.26093  0.61431  0.65066  1.0000
  H   H834      1.0  0.26603  0.47488  0.87749  1.0000
  H   H835      1.0  0.26784  0.36528  0.69784  1.0000
  H   H836      1.0  0.30672  0.54193  0.78621  1.0000
  H   H837      1.0  0.32099  0.44154  0.72762  1.0000
  H   H838      1.0  0.49410  0.32465  0.84305  1.0000
  C   C856      1.0  0.34551  0.45775  0.74462  1.0000
  N   N68       1.0  0.33958  0.42886  0.84417  1.0000
  C   C857      1.0  0.26000  0.55056  0.77766  1.0000
  N   N69       1.0  0.33281  0.45789  0.73610  1.0000
  H   H839      1.0  0.34574  0.32874  0.73987  1.0000
  C   C858      1.0  0.28141  0.46426  0.72853  1.0000
  C   C859      1.0  0.27872  0.48191  0.72873  1.0000
  C   C860      1.0  0.27131  0.48777  0.74428  1.0000
  C   C861      1.0  0.26648  0.47599  0.75955  1.0000
  C   C862      1.0  0.26963  0.45834  0.75942  1.0000
  C   C863      1.0  0.27706  0.45250  0.74393  1.0000
  H   H840      1.0  0.28221  0.49106  0.71687  1.0000
  H   H841      1.0  0.26944  0.50137  0.74450  1.0000
  C   C864      1.0  0.26981  0.56318  0.74719  1.0000
  H   H842      1.0  0.27997  0.43881  0.74408  1.0000
  C   C865      1.0  0.26465  0.63131  0.59210  1.0000
  H   H843      1.0  0.33265  0.55208  0.71414  1.0000
  C   C866      1.0  0.33585  0.36371  0.68613  1.0000
  C   C867      1.0  0.32040  0.37120  0.69636  1.0000
  C   C868      1.0  0.31195  0.36099  0.71103  1.0000
  C   C869      1.0  0.34596  0.34012  0.74500  1.0000
  C   C870      1.0  0.27367  0.49707  0.65839  1.0000
  H   H844      1.0  0.34230  0.37167  0.67477  1.0000
  H   H845      1.0  0.31501  0.38483  0.69283  1.0000
  C   C871      1.0  0.27010  0.64393  0.57791  1.0000
  H   H846      1.0  0.31983  0.40950  0.82426  1.0000
  H   H847      1.0  0.25230  0.50254  0.88740  1.0000
  H   H848      1.0  0.26009  0.43692  0.62182  1.0000
  H   H849      1.0  0.33631  0.35143  0.73987  1.0000
  H   H850      1.0  0.34737  0.44517  0.85676  1.0000
  S   S286      1.0  0.25857  0.48288  0.77923  1.0000
  S   S287      1.0  0.25253  0.40171  0.70595  1.0000
  H   H851      1.0  0.29011  0.48573  0.67729  1.0000
  C   C872      1.0  0.39708  0.35117  0.72974  1.0000
  S   S288      1.0  0.36157  0.33666  0.67683  1.0000
  C   C873      1.0  0.34470  0.48816  0.73243  1.0000
  C   C874      1.0  0.34288  0.34597  0.69046  1.0000
  H   H852      1.0  0.26633  0.55345  0.74192  1.0000
  N   N70       1.0  0.27334  0.55543  0.76458  1.0000
  H   H853      1.0  0.31450  0.43520  0.83739  1.0000
  H   H854      1.0  0.28110  0.45096  0.64996  1.0000
  C   C875      1.0  0.35162  0.47288  0.74295  1.0000
  H   H855      1.0  0.35068  0.44602  0.75313  1.0000
  H   H856      1.0  0.31569  0.47303  0.71924  1.0000
  H   H857      1.0  0.32447  0.44434  0.86229  1.0000
  H   H858      1.0  0.36132  0.47287  0.75010  1.0000
  H   H859      1.0  0.28131  0.56768  0.73798  1.0000
  C   C876      1.0  0.31002  0.54047  0.72021  1.0000
  C   C877      1.0  0.30069  0.52872  0.73232  1.0000
  C   C878      1.0  0.30658  0.51974  0.74762  1.0000
  C   C879      1.0  0.32186  0.52249  0.75084  1.0000
  C   C880      1.0  0.33116  0.53422  0.73876  1.0000
  C   C881      1.0  0.32533  0.54307  0.72346  1.0000
  H   H860      1.0  0.28914  0.52626  0.72983  1.0000
  H   H861      1.0  0.29920  0.51084  0.75696  1.0000
  H   H862      1.0  0.34297  0.53641  0.74118  1.0000
  H   H863      1.0  0.32609  0.50013  0.71583  1.0000
  C   C882      1.0  0.35846  0.40252  0.83711  1.0000
  S   S289      1.0  0.25216  0.44347  0.69963  1.0000
  C   C883      1.0  0.38815  0.35053  0.74687  1.0000
  C   C884      1.0  0.26068  0.57984  0.92754  1.0000
  H   H864      1.0  0.28736  0.33629  0.70170  1.0000
  C   C885      1.0  0.27989  0.53979  0.79751  1.0000
  H   H865      1.0  0.33516  0.33947  0.65579  1.0000
  N   N71       1.0  0.26530  0.49403  0.64709  1.0000
  H   H866      1.0  0.30311  0.38167  0.65079  1.0000
  C   C886      1.0  0.28679  0.46668  0.66478  1.0000
  C   C887      1.0  0.26100  0.64219  0.63044  1.0000
  C   C888      1.0  0.31922  0.34331  0.71557  1.0000
  C   C889      1.0  0.28421  0.48340  0.66769  1.0000
  H   H867      1.0  0.36556  0.34377  0.71326  1.0000
  H   H868      1.0  0.24659  0.51782  0.64666  1.0000
  C   C890      1.0  0.37136  0.34677  0.75177  1.0000
  C   C891      1.0  0.33179  0.48819  0.72376  1.0000
  Fe  Fe144     1.0  0.26302  0.42221  0.68473  1.0000
  H   H869      1.0  0.31406  0.44271  0.75026  1.0000
  C   C892      1.0  0.38889  0.34875  0.71758  1.0000
  S   S290      1.0  0.24610  0.63776  0.96516  1.0000
  H   H870      1.0  0.34911  0.50005  0.73128  1.0000
  N   N72       1.0  0.31041  0.35557  0.66411  1.0000
  C   C893      1.0  0.32594  0.47285  0.72578  1.0000
  C   C894      1.0  0.29963  0.37156  0.66181  1.0000
  H   H871      1.0  0.41040  0.35332  0.72600  1.0000
  S   S291      1.0  0.46701  0.34101  0.75669  1.0000
  H   H872      1.0  0.24894  0.56133  0.90018  1.0000
  S   S292      1.0  0.39135  0.32086  0.78732  1.0000
  H   H873      1.0  0.28211  0.64826  0.57683  1.0000
  H   H874      1.0  0.48822  0.32648  0.78283  1.0000
  C   C895      1.0  0.30596  0.34286  0.67804  1.0000
  H   H875      1.0  0.26109  0.51510  0.62609  1.0000
  S   S293      1.0  0.25550  0.57933  0.70650  1.0000
  H   H876      1.0  0.26654  0.44913  0.77135  1.0000
  H   H877      1.0  0.33989  0.32205  0.70867  1.0000
  H   H878      1.0  0.31270  0.33532  0.72688  1.0000
  H   H879      1.0  0.26805  0.60233  0.65717  1.0000
  H   H880      1.0  0.27280  0.62583  0.60171  1.0000
  H   H881      1.0  0.28250  0.53353  0.81032  1.0000
  C   C896      1.0  0.28989  0.55259  0.76759  1.0000
  C   C897      1.0  0.37188  0.34555  0.72281  1.0000
  H   H882      1.0  0.36489  0.34558  0.76531  1.0000
  C   C898      1.0  0.49352  0.31974  0.77218  1.0000
  H   H883      1.0  0.30056  0.55614  0.75716  1.0000
  H   H884      1.0  0.28421  0.62412  0.63676  1.0000
  H   H885      1.0  0.25866  0.57446  0.74765  1.0000
  C   C899      1.0  0.27902  0.46387  0.65248  1.0000
  H   H886      1.0  0.29479  0.45595  0.67204  1.0000
  H   H887      1.0  0.25245  0.53888  0.80467  1.0000
  C   C900      1.0  0.32672  0.35216  0.65143  1.0000
  H   H888      1.0  0.25950  0.47852  0.83783  1.0000
  C   C901      1.0  0.25063  0.44569  0.62928  1.0000
  H   H889      1.0  0.25232  0.46423  0.81751  1.0000
  H   H890      1.0  0.26972  0.55492  0.91993  1.0000
  H   H891      1.0  0.39443  0.35220  0.75651  1.0000
  H   H892      1.0  0.26971  0.57687  0.93626  1.0000
  H   H893      1.0  0.32381  0.35215  0.63881  1.0000
  Fe  Fe145     1.0  0.24740  0.53940  0.69392  1.0000
  H   H894      1.0  0.42437  0.32403  0.76390  1.0000
  H   H895      1.0  0.31464  0.33029  0.68010  1.0000
  H   H896      1.0  0.25255  0.60904  0.61822  1.0000
  C   C902      1.0  0.26305  0.54275  0.79433  1.0000
  H   H897      1.0  0.33454  0.36220  0.64966  1.0000
  H   H898      1.0  0.25763  0.60335  0.94505  1.0000
  N   N73       1.0  0.24911  0.62638  0.59407  1.0000
  N   N74       1.0  0.24914  0.59541  0.92579  1.0000
  H   H899      1.0  0.24692  0.55266  0.77520  1.0000
  C   C903      1.0  0.24897  0.57092  0.90737  1.0000
  C   C904      1.0  0.25354  0.50837  0.63817  1.0000
  C   C905      1.0  0.24941  0.60862  0.93505  1.0000
  H   H900      1.0  0.25443  0.61971  0.92582  1.0000
  C   C906      1.0  0.46970  0.31833  0.84265  1.0000
  H   H901      1.0  0.48532  0.31813  0.73368  1.0000
  S   S294      1.0  0.27078  0.70159  0.39357  1.0000
  S   S295      1.0  0.27912  0.72887  0.42183  1.0000
  C   C907      1.0  0.48988  0.71259  0.25702  1.0000
  S   S296      1.0  0.47962  0.89222  0.29298  1.0000
  Fe  Fe146     1.0  0.27523  0.84581  0.08313  1.0000
  S   S297      1.0  0.27542  0.83901  0.11185  1.0000
  C   C908      1.0  0.24543  0.70952  0.45158  1.0000
  Fe  Fe147     1.0  0.30604  0.81696  0.07523  1.0000
  S   S298      1.0  0.30816  0.80741  0.10297  1.0000
  S   S299      1.0  0.32595  0.80357  0.05559  1.0000
  Fe  Fe148     1.0  0.27884  0.81157  0.10859  1.0000
  C   C909      1.0  0.46724  0.84466  0.16315  1.0000
  Fe  Fe149     1.0  0.30498  0.83551  0.10376  1.0000
  S   S300      1.0  0.32851  0.84007  0.11190  1.0000
  S   S301      1.0  0.27716  0.81858  0.08065  1.0000
  S   S302      1.0  0.30424  0.84481  0.07529  1.0000
  Fe  Fe150     1.0  0.37391  0.85953  0.17780  1.0000
  S   S303      1.0  0.38642  0.83156  0.18436  1.0000
  S   S304      1.0  0.34677  0.86711  0.17119  1.0000
  Fe  Fe151     1.0  0.40389  0.87102  0.18695  1.0000
  S   S305      1.0  0.41853  0.84378  0.19395  1.0000
  S   S306      1.0  0.41346  0.89538  0.18565  1.0000
  Fe  Fe152     1.0  0.41153  0.84007  0.17032  1.0000
  S   S307      1.0  0.43116  0.82566  0.15133  1.0000
  Fe  Fe153     1.0  0.39198  0.83806  0.20725  1.0000
  S   S308      1.0  0.38584  0.81969  0.23245  1.0000
  S   S309      1.0  0.39878  0.86777  0.16203  1.0000
  S   S310      1.0  0.37760  0.86562  0.20204  1.0000
  Fe  Fe154     1.0  0.38263  0.72226  0.28095  1.0000
  S   S311      1.0  0.40377  0.73752  0.26796  1.0000
  S   S312      1.0  0.35973  0.73707  0.29766  1.0000
  Fe  Fe155     1.0  0.40333  0.69136  0.26469  1.0000
  S   S313      1.0  0.42583  0.70416  0.25067  1.0000
  C   C910      1.0  0.45731  0.75300  0.14494  1.0000
  Fe  Fe156     1.0  0.42246  0.71292  0.27542  1.0000
  S   S314      1.0  0.44538  0.71085  0.28723  1.0000
  Fe  Fe157     1.0  0.40496  0.72736  0.24447  1.0000
  S   S315      1.0  0.40800  0.74400  0.21780  1.0000
  S   S316      1.0  0.40144  0.69820  0.29028  1.0000
  S   S317      1.0  0.38237  0.71401  0.25661  1.0000
  Fe  Fe158     1.0  0.33347  0.73231  0.01350  1.0000
  S   S318      1.0  0.30528  0.74236  0.02446  1.0000
  S   S319      1.0  0.35121  0.72430  0.03335  1.0000
  C   C911      1.0  0.29134  0.85133  0.47697  1.0000
  H   H902      1.0  0.25558  0.70126  0.44344  1.0000
  S   S320      1.0  0.39813  0.74938  0.09845  1.0000
  S   S321      1.0  0.38922  0.78975  0.11984  1.0000
  Fe  Fe159     1.0  0.41586  0.75618  0.07276  1.0000
  Fe  Fe160     1.0  0.42822  0.79108  0.34700  1.0000
  S   S322      1.0  0.44153  0.80902  0.32464  1.0000
  S   S323      1.0  0.39914  0.79752  0.35751  1.0000
  Fe  Fe161     1.0  0.46139  0.76332  0.34830  1.0000
  S   S324      1.0  0.47779  0.77873  0.32649  1.0000
  S   S325      1.0  0.47113  0.73722  0.36372  1.0000
  Fe  Fe162     1.0  0.46356  0.80127  0.33897  1.0000
  C   C912      1.0  0.42713  0.74864  0.38783  1.0000
  Fe  Fe163     1.0  0.45461  0.78507  0.31394  1.0000
  S   S326      1.0  0.45780  0.78465  0.28587  1.0000
  S   S327      1.0  0.44924  0.78526  0.36230  1.0000
  S   S328      1.0  0.43913  0.76777  0.33480  1.0000
  C   C913      1.0  0.40892  0.75260  0.39231  1.0000
  C   C914      1.0  0.44127  0.65621  0.28590  1.0000
  C   C915      1.0  0.25372  0.86866  0.04937  1.0000
  H   H903      1.0  0.45165  0.85187  0.36412  1.0000
  H   H904      1.0  0.26665  0.77482  0.32567  1.0000
  H   H905      1.0  0.38173  0.91469  0.16942  1.0000
  C   C916      1.0  0.43535  0.68443  0.19300  1.0000
  C   C917      1.0  0.42998  0.86849  0.32423  1.0000
  Fe  Fe164     1.0  0.30562  0.76122  0.99920  1.0000
  C   C918      1.0  0.44859  0.87198  0.34162  1.0000
  H   H906      1.0  0.28179  0.86646  0.01061  1.0000
  C   C919      1.0  0.27280  0.76332  0.32023  1.0000
  Fe  Fe165     1.0  0.34233  0.79063  0.44998  1.0000
  S   S329      1.0  0.32158  0.81498  0.44709  1.0000
  S   S330      1.0  0.37110  0.79003  0.43858  1.0000
  S   S331      1.0  0.25462  0.87956  0.99104  1.0000
  S   S332      1.0  0.26491  0.79049  0.12596  1.0000
  Fe  Fe166     1.0  0.30598  0.79759  0.44281  1.0000
  S   S333      1.0  0.28954  0.80286  0.42276  1.0000
  S   S334      1.0  0.32749  0.77397  0.44360  1.0000
  H   H907      1.0  0.47895  0.68163  0.29158  1.0000
  S   S335      1.0  0.27687  0.74064  0.37157  1.0000
  C   C920      1.0  0.40080  0.75333  0.40954  1.0000
  S   S336      1.0  0.47431  0.75688  0.09024  1.0000
  C   C921      1.0  0.44028  0.75357  0.15458  1.0000
  H   H908      1.0  0.48535  0.88103  0.18404  1.0000
  N   N75       1.0  0.25057  0.70778  0.46808  1.0000
  Fe  Fe167     1.0  0.49237  0.90517  0.22827  1.0000
  C   C922      1.0  0.39132  0.79646  0.37996  1.0000
  C   C923      1.0  0.40251  0.79550  0.39096  1.0000
  C   C924      1.0  0.39600  0.79414  0.40886  1.0000
  C   C925      1.0  0.37832  0.79356  0.41591  1.0000
  C   C926      1.0  0.36706  0.79477  0.40489  1.0000
  C   C927      1.0  0.37355  0.79630  0.38695  1.0000
  H   H909      1.0  0.41618  0.79574  0.38574  1.0000
  H   H910      1.0  0.40475  0.79329  0.41733  1.0000
  H   H911      1.0  0.35339  0.79445  0.41021  1.0000
  H   H912      1.0  0.36481  0.79725  0.37846  1.0000
  C   C928      1.0  0.49009  0.86605  0.31876  1.0000
  H   H913      1.0  0.29756  0.68113  0.04874  1.0000
  C   C929      1.0  0.47726  0.79911  0.10704  1.0000
  H   H914      1.0  0.45946  0.67534  0.10597  1.0000
  C   C930      1.0  0.49095  0.72542  0.35377  1.0000
  H   H915      1.0  0.40871  0.65655  0.21388  1.0000
  S   S337      1.0  0.27665  0.71041  0.02328  1.0000
  C   C931      1.0  0.42109  0.65241  0.25015  1.0000
  H   H916      1.0  0.26187  0.82026  0.00256  1.0000
  C   C932      1.0  0.46272  0.67691  0.14892  1.0000
  S   S338      1.0  0.33307  0.78244  0.47879  1.0000
  H   H917      1.0  0.36451  0.75596  0.01461  1.0000
  C   C933      1.0  0.36658  0.73494  0.03664  1.0000
  C   C934      1.0  0.37466  0.72785  0.05102  1.0000
  C   C935      1.0  0.38628  0.73619  0.05474  1.0000
  C   C936      1.0  0.37054  0.75037  0.02577  1.0000
  H   H918      1.0  0.37177  0.71588  0.05947  1.0000
  H   H919      1.0  0.39229  0.73059  0.06591  1.0000
  C   C937      1.0  0.44986  0.73119  0.28590  1.0000
  C   C938      1.0  0.44540  0.74520  0.27267  1.0000
  C   C939      1.0  0.44872  0.76151  0.27208  1.0000
  C   C940      1.0  0.45613  0.76385  0.28494  1.0000
  C   C941      1.0  0.46101  0.74973  0.29787  1.0000
  C   C942      1.0  0.45807  0.73337  0.29822  1.0000
  H   H920      1.0  0.43948  0.74347  0.26285  1.0000
  H   H921      1.0  0.44499  0.77239  0.26201  1.0000
  H   H922      1.0  0.46699  0.75139  0.30770  1.0000
  H   H923      1.0  0.46176  0.72252  0.30835  1.0000
  C   C943      1.0  0.29645  0.71794  0.29964  1.0000
  C   C944      1.0  0.38249  0.75851  0.02927  1.0000
  C   C945      1.0  0.30619  0.66481  0.02985  1.0000
  S   S339      1.0  0.29750  0.70224  0.34590  1.0000
  C   C946      1.0  0.42667  0.85334  0.33615  1.0000
  C   C947      1.0  0.47391  0.67076  0.10427  1.0000
  H   H924      1.0  0.45344  0.72153  0.11826  1.0000
  C   C948      1.0  0.29097  0.67928  0.98824  1.0000
  H   H925      1.0  0.43733  0.67160  0.24167  1.0000
  C   C949      1.0  0.39122  0.79892  0.22772  1.0000
  C   C950      1.0  0.40432  0.79524  0.21343  1.0000
  C   C951      1.0  0.40906  0.77846  0.20999  1.0000
  C   C952      1.0  0.40078  0.76535  0.22090  1.0000
  C   C953      1.0  0.38734  0.76914  0.23489  1.0000
  C   C954      1.0  0.38248  0.78594  0.23823  1.0000
  H   H926      1.0  0.41123  0.80518  0.20535  1.0000
  H   H927      1.0  0.41967  0.77544  0.19944  1.0000
  H   H928      1.0  0.38067  0.75909  0.24316  1.0000
  H   H929      1.0  0.37190  0.78887  0.24890  1.0000
  C   C955      1.0  0.41985  0.81731  0.14056  1.0000
  C   C956      1.0  0.40169  0.82237  0.14264  1.0000
  C   C957      1.0  0.39235  0.81414  0.13590  1.0000
  C   C958      1.0  0.40120  0.80105  0.12675  1.0000
  C   C959      1.0  0.41949  0.79678  0.12365  1.0000
  C   C960      1.0  0.42881  0.80489  0.13058  1.0000
  H   H930      1.0  0.39480  0.83265  0.14941  1.0000
  H   H931      1.0  0.37828  0.81786  0.13790  1.0000
  H   H932      1.0  0.42650  0.78713  0.11606  1.0000
  H   H933      1.0  0.44288  0.80123  0.12854  1.0000
  C   C961      1.0  0.43172  0.89857  0.19219  1.0000
  C   C962      1.0  0.43742  0.91413  0.18444  1.0000
  C   C963      1.0  0.45141  0.91801  0.18904  1.0000
  C   C964      1.0  0.45981  0.90666  0.20186  1.0000
  C   C965      1.0  0.45426  0.89090  0.20979  1.0000
  C   C966      1.0  0.44030  0.88678  0.20484  1.0000
  H   H934      1.0  0.43094  0.92337  0.17475  1.0000
  H   H935      1.0  0.45560  0.93012  0.18273  1.0000
  H   H936      1.0  0.46079  0.88190  0.21957  1.0000
  H   H937      1.0  0.43595  0.87474  0.21105  1.0000
  C   C967      1.0  0.34164  0.85982  0.15458  1.0000
  C   C968      1.0  0.35479  0.85284  0.14195  1.0000
  C   C969      1.0  0.35040  0.84720  0.12888  1.0000
  C   C970      1.0  0.33284  0.84823  0.12836  1.0000
  C   C971      1.0  0.31963  0.85524  0.14100  1.0000
  C   C972      1.0  0.32404  0.86114  0.15397  1.0000
  H   H938      1.0  0.36836  0.85197  0.14209  1.0000
  H   H939      1.0  0.36074  0.84193  0.11914  1.0000
  H   H940      1.0  0.30605  0.85619  0.14074  1.0000
  H   H941      1.0  0.31373  0.86662  0.16364  1.0000
  C   C973      1.0  0.31713  0.80138  0.03888  1.0000
  C   C974      1.0  0.32746  0.79147  0.02684  1.0000
  C   C975      1.0  0.32001  0.78798  0.01460  1.0000
  C   C976      1.0  0.30227  0.79450  0.01428  1.0000
  C   C977      1.0  0.29209  0.80470  0.02605  1.0000
  C   C978      1.0  0.29956  0.80838  0.03817  1.0000
  H   H942      1.0  0.34111  0.78608  0.02725  1.0000
  H   H943      1.0  0.32803  0.78021  0.00546  1.0000
  H   H944      1.0  0.27831  0.80908  0.02629  1.0000
  H   H945      1.0  0.29165  0.81639  0.04708  1.0000
  H   H946      1.0  0.31785  0.71599  0.39428  1.0000
  H   H947      1.0  0.29587  0.77308  0.30562  1.0000
  C   C979      1.0  0.47639  0.70022  0.08845  1.0000
  N   N76       1.0  0.43434  0.84759  0.35033  1.0000
  S   S340      1.0  0.29245  0.78868  0.00025  1.0000
  C   C980      1.0  0.37018  0.91189  0.17900  1.0000
  C   C981      1.0  0.48231  0.87061  0.30429  1.0000
  H   H948      1.0  0.47647  0.66245  0.11685  1.0000
  C   C982      1.0  0.42848  0.74666  0.41756  1.0000
  C   C983      1.0  0.31571  0.71144  0.33404  1.0000
  C   C984      1.0  0.32907  0.70197  0.32326  1.0000
  C   C985      1.0  0.34290  0.70952  0.31233  1.0000
  C   C986      1.0  0.34343  0.72662  0.31213  1.0000
  C   C987      1.0  0.33028  0.73597  0.32317  1.0000
  C   C988      1.0  0.31646  0.72842  0.33410  1.0000
  H   H949      1.0  0.32857  0.68882  0.32315  1.0000
  H   H950      1.0  0.35299  0.70219  0.30390  1.0000
  H   H951      1.0  0.33061  0.74923  0.32301  1.0000
  H   H952      1.0  0.30610  0.73592  0.34208  1.0000
  C   C989      1.0  0.28025  0.74992  0.42247  1.0000
  C   C990      1.0  0.27640  0.76396  0.40904  1.0000
  C   C991      1.0  0.27847  0.78052  0.40941  1.0000
  C   C992      1.0  0.28451  0.78294  0.42316  1.0000
  C   C993      1.0  0.28789  0.76894  0.43673  1.0000
  C   C994      1.0  0.28590  0.75248  0.43634  1.0000
  H   H953      1.0  0.27217  0.76199  0.39824  1.0000
  H   H954      1.0  0.27578  0.79130  0.39888  1.0000
  H   H955      1.0  0.29227  0.77063  0.44754  1.0000
  H   H956      1.0  0.28922  0.74168  0.44665  1.0000
  C   C995      1.0  0.27249  0.73441  0.31789  1.0000
  Fe  Fe168     1.0  0.44576  0.75770  0.09027  1.0000
  C   C996      1.0  0.30250  0.65167  0.02388  1.0000
  C   C997      1.0  0.43827  0.65464  0.18978  1.0000
  C   C998      1.0  0.28911  0.76234  0.30902  1.0000
  C   C999      1.0  0.26950  0.86871  0.01971  1.0000
  C   C1000     1.0  0.26945  0.86528  0.03754  1.0000
  H   H957      1.0  0.46316  0.74339  0.13690  1.0000
  C   C1001     1.0  0.48947  0.84995  0.32998  1.0000
  H   H958      1.0  0.46312  0.67844  0.31146  1.0000
  S   S341      1.0  0.29347  0.79083  0.47070  1.0000
  H   H959      1.0  0.28162  0.86039  0.04211  1.0000
  H   H960      1.0  0.35424  0.90825  0.22229  1.0000
  H   H961      1.0  0.31810  0.76881  0.09532  1.0000
  N   N77       1.0  0.36996  0.81030  0.05375  1.0000
  C   C1002     1.0  0.35645  0.82374  0.05746  1.0000
  C   C1003     1.0  0.38252  0.80426  0.06361  1.0000
  C   C1004     1.0  0.35517  0.83131  0.07148  1.0000
  C   C1005     1.0  0.38181  0.81176  0.07752  1.0000
  C   C1006     1.0  0.36791  0.82521  0.08160  1.0000
  C   C1007     1.0  0.37055  0.80158  0.03984  1.0000
  H   H962      1.0  0.34637  0.82848  0.04978  1.0000
  H   H963      1.0  0.39312  0.79352  0.06079  1.0000
  H   H964      1.0  0.34421  0.84166  0.07468  1.0000
  H   H965      1.0  0.39184  0.80702  0.08524  1.0000
  H   H966      1.0  0.36691  0.83078  0.09268  1.0000
  H   H967      1.0  0.36557  0.78938  0.04551  1.0000
  H   H968      1.0  0.36234  0.80976  0.03051  1.0000
  H   H969      1.0  0.38419  0.79826  0.03255  1.0000
  S   S342      1.0  0.32662  0.71285  0.00199  1.0000
  H   H970      1.0  0.39293  0.68150  0.22754  1.0000
  C   C1008     1.0  0.40206  0.75176  0.43980  1.0000
  H   H971      1.0  0.45121  0.74274  0.39705  1.0000
  H   H972      1.0  0.29017  0.76484  0.04933  1.0000
  H   H973      1.0  0.34544  0.74348  0.07217  1.0000
  H   H974      1.0  0.44734  0.68527  0.18338  1.0000
  H   H975      1.0  0.44302  0.82327  0.36599  1.0000
  H   H976      1.0  0.42390  0.82431  0.35798  1.0000
  S   S343      1.0  0.24844  0.72204  0.36333  1.0000
  N   N78       1.0  0.45924  0.77761  0.15515  1.0000
  C   C1009     1.0  0.44241  0.77852  0.16432  1.0000
  C   C1010     1.0  0.46666  0.76516  0.14544  1.0000
  C   C1011     1.0  0.43272  0.76643  0.16430  1.0000
  C   C1012     1.0  0.47462  0.68798  0.14452  1.0000
  H   H977      1.0  0.46807  0.86235  0.28971  1.0000
  C   C1013     1.0  0.46891  0.79081  0.15476  1.0000
  H   H978      1.0  0.43627  0.78887  0.17141  1.0000
  H   H979      1.0  0.26148  0.84717  0.46668  1.0000
  C   C1014     1.0  0.47080  0.70436  0.13403  1.0000
  H   H980      1.0  0.25394  0.84281  0.99358  1.0000
  H   H981      1.0  0.47920  0.72635  0.07542  1.0000
  H   H982      1.0  0.48327  0.78571  0.15229  1.0000
  H   H983      1.0  0.46597  0.80213  0.14425  1.0000
  H   H984      1.0  0.46523  0.79528  0.16725  1.0000
  N   N79       1.0  0.32278  0.76217  0.39400  1.0000
  C   C1015     1.0  0.32052  0.75843  0.37931  1.0000
  C   C1016     1.0  0.32387  0.74950  0.40860  1.0000
  C   C1017     1.0  0.31900  0.74172  0.37910  1.0000
  C   C1018     1.0  0.32226  0.73269  0.40887  1.0000
  C   C1019     1.0  0.31970  0.72884  0.39405  1.0000
  C   C1020     1.0  0.32438  0.77980  0.39378  1.0000
  H   H985      1.0  0.31969  0.76846  0.36773  1.0000
  H   H986      1.0  0.32538  0.75243  0.42035  1.0000
  H   H987      1.0  0.31703  0.73879  0.36753  1.0000
  H   H988      1.0  0.32226  0.72291  0.42073  1.0000
  H   H989      1.0  0.44413  0.88935  0.31765  1.0000
  H   H990      1.0  0.32356  0.78180  0.40699  1.0000
  H   H991      1.0  0.33706  0.78251  0.38562  1.0000
  H   H992      1.0  0.31343  0.78947  0.38873  1.0000
  N   N80       1.0  0.35175  0.79981  0.15654  1.0000
  C   C1021     1.0  0.34548  0.81288  0.16563  1.0000
  C   C1022     1.0  0.36476  0.78629  0.16138  1.0000
  C   C1023     1.0  0.35213  0.81260  0.18004  1.0000
  C   C1024     1.0  0.37159  0.78548  0.17586  1.0000
  C   C1025     1.0  0.36519  0.79872  0.18523  1.0000
  C   C1026     1.0  0.34535  0.80100  0.14084  1.0000
  H   H993      1.0  0.33540  0.82373  0.16163  1.0000
  H   H994      1.0  0.37014  0.77621  0.15385  1.0000
  H   H995      1.0  0.34734  0.82323  0.18694  1.0000
  H   H996      1.0  0.38191  0.77477  0.17966  1.0000
  H   H997      1.0  0.37051  0.79833  0.19638  1.0000
  H   H998      1.0  0.35278  0.80897  0.12961  1.0000
  H   H999      1.0  0.34704  0.78802  0.13784  1.0000
  H   H1000     1.0  0.33124  0.80717  0.14217  1.0000
  H   H1001     1.0  0.34540  0.90663  0.15360  1.0000
  H   H1002     1.0  0.45762  0.87890  0.34357  1.0000
  C   C1027     1.0  0.24710  0.83580  0.43600  1.0000
  C   C1028     1.0  0.48134  0.77138  0.09885  1.0000
  H   H1003     1.0  0.43627  0.74457  0.42728  1.0000
  C   C1029     1.0  0.29618  0.76535  0.05965  1.0000
  S   S344      1.0  0.33416  0.75241  0.98872  1.0000
  N   N81       1.0  0.28851  0.73351  0.30696  1.0000
  H   H1004     1.0  0.25349  0.66586  0.01072  1.0000
  H   H1005     1.0  0.27176  0.77495  0.07583  1.0000
  H   H1006     1.0  0.36289  0.91838  0.14735  1.0000
  H   H1007     1.0  0.32240  0.75609  0.04659  1.0000
  H   H1008     1.0  0.28602  0.77651  0.09893  1.0000
  N   N82       1.0  0.35685  0.90763  0.17435  1.0000
  C   C1030     1.0  0.45550  0.70943  0.12735  1.0000
  C   C1031     1.0  0.44837  0.66560  0.29370  1.0000
  N   N83       1.0  0.40529  0.79124  0.28268  1.0000
  C   C1032     1.0  0.39148  0.78793  0.27800  1.0000
  C   C1033     1.0  0.41206  0.78054  0.29634  1.0000
  C   C1034     1.0  0.38462  0.77312  0.28656  1.0000
  C   C1035     1.0  0.40572  0.76548  0.30503  1.0000
  C   C1036     1.0  0.39192  0.76176  0.30005  1.0000
  C   C1037     1.0  0.41242  0.80673  0.27348  1.0000
  H   H1009     1.0  0.38579  0.79674  0.26753  1.0000
  H   H1010     1.0  0.42259  0.78347  0.30044  1.0000
  H   H1011     1.0  0.37393  0.77026  0.28258  1.0000
  H   H1012     1.0  0.41160  0.75670  0.31542  1.0000
  H   H1013     1.0  0.38696  0.75003  0.30652  1.0000
  H   H1014     1.0  0.40966  0.81118  0.26014  1.0000
  H   H1015     1.0  0.40662  0.81738  0.28071  1.0000
  H   H1016     1.0  0.42690  0.80393  0.27206  1.0000
  H   H1017     1.0  0.46470  0.70112  0.08366  1.0000
  H   H1018     1.0  0.40370  0.76397  0.44244  1.0000
  S   S345      1.0  0.47802  0.91265  0.20582  1.0000
  H   H1019     1.0  0.46928  0.81176  0.10809  1.0000
  H   H1020     1.0  0.42428  0.87282  0.31275  1.0000
  H   H1021     1.0  0.47421  0.83585  0.17273  1.0000
  N   N84       1.0  0.42895  0.66946  0.19787  1.0000
  C   C1038     1.0  0.44872  0.86628  0.13876  1.0000
  Fe  Fe169     1.0  0.40743  0.76992  0.10558  1.0000
  S   S346      1.0  0.25324  0.86506  0.07179  1.0000
  Fe  Fe170     1.0  0.26860  0.72768  0.39927  1.0000
  C   C1039     1.0  0.44099  0.87785  0.32704  1.0000
  C   C1040     1.0  0.29523  0.67046  0.04443  1.0000
  C   C1041     1.0  0.39035  0.75155  0.04384  1.0000
  Fe  Fe171     1.0  0.27672  0.71519  0.36567  1.0000
  Fe  Fe172     1.0  0.42225  0.73168  0.10669  1.0000
  H   H1022     1.0  0.45416  0.83799  0.11910  1.0000
  H   H1023     1.0  0.47847  0.66284  0.09410  1.0000
  C   C1042     1.0  0.31438  0.76060  0.05811  1.0000
  C   C1043     1.0  0.28588  0.77114  0.07442  1.0000
  C   C1044     1.0  0.28088  0.66282  0.05299  1.0000
  H   H1024     1.0  0.43702  0.88208  0.15802  1.0000
  S   S347      1.0  0.40512  0.76245  0.04788  1.0000
  S   S348      1.0  0.42414  0.77785  0.07964  1.0000
  C   C1045     1.0  0.25765  0.83499  0.44760  1.0000
  S   S349      1.0  0.49334  0.88029  0.24790  1.0000
  N   N85       1.0  0.32207  0.76226  0.07065  1.0000
  C   C1046     1.0  0.29384  0.77210  0.08740  1.0000
  H   H1025     1.0  0.34589  0.76415  0.07652  1.0000
  S   S350      1.0  0.42932  0.75162  0.11673  1.0000
  C   C1047     1.0  0.35486  0.90823  0.20882  1.0000
  C   C1048     1.0  0.34268  0.90335  0.18664  1.0000
  C   C1049     1.0  0.35822  0.90691  0.15622  1.0000
  H   H1026     1.0  0.44102  0.87455  0.12950  1.0000
  H   H1027     1.0  0.40438  0.70879  0.21886  1.0000
  C   C1050     1.0  0.26435  0.74937  0.32455  1.0000
  H   H1028     1.0  0.48011  0.71285  0.13037  1.0000
  C   C1051     1.0  0.31204  0.76764  0.08530  1.0000
  C   C1052     1.0  0.34114  0.75775  0.06854  1.0000
  H   H1029     1.0  0.34739  0.76231  0.05488  1.0000
  C   C1053     1.0  0.36932  0.91242  0.19625  1.0000
  H   H1030     1.0  0.24521  0.77137  0.38939  1.0000
  H   H1031     1.0  0.46104  0.65411  0.22329  1.0000
  H   H1032     1.0  0.43363  0.74803  0.37453  1.0000
  H   H1033     1.0  0.38568  0.77025  0.02060  1.0000
  C   C1054     1.0  0.42661  0.69880  0.20048  1.0000
  C   C1055     1.0  0.43701  0.74567  0.40050  1.0000
  C   C1056     1.0  0.43611  0.65893  0.24095  1.0000
  H   H1034     1.0  0.43796  0.67360  0.14574  1.0000
  C   C1057     1.0  0.29674  0.74731  0.30230  1.0000
  H   H1035     1.0  0.25239  0.75863  0.13287  1.0000
  N   N86       1.0  0.46577  0.66131  0.29439  1.0000
  H   H1036     1.0  0.26604  0.72341  0.32171  1.0000
  H   H1037     1.0  0.43287  0.74423  0.15427  1.0000
  N   N87       1.0  0.41060  0.75032  0.42191  1.0000
  Fe  Fe173     1.0  0.31592  0.76833  0.47205  1.0000
  H   H1038     1.0  0.28605  0.87759  0.46239  1.0000
  H   H1039     1.0  0.49035  0.74022  0.32786  1.0000
  H   H1040     1.0  0.33033  0.89996  0.21374  1.0000
  H   H1041     1.0  0.30137  0.84661  0.46667  1.0000
  H   H1042     1.0  0.25715  0.73221  0.05162  1.0000
  H   H1043     1.0  0.25159  0.75015  0.33312  1.0000
  H   H1044     1.0  0.38004  0.91562  0.19988  1.0000
  C   C1058     1.0  0.29023  0.69245  0.99688  1.0000
  H   H1045     1.0  0.30950  0.74657  0.29371  1.0000
  H   H1046     1.0  0.24912  0.66467  0.45251  1.0000
  C   C1059     1.0  0.27651  0.69566  0.01085  1.0000
  C   C1060     1.0  0.47433  0.85874  0.30076  1.0000
  H   H1047     1.0  0.40772  0.74055  0.44913  1.0000
  H   H1048     1.0  0.31707  0.67106  0.02283  1.0000
  H   H1049     1.0  0.49107  0.88465  0.16063  1.0000
  C   C1061     1.0  0.24649  0.76754  0.12261  1.0000
  C   C1062     1.0  0.44708  0.68222  0.14262  1.0000
  C   C1063     1.0  0.48075  0.83844  0.32702  1.0000
  C   C1064     1.0  0.46262  0.84731  0.11788  1.0000
  C   C1065     1.0  0.41370  0.66846  0.20984  1.0000
  H   H1050     1.0  0.45825  0.79139  0.09741  1.0000
  C   C1066     1.0  0.44628  0.87054  0.15493  1.0000
  C   C1067     1.0  0.44352  0.69847  0.13169  1.0000
  C   C1068     1.0  0.27773  0.66965  0.99324  1.0000
  Fe  Fe174     1.0  0.24817  0.74654  0.37135  1.0000
  H   H1051     1.0  0.43986  0.67635  0.29918  1.0000
  C   C1069     1.0  0.26366  0.67334  0.00672  1.0000
  Fe  Fe175     1.0  0.29855  0.72488  0.01098  1.0000
  H   H1052     1.0  0.40117  0.75551  0.38241  1.0000
  C   C1070     1.0  0.26027  0.71877  0.46955  1.0000
  S   S351      1.0  0.42458  0.70462  0.12286  1.0000
  H   H1053     1.0  0.30053  0.69980  0.99296  1.0000
  C   C1071     1.0  0.47322  0.67167  0.30197  1.0000
  H   H1054     1.0  0.47643  0.84128  0.11313  1.0000
  C   C1072     1.0  0.48449  0.71452  0.08376  1.0000
  C   C1073     1.0  0.47343  0.84267  0.31222  1.0000
  H   H1055     1.0  0.33236  0.89940  0.18308  1.0000
  C   C1074     1.0  0.25797  0.83362  0.00516  1.0000
  H   H1056     1.0  0.45353  0.86259  0.17994  1.0000
  H   H1057     1.0  0.38664  0.75685  0.41284  1.0000
  N   N88       1.0  0.48275  0.68551  0.09937  1.0000
  H   H1058     1.0  0.26389  0.72891  0.45866  1.0000
  H   H1059     1.0  0.31083  0.71684  0.29500  1.0000
  H   H1060     1.0  0.26964  0.83744  0.00693  1.0000
  C   C1075     1.0  0.25380  0.87498  0.01360  1.0000
  H   H1061     1.0  0.38775  0.75217  0.44225  1.0000
  H   H1062     1.0  0.46575  0.66414  0.15678  1.0000
  H   H1063     1.0  0.36744  0.89490  0.15319  1.0000
  C   C1076     1.0  0.45560  0.85963  0.16720  1.0000
  S   S352      1.0  0.43949  0.73677  0.08046  1.0000
  N   N89       1.0  0.46051  0.85181  0.13473  1.0000
  C   C1077     1.0  0.40467  0.68256  0.21759  1.0000
  H   H1064     1.0  0.27208  0.66738  0.06415  1.0000
  C   C1078     1.0  0.26311  0.68623  0.01559  1.0000
  H   H1065     1.0  0.48516  0.73796  0.26289  1.0000
  C   C1079     1.0  0.28278  0.86884  0.47461  1.0000
  S   S353      1.0  0.40334  0.66431  0.26274  1.0000
  C   C1080     1.0  0.34146  0.90361  0.20403  1.0000
  S   S354      1.0  0.27912  0.65269  0.98293  1.0000
  Fe  Fe176     1.0  0.31123  0.80552  0.47541  1.0000
  H   H1066     1.0  0.47859  0.82924  0.14373  1.0000
  C   C1081     1.0  0.47095  0.78756  0.10096  1.0000
  H   H1067     1.0  0.42746  0.65962  0.28541  1.0000
  C   C1082     1.0  0.46961  0.84096  0.14674  1.0000
  S   S355      1.0  0.29603  0.74485  0.98674  1.0000
  H   H1068     1.0  0.46671  0.83381  0.30984  1.0000
  H   H1069     1.0  0.49177  0.85484  0.20584  1.0000
  H   H1070     1.0  0.24867  0.68028  0.42221  1.0000
  C   C1083     1.0  0.25037  0.78422  0.11673  1.0000
  H   H1071     1.0  0.25246  0.68866  0.02630  1.0000
  S   S356      1.0  0.47808  0.81968  0.34293  1.0000
  H   H1072     1.0  0.26037  0.83326  0.03754  1.0000
  H   H1073     1.0  0.45904  0.85893  0.10788  1.0000
  H   H1074     1.0  0.47985  0.76464  0.13789  1.0000
  H   H1075     1.0  0.41938  0.76720  0.17157  1.0000
  H   H1076     1.0  0.42208  0.83541  0.37508  1.0000
  C   C1084     1.0  0.44518  0.85669  0.35316  1.0000
  H   H1077     1.0  0.26902  0.82458  0.44877  1.0000
  H   H1078     1.0  0.24519  0.80864  0.09912  1.0000
  H   H1079     1.0  0.29457  0.70605  0.30968  1.0000
  C   C1085     1.0  0.41120  0.69780  0.21286  1.0000
  C   C1086     1.0  0.43061  0.83189  0.36295  1.0000
  H   H1080     1.0  0.43175  0.71063  0.19682  1.0000
  H   H1081     1.0  0.48064  0.70782  0.26832  1.0000
  H   H1082     1.0  0.41811  0.84612  0.33386  1.0000
  H   H1083     1.0  0.45260  0.65266  0.18893  1.0000
  H   H1084     1.0  0.29045  0.71823  0.28868  1.0000
  H   H1085     1.0  0.49107  0.90118  0.17163  1.0000
  C   C1087     1.0  0.25345  0.84767  0.45760  1.0000
  H   H1086     1.0  0.43556  0.65681  0.17662  1.0000
  S   S357      1.0  0.49228  0.92156  0.24698  1.0000
  H   H1087     1.0  0.25043  0.82580  0.42837  1.0000
  C   C1088     1.0  0.24719  0.83378  0.03620  1.0000
  H   H1088     1.0  0.48374  0.66343  0.30875  1.0000
  C   C1089     1.0  0.49239  0.72953  0.25395  1.0000
  H   H1089     1.0  0.49425  0.77950  0.26562  1.0000
  C   C1090     1.0  0.49408  0.88691  0.17236  1.0000
  C   C1091     1.0  0.49377  0.79446  0.11163  1.0000
  C   C1092     1.0  0.25627  0.83654  0.74844  1.0000
  Fe  Fe177     1.0  0.32445  0.73413  0.97829  1.0000
  N   N90       1.0  0.24867  0.78178  0.54508  1.0000
  C   C1093     1.0  0.29641  0.78320  0.95162  1.0000
  H   H1090     1.0  0.26488  0.70264  0.51137  1.0000
  H   H1091     1.0  0.27700  0.91396  0.68358  1.0000
  Fe  Fe178     1.0  0.25483  0.98093  0.64309  1.0000
  C   C1094     1.0  0.28547  0.83062  0.75542  1.0000
  H   H1092     1.0  0.29145  0.96844  0.68889  1.0000
  S   S358      1.0  0.26793  0.87712  0.74753  1.0000
  H   H1093     1.0  0.24792  0.94686  0.68463  1.0000
  C   C1095     1.0  0.31003  0.86682  0.50273  1.0000
  H   H1094     1.0  0.25142  0.94914  0.94711  1.0000
  Fe  Fe179     1.0  0.26402  0.90517  0.74825  1.0000
  S   S359      1.0  0.28426  0.92023  0.73144  1.0000
  S   S360      1.0  0.29991  0.81931  0.49759  1.0000
  H   H1095     1.0  0.25486  0.78859  0.95916  1.0000
  H   H1096     1.0  0.26812  0.79173  0.92502  1.0000
  H   H1097     1.0  0.26309  0.80215  0.53724  1.0000
  S   S361      1.0  0.29128  0.73776  0.89325  1.0000
  H   H1098     1.0  0.30309  0.89381  0.49130  1.0000
  H   H1099     1.0  0.26481  0.80199  0.84369  1.0000
  C   C1096     1.0  0.25150  0.69262  0.49737  1.0000
  S   S362      1.0  0.25700  0.96763  0.58449  1.0000
  C   C1097     1.0  0.31116  0.77463  0.92448  1.0000
  H   H1100     1.0  0.29755  0.70197  0.91743  1.0000
  H   H1101     1.0  0.27794  0.87891  0.54380  1.0000
  H   H1102     1.0  0.27419  0.79732  0.50735  1.0000
  C   C1098     1.0  0.29557  0.85836  0.53238  1.0000
  H   H1103     1.0  0.27549  0.90866  0.53110  1.0000
  C   C1099     1.0  0.28117  0.69437  0.94223  1.0000
  S   S363      1.0  0.33487  0.72978  0.95097  1.0000
  C   C1100     1.0  0.25191  0.69297  0.94117  1.0000
  C   C1101     1.0  0.30226  0.91320  0.78055  1.0000
  H   H1104     1.0  0.28225  0.89953  0.79662  1.0000
  C   C1102     1.0  0.26620  0.86381  0.50402  1.0000
  S   S364      1.0  0.30841  0.74274  0.48573  1.0000
  H   H1105     1.0  0.29479  0.77894  0.90591  1.0000
  H   H1106     1.0  0.29122  0.69293  0.94952  1.0000
  H   H1107     1.0  0.27188  0.83790  0.51886  1.0000
  N   N91       1.0  0.28103  0.78891  0.94575  1.0000
  H   H1108     1.0  0.26124  0.84346  0.73559  1.0000
  H   H1109     1.0  0.26519  0.97277  0.72782  1.0000
  N   N92       1.0  0.29036  0.88826  0.51782  1.0000
  Fe  Fe180     1.0  0.25834  0.68117  0.60000  1.0000
  H   H1110     1.0  0.26564  0.90178  0.70320  1.0000
  H   H1111     1.0  0.31837  0.86337  0.49088  1.0000
  H   H1112     1.0  0.30190  0.67648  0.97780  1.0000
  C   C1103     1.0  0.30910  0.92816  0.77712  1.0000
  C   C1104     1.0  0.28758  0.91119  0.79371  1.0000
  C   C1105     1.0  0.30240  0.73595  0.91000  1.0000
  C   C1106     1.0  0.29367  0.73859  0.92667  1.0000
  C   C1107     1.0  0.30330  0.73624  0.93972  1.0000
  C   C1108     1.0  0.32165  0.73155  0.93598  1.0000
  C   C1109     1.0  0.33015  0.72878  0.91939  1.0000
  C   C1110     1.0  0.32061  0.73083  0.90656  1.0000
  H   H1113     1.0  0.27956  0.74230  0.92955  1.0000
  H   H1114     1.0  0.29656  0.73833  0.95250  1.0000
  H   H1115     1.0  0.34428  0.72509  0.91638  1.0000
  H   H1116     1.0  0.32746  0.72855  0.89383  1.0000
  C   C1111     1.0  0.27034  0.87510  0.48822  1.0000
  S   S365      1.0  0.27133  0.97042  0.66351  1.0000
  S   S366      1.0  0.26885  0.69115  0.57182  1.0000
  C   C1112     1.0  0.31167  0.77589  0.94112  1.0000
  H   H1117     1.0  0.25546  0.91778  0.97688  1.0000
  N   N93       1.0  0.25538  0.69834  0.92353  1.0000
  C   C1113     1.0  0.30716  0.85396  0.51752  1.0000
  S   S367      1.0  0.26976  0.85082  0.79423  1.0000
  H   H1118     1.0  0.32373  0.77084  0.94598  1.0000
  H   H1119     1.0  0.28826  0.84047  0.74340  1.0000
  C   C1114     1.0  0.29259  0.96677  0.74807  1.0000
  H   H1120     1.0  0.27115  0.91008  0.51009  1.0000
  H   H1121     1.0  0.26379  0.66110  0.55447  1.0000
  C   C1115     1.0  0.28751  0.84024  0.49301  1.0000
  H   H1122     1.0  0.26903  0.81512  0.78568  1.0000
  Fe  Fe181     1.0  0.26038  0.71767  0.57810  1.0000
  N   N94       1.0  0.28607  0.93931  0.79911  1.0000
  C   C1116     1.0  0.30091  0.94108  0.78673  1.0000
  C   C1117     1.0  0.28689  0.93837  0.73784  1.0000
  C   C1118     1.0  0.29984  0.94752  0.72777  1.0000
  C   C1119     1.0  0.30269  0.96169  0.73285  1.0000
  H   H1123     1.0  0.27774  0.94916  0.82229  1.0000
  C   C1120     1.0  0.27915  0.95807  0.75779  1.0000
  C   C1121     1.0  0.27637  0.94381  0.75277  1.0000
  H   H1124     1.0  0.30790  0.94346  0.71611  1.0000
  S   S368      1.0  0.25790  0.78235  0.88928  1.0000
  H   H1125     1.0  0.26278  0.95662  0.80758  1.0000
  H   H1126     1.0  0.26621  0.93695  0.76051  1.0000
  C   C1122     1.0  0.28434  0.74020  0.54339  1.0000
  C   C1123     1.0  0.28268  0.72791  0.53486  1.0000
  C   C1124     1.0  0.29040  0.72858  0.51727  1.0000
  C   C1125     1.0  0.29943  0.74179  0.50795  1.0000
  C   C1126     1.0  0.30089  0.75424  0.51639  1.0000
  C   C1127     1.0  0.29349  0.75335  0.53410  1.0000
  H   H1127     1.0  0.27552  0.71785  0.54183  1.0000
  H   H1128     1.0  0.28941  0.71882  0.51088  1.0000
  H   H1129     1.0  0.30784  0.76448  0.50932  1.0000
  H   H1130     1.0  0.29481  0.76290  0.54060  1.0000
  C   C1128     1.0  0.28038  0.78750  0.92953  1.0000
  C   C1129     1.0  0.28717  0.87567  0.53229  1.0000
  S   S369      1.0  0.29714  0.98322  0.75574  1.0000
  H   H1131     1.0  0.30820  0.90327  0.77290  1.0000
  C   C1130     1.0  0.26670  0.82408  0.82244  1.0000
  H   H1132     1.0  0.26479  0.94552  0.55975  1.0000
  H   H1133     1.0  0.24591  0.93441  0.54680  1.0000
  C   C1131     1.0  0.26525  0.91463  0.69419  1.0000
  C   C1132     1.0  0.25046  0.76559  0.52353  1.0000
  S   S370      1.0  0.25276  0.70745  0.60677  1.0000
  H   H1134     1.0  0.26799  0.92298  0.81289  1.0000
  C   C1133     1.0  0.27473  0.84642  0.50639  1.0000
  H   H1135     1.0  0.28929  0.83459  0.76585  1.0000
  H   H1136     1.0  0.26586  0.92397  0.70183  1.0000
  Fe  Fe182     1.0  0.25614  0.87292  0.77596  1.0000
  H   H1137     1.0  0.24859  0.89396  0.68638  1.0000
  N   N95       1.0  0.26694  0.82945  0.76019  1.0000
  H   H1138     1.0  0.28063  0.82278  0.82123  1.0000
  H   H1139     1.0  0.30603  0.95288  0.78362  1.0000
  S   S371      1.0  0.25500  0.90052  0.77701  1.0000
  C   C1134     1.0  0.28159  0.90640  0.51780  1.0000
  H   H1140     1.0  0.32031  0.93002  0.76670  1.0000
  H   H1141     1.0  0.26731  0.79697  0.96957  1.0000
  C   C1135     1.0  0.26104  0.70402  0.49913  1.0000
  H   H1142     1.0  0.31302  0.96836  0.72521  1.0000
  C   C1136     1.0  0.26556  0.78937  0.51645  1.0000
  C   C1137     1.0  0.24641  0.69464  0.48164  1.0000
  S   S372      1.0  0.27294  0.65667  0.61482  1.0000
  S   S373      1.0  0.24620  0.75157  0.87723  1.0000
  C   C1138     1.0  0.28472  0.69946  0.92423  1.0000
  H   H1143     1.0  0.27441  0.70578  0.90104  1.0000
  C   C1139     1.0  0.25930  0.79198  0.53343  1.0000
  C   C1140     1.0  0.29542  0.78040  0.91863  1.0000
  C   C1141     1.0  0.25777  0.83737  0.81115  1.0000
  H   H1144     1.0  0.27106  0.96217  0.76941  1.0000
  N   N96       1.0  0.24934  0.91986  0.68694  1.0000
  Fe  Fe183     1.0  0.26384  0.75322  0.89413  1.0000
  H   H1145     1.0  0.25498  0.92651  0.94592  1.0000
  C   C1142     1.0  0.27957  0.92448  0.80288  1.0000
  C   C1143     1.0  0.26502  0.79646  0.95680  1.0000
  H   H1146     1.0  0.25698  0.86859  0.51473  1.0000
  H   H1147     1.0  0.29696  0.78410  0.96455  1.0000
  H   H1148     1.0  0.32282  0.76860  0.91638  1.0000
  C   C1144     1.0  0.27684  0.95332  0.80839  1.0000
  C   C1145     1.0  0.27157  0.70152  0.91503  1.0000
  H   H1149     1.0  0.31331  0.84049  0.51719  1.0000
  S   S374      1.0  0.27466  0.73966  0.56544  1.0000
  H   H1150     1.0  0.29371  0.81785  0.75342  1.0000
  H   H1151     1.0  0.28216  0.96537  0.80282  1.0000
  C   C1146     1.0  0.26467  0.69109  0.95078  1.0000
  H   H1152     1.0  0.25986  0.80990  0.95032  1.0000
  C   C1147     1.0  0.26060  0.82063  0.77631  1.0000
  C   C1148     1.0  0.25777  0.81229  0.83519  1.0000
  C   C1149     1.0  0.26110  0.77607  0.51150  1.0000
  H   H1153     1.0  0.24775  0.84334  0.89891  1.0000
  H   H1154     1.0  0.26184  0.68693  0.96475  1.0000
  H   H1155     1.0  0.25161  0.77498  0.57117  1.0000
  H   H1156     1.0  0.29107  0.91513  0.51196  1.0000
  H   H1157     1.0  0.24584  0.81234  0.90484  1.0000
  Fe  Fe184     1.0  0.24705  0.97971  0.60844  1.0000
  C   C1150     1.0  0.25073  0.94831  0.56408  1.0000
  C   C1151     1.0  0.30136  0.88399  0.50306  1.0000
  C   C1152     1.0  0.26027  0.98274  0.71763  1.0000
  H   H1158     1.0  0.27335  0.72586  0.48615  1.0000
  H   H1159     1.0  0.26632  0.77353  0.49854  1.0000
  H   H1160     1.0  0.29280  0.84834  0.54374  1.0000
  S   S375      1.0  0.26075  0.89719  0.48605  1.0000
  C   C1153     1.0  0.25125  0.97876  0.70709  1.0000
  C   C1154     1.0  0.29192  0.98065  0.67978  1.0000
  H   H1161     1.0  0.24938  0.96561  0.70897  1.0000
  H   H1162     1.0  0.24731  0.75491  0.52000  1.0000
  C   C1155     1.0  0.26562  0.71711  0.48508  1.0000
  H   H1163     1.0  0.24801  0.68229  0.50818  1.0000
  C   C1156     1.0  0.25975  0.65122  0.56549  1.0000
  Fe  Fe185     1.0  0.70427  0.01542  0.14304  1.0000
  S   S376      1.0  0.70398  0.01878  0.11499  1.0000
  S   S377      1.0  0.68403  0.03043  0.16089  1.0000
  H   H1164     1.0  0.67868  0.99398  0.19033  1.0000
  C   C1157     1.0  0.69602  0.01749  0.21614  1.0000
  C   C1158     1.0  0.73295  0.27031  0.11406  1.0000
  H   H1165     1.0  0.72656  0.20240  0.43984  1.0000
  Fe  Fe186     1.0  0.73268  0.98770  0.33883  1.0000
  C   C1159     1.0  0.67969  0.18775  0.47023  1.0000
  Fe  Fe187     1.0  0.71399  0.15147  0.01635  1.0000
  S   S378      1.0  0.70086  0.13585  0.00627  1.0000
  S   S379      1.0  0.69812  0.17085  0.03234  1.0000
  H   H1166     1.0  0.66425  0.20755  0.03115  1.0000
  S   S380      1.0  0.74044  0.00944  0.34584  1.0000
  H   H1167     1.0  0.67447  0.99410  0.12540  1.0000
  C   C1160     1.0  0.72538  0.07597  0.04372  1.0000
  S   S381      1.0  0.74007  0.12195  0.98451  1.0000
  S   S382      1.0  0.62322  0.23870  0.02046  1.0000
  H   H1168     1.0  0.68080  0.25775  0.47092  1.0000
  Fe  Fe188     1.0  0.72520  0.02646  0.32607  1.0000
  S   S383      1.0  0.69960  0.03054  0.34459  1.0000
  H   H1169     1.0  0.72188  0.24330  0.44606  1.0000
  Fe  Fe189     1.0  0.71436  0.01230  0.36426  1.0000
  S   S384      1.0  0.70825  0.01922  0.39103  1.0000
  Fe  Fe190     1.0  0.69560  0.00686  0.33780  1.0000
  S   S385      1.0  0.66968  0.00523  0.33281  1.0000
  S   S386      1.0  0.71998  0.00471  0.31731  1.0000
  Fe  Fe191     1.0  0.62527  0.00530  0.24882  1.0000
  H   H1170     1.0  0.72717  0.25741  0.45665  1.0000
  S   S387      1.0  0.62159  0.03434  0.24531  1.0000
  C   C1161     1.0  0.63802  0.07026  0.27354  1.0000
  H   H1171     1.0  0.70458  0.11903  0.09895  1.0000
  C   C1162     1.0  0.67826  0.25280  0.15198  1.0000
  C   C1163     1.0  0.70692  0.08473  0.38864  1.0000
  H   H1172     1.0  0.72589  0.05527  0.23892  1.0000
  S   S388      1.0  0.64419  0.22281  0.46040  1.0000
  Fe  Fe192     1.0  0.71380  0.21170  0.09400  1.0000
  S   S389      1.0  0.68536  0.21153  0.09677  1.0000
  S   S390      1.0  0.73373  0.19021  0.08350  1.0000
  Fe  Fe193     1.0  0.70665  0.24587  0.10541  1.0000
  S   S391      1.0  0.67775  0.24838  0.10892  1.0000
  H   H1173     1.0  0.73384  0.30448  0.07725  1.0000
  Fe  Fe194     1.0  0.68266  0.22018  0.12151  1.0000
  S   S392      1.0  0.66401  0.21174  0.14601  1.0000
  Fe  Fe195     1.0  0.68347  0.23959  0.08382  1.0000
  S   S393      1.0  0.67155  0.25612  0.06127  1.0000
  S   S394      1.0  0.71122  0.21824  0.11995  1.0000
  S   S395      1.0  0.71219  0.23910  0.07932  1.0000
  H   H1174     1.0  0.63414  0.08226  0.26467  1.0000
  H   H1175     1.0  0.61821  0.02482  0.30650  1.0000
  Fe  Fe196     1.0  0.71315  0.09892  0.18376  1.0000
  S   S396      1.0  0.68630  0.10558  0.19984  1.0000
  S   S397      1.0  0.71745  0.09388  0.15704  1.0000
  H   H1176     1.0  0.68529  0.12473  0.15683  1.0000
  S   S398      1.0  0.70645  0.10603  0.23013  1.0000
  C   C1164     1.0  0.69322  0.28774  0.06483  1.0000
  Fe  Fe197     1.0  0.69727  0.08626  0.22156  1.0000
  S   S399      1.0  0.68842  0.06368  0.24174  1.0000
  Fe  Fe198     1.0  0.69822  0.12461  0.20662  1.0000
  S   S400      1.0  0.68332  0.15156  0.20871  1.0000
  S   S401      1.0  0.72317  0.07813  0.20469  1.0000
  S   S402      1.0  0.72442  0.11919  0.18909  1.0000
  C   C1165     1.0  0.68020  0.18196  0.98587  1.0000
  H   H1177     1.0  0.66520  0.14042  0.46331  1.0000
  Fe  Fe199     1.0  0.70740  0.28453  0.40942  1.0000
  S   S403      1.0  0.70139  0.27874  0.38618  1.0000
  S   S404      1.0  0.69601  0.27563  0.43784  1.0000
  H   H1178     1.0  0.66860  0.24670  0.14921  1.0000
  H   H1179     1.0  0.68871  0.06317  0.36940  1.0000
  C   C1166     1.0  0.74491  0.25515  0.11898  1.0000
  H   H1180     1.0  0.74485  0.06318  0.35741  1.0000
  N   N97       1.0  0.63683  0.30276  0.03346  1.0000
  H   H1181     1.0  0.74301  0.23106  0.42408  1.0000
  N   N98       1.0  0.70195  0.08399  0.35626  1.0000
  H   H1182     1.0  0.72755  0.08590  0.25734  1.0000
  C   C1167     1.0  0.69630  0.17867  0.47272  1.0000
  S   S405      1.0  0.62032  0.98593  0.27375  1.0000
  C   C1168     1.0  0.66869  0.29966  0.99742  1.0000
  Fe  Fe200     1.0  0.73054  0.27185  0.37749  1.0000
  H   H1183     1.0  0.66704  0.99333  0.16355  1.0000
  C   C1169     1.0  0.66999  0.19387  0.16229  1.0000
  C   C1170     1.0  0.65788  0.19143  0.17788  1.0000
  C   C1171     1.0  0.66214  0.17821  0.19178  1.0000
  C   C1172     1.0  0.67839  0.16690  0.19016  1.0000
  C   C1173     1.0  0.69059  0.16904  0.17445  1.0000
  C   C1174     1.0  0.68646  0.18271  0.16054  1.0000
  H   H1184     1.0  0.64519  0.20004  0.17937  1.0000
  H   H1185     1.0  0.65275  0.17676  0.20391  1.0000
  H   H1186     1.0  0.70337  0.16060  0.17330  1.0000
  H   H1187     1.0  0.69605  0.18483  0.14868  1.0000
  H   H1188     1.0  0.64420  0.20374  0.02788  1.0000
  H   H1189     1.0  0.65255  0.02678  0.30350  1.0000
  C   C1175     1.0  0.69491  0.15673  0.12298  1.0000
  S   S406      1.0  0.73634  0.27545  0.40163  1.0000
  H   H1190     1.0  0.64904  0.16005  0.46213  1.0000
  H   H1191     1.0  0.72203  0.03726  0.07191  1.0000
  H   H1192     1.0  0.65019  0.01113  0.19717  1.0000
  H   H1193     1.0  0.71593  0.10473  0.34651  1.0000
  C   C1176     1.0  0.71269  0.03656  0.41430  1.0000
  H   H1194     1.0  0.70253  0.13554  0.15592  1.0000
  H   H1195     1.0  0.70117  0.03215  0.42250  1.0000
  H   H1196     1.0  0.67036  0.04924  0.29576  1.0000
  C   C1177     1.0  0.70917  0.24262  0.15406  1.0000
  C   C1178     1.0  0.65329  0.06741  0.27988  1.0000
  C   C1179     1.0  0.65884  0.23729  0.45412  1.0000
  C   C1180     1.0  0.66507  0.24346  0.43646  1.0000
  C   C1181     1.0  0.67665  0.25509  0.43122  1.0000
  C   C1182     1.0  0.68216  0.26049  0.44364  1.0000
  C   C1183     1.0  0.67632  0.25395  0.46124  1.0000
  C   C1184     1.0  0.66451  0.24264  0.46646  1.0000
  H   H1197     1.0  0.66067  0.23950  0.42681  1.0000
  H   H1198     1.0  0.68097  0.26013  0.41761  1.0000
  C   C1185     1.0  0.71942  0.21445  0.17075  1.0000
  H   H1199     1.0  0.70475  0.18473  0.47674  1.0000
  C   C1186     1.0  0.64088  0.04192  0.24295  1.0000
  C   C1187     1.0  0.64243  0.05863  0.23340  1.0000
  C   C1188     1.0  0.65733  0.06524  0.23227  1.0000
  C   C1189     1.0  0.67047  0.05534  0.24115  1.0000
  C   C1190     1.0  0.66892  0.03863  0.25066  1.0000
  C   C1191     1.0  0.65432  0.03182  0.25133  1.0000
  H   H1200     1.0  0.63204  0.06651  0.22693  1.0000
  H   H1201     1.0  0.65838  0.07819  0.22499  1.0000
  H   H1202     1.0  0.67897  0.03095  0.25768  1.0000
  H   H1203     1.0  0.65320  0.01901  0.25889  1.0000
  H   H1204     1.0  0.64182  0.99662  0.32272  1.0000
  S   S407      1.0  0.72038  0.15097  0.42297  1.0000
  C   C1192     1.0  0.69751  0.07316  0.38700  1.0000
  C   C1193     1.0  0.68894  0.22443  0.16909  1.0000
  C   C1194     1.0  0.72289  0.23010  0.16010  1.0000
  H   H1205     1.0  0.61182  0.28167  0.02162  1.0000
  C   C1195     1.0  0.73199  0.24476  0.45243  1.0000
  H   H1206     1.0  0.66461  0.01284  0.14698  1.0000
  H   H1207     1.0  0.72712  0.29820  0.11016  1.0000
  C   C1196     1.0  0.73645  0.28645  0.11359  1.0000
  C   C1197     1.0  0.71941  0.03167  0.39810  1.0000
  C   C1198     1.0  0.68556  0.98643  0.30711  1.0000
  H   H1208     1.0  0.66092  0.18591  0.03517  1.0000
  H   H1209     1.0  0.67164  0.17058  0.01255  1.0000
  Fe  Fe201     1.0  0.73673  0.08444  0.43555  1.0000
  N   N99       1.0  0.65189  0.99321  0.14578  1.0000
  S   S408      1.0  0.71154  0.98635  0.14834  1.0000
  H   H1210     1.0  0.66135  0.07717  0.27592  1.0000
  H   H1211     1.0  0.71509  0.15476  0.47134  1.0000
  C   C1199     1.0  0.63799  0.24191  0.03154  1.0000
  C   C1200     1.0  0.65049  0.25202  0.02302  1.0000
  C   C1201     1.0  0.66160  0.25512  0.03217  1.0000
  C   C1202     1.0  0.66026  0.24831  0.04992  1.0000
  C   C1203     1.0  0.64825  0.23761  0.05841  1.0000
  C   C1204     1.0  0.63712  0.23441  0.04920  1.0000
  H   H1212     1.0  0.63282  0.01576  0.28868  1.0000
  H   H1213     1.0  0.64699  0.23244  0.07219  1.0000
  H   H1214     1.0  0.62751  0.22650  0.05589  1.0000
  C   C1205     1.0  0.66893  0.17966  0.46514  1.0000
  S   S409      1.0  0.70830  0.31254  0.39738  1.0000
  C   C1206     1.0  0.70977  0.17682  0.04470  1.0000
  C   C1207     1.0  0.70354  0.19274  0.04991  1.0000
  C   C1208     1.0  0.71175  0.19730  0.06086  1.0000
  C   C1209     1.0  0.72577  0.18570  0.06725  1.0000
  C   C1210     1.0  0.73249  0.17002  0.06154  1.0000
  C   C1211     1.0  0.72457  0.16565  0.05012  1.0000
  H   H1215     1.0  0.69229  0.20156  0.04554  1.0000
  H   H1216     1.0  0.70705  0.20980  0.06444  1.0000
  C   C1212     1.0  0.65844  0.05172  0.29085  1.0000
  H   H1217     1.0  0.72945  0.15335  0.04615  1.0000
  C   C1213     1.0  0.69150  0.04937  0.15926  1.0000
  C   C1214     1.0  0.68838  0.05671  0.17382  1.0000
  C   C1215     1.0  0.69629  0.07044  0.17315  1.0000
  C   C1216     1.0  0.70678  0.07731  0.15772  1.0000
  C   C1217     1.0  0.70917  0.07058  0.14289  1.0000
  C   C1218     1.0  0.70170  0.05649  0.14372  1.0000
  H   H1218     1.0  0.68024  0.05155  0.18572  1.0000
  H   H1219     1.0  0.69433  0.07555  0.18465  1.0000
  H   H1220     1.0  0.71707  0.07598  0.13083  1.0000
  H   H1221     1.0  0.70387  0.05113  0.13229  1.0000
  H   H1222     1.0  0.69786  0.98810  0.30869  1.0000
  H   H1223     1.0  0.64674  0.00900  0.16465  1.0000
  H   H1224     1.0  0.62987  0.27794  0.04325  1.0000
  C   C1219     1.0  0.66308  0.15455  0.45758  1.0000
  N   N100      1.0  0.72424  0.21129  0.39371  1.0000
  S   S410      1.0  0.73339  0.29843  0.36255  1.0000
  S   S411      1.0  0.71296  0.26988  0.10933  1.0000
  S   S412      1.0  0.74223  0.99200  0.11277  1.0000
  H   H1225     1.0  0.61322  0.03096  0.28506  1.0000
  C   C1220     1.0  0.72379  0.17983  0.43223  1.0000
  C   C1221     1.0  0.72047  0.04751  0.41977  1.0000
  H   H1226     1.0  0.73796  0.05229  0.17734  1.0000
  C   C1222     1.0  0.71418  0.29491  0.03859  1.0000
  C   C1223     1.0  0.63665  0.98720  0.15234  1.0000
  C   C1224     1.0  0.74166  0.20797  0.39416  1.0000
  C   C1225     1.0  0.69904  0.16011  0.10484  1.0000
  C   C1226     1.0  0.70240  0.14653  0.09613  1.0000
  H   H1227     1.0  0.69973  0.17317  0.09757  1.0000
  H   H1228     1.0  0.70549  0.14905  0.08207  1.0000
  Fe  Fe202     1.0  0.72810  0.12317  0.43564  1.0000
  C   C1227     1.0  0.71361  0.09609  0.37396  1.0000
  H   H1229     1.0  0.71194  0.25480  0.14591  1.0000
  C   C1228     1.0  0.67443  0.31513  0.99496  1.0000
  H   H1230     1.0  0.67152  0.26080  0.16185  1.0000
  H   H1231     1.0  0.64486  0.29073  0.05755  1.0000
  S   S413      1.0  0.74442  0.24769  0.36744  1.0000
  C   C1229     1.0  0.67928  0.02348  0.21236  1.0000
  H   H1232     1.0  0.69236  0.30347  0.46351  1.0000
  C   C1230     1.0  0.69094  0.15414  0.46470  1.0000
  C   C1231     1.0  0.66223  0.98959  0.13049  1.0000
  C   C1232     1.0  0.72127  0.30338  0.04735  1.0000
  H   H1233     1.0  0.67515  0.20096  0.47222  1.0000
  H   H1234     1.0  0.72136  0.10482  0.37499  1.0000
  S   S414      1.0  0.60696  0.27855  0.98410  1.0000
  H   H1235     1.0  0.70928  0.08468  0.40122  1.0000
  N   N101      1.0  0.67297  0.01475  0.20373  1.0000
  C   C1233     1.0  0.65850  0.29788  0.98658  1.0000
  H   H1236     1.0  0.70156  0.07010  0.33747  1.0000
  S   S415      1.0  0.73597  0.12975  0.02346  1.0000
  H   H1237     1.0  0.66596  0.15633  0.44323  1.0000
  H   H1238     1.0  0.74342  0.16104  0.06636  1.0000
  H   H1239     1.0  0.66704  0.29129  0.46683  1.0000
  C   C1234     1.0  0.73189  0.16317  0.42930  1.0000
  H   H1240     1.0  0.65133  0.25789  0.00951  1.0000
  C   C1235     1.0  0.69542  0.07273  0.37059  1.0000
  H   H1241     1.0  0.71496  0.05138  0.43210  1.0000
  H   H1242     1.0  0.69940  0.19952  0.18372  1.0000
  C   C1236     1.0  0.73930  0.05712  0.33531  1.0000
  C   C1237     1.0  0.66990  0.99355  0.31718  1.0000
  N   N102      1.0  0.69254  0.23952  0.15829  1.0000
  C   C1238     1.0  0.67251  0.18263  0.00319  1.0000
  Fe  Fe203     1.0  0.71388  0.98982  0.11971  1.0000
  C   C1239     1.0  0.71719  0.19923  0.39017  1.0000
  H   H1243     1.0  0.71038  0.18503  0.43079  1.0000
  C   C1240     1.0  0.62836  0.29000  0.03379  1.0000
  Fe  Fe204     1.0  0.71345  0.09847  0.46688  1.0000
  H   H1244     1.0  0.67106  0.26316  0.02558  1.0000
  H   H1245     1.0  0.73909  0.09439  0.04642  1.0000
  H   H1246     1.0  0.65513  0.03257  0.18927  1.0000
  C   C1241     1.0  0.70045  0.29656  0.07308  1.0000
  C   C1242     1.0  0.73515  0.08208  0.05203  1.0000
  H   H1247     1.0  0.72993  0.20459  0.17551  1.0000
  H   H1248     1.0  0.72185  0.17345  0.38503  1.0000
  S   S416      1.0  0.71136  0.10393  0.43891  1.0000
  N   N103      1.0  0.71419  0.30438  0.06427  1.0000
  C   C1243     1.0  0.74063  0.07182  0.06719  1.0000
  H   H1249     1.0  0.72395  0.31669  0.32805  1.0000
  H   H1250     1.0  0.67138  0.03529  0.21616  1.0000
  H   H1251     1.0  0.70078  0.02446  0.22318  1.0000
  H   H1252     1.0  0.70341  0.20185  0.38978  1.0000
  H   H1253     1.0  0.73992  0.03339  0.37544  1.0000
  C   C1244     1.0  0.73444  0.03725  0.38778  1.0000
  S   S417      1.0  0.72831  0.11914  0.46363  1.0000
  H   H1254     1.0  0.69545  0.14109  0.46232  1.0000
  H   H1255     1.0  0.69223  0.06426  0.39830  1.0000
  C   C1245     1.0  0.70207  0.16182  0.46977  1.0000
  S   S418      1.0  0.70793  0.98864  0.35921  1.0000
  N   N104      1.0  0.63367  0.04167  0.28846  1.0000
  C   C1246     1.0  0.71302  0.22798  0.39657  1.0000
  Fe  Fe205     1.0  0.73174  0.09899  0.21201  1.0000
  H   H1256     1.0  0.72352  0.07039  0.27733  1.0000
  C   C1247     1.0  0.72043  0.05990  0.05117  1.0000
  H   H1257     1.0  0.68030  0.14760  0.15611  1.0000
  H   H1258     1.0  0.68323  0.26142  0.13969  1.0000
  H   H1259     1.0  0.65607  0.18683  0.46310  1.0000
  C   C1248     1.0  0.72560  0.04979  0.06652  1.0000
  Fe  Fe206     1.0  0.72422  0.11464  0.01139  1.0000
  C   C1249     1.0  0.61805  0.29208  0.02162  1.0000
  S   S419      1.0  0.72883  0.16186  0.99026  1.0000
  C   C1250     1.0  0.71062  0.09583  0.35784  1.0000
  H   H1260     1.0  0.64596  0.02543  0.21185  1.0000
  C   C1251     1.0  0.64899  0.29961  0.04514  1.0000
  S   S420      1.0  0.72097  0.08691  0.02305  1.0000
  H   H1261     1.0  0.71249  0.07171  0.26038  1.0000
  H   H1262     1.0  0.67178  0.28923  0.00801  1.0000
  C   C1252     1.0  0.73603  0.05556  0.07439  1.0000
  C   C1253     1.0  0.62828  0.05718  0.27801  1.0000
  C   C1254     1.0  0.69900  0.08369  0.33929  1.0000
  C   C1255     1.0  0.65400  0.99131  0.31484  1.0000
  H   H1263     1.0  0.68243  0.28143  0.07194  1.0000
  S   S421      1.0  0.73161  0.01938  0.13855  1.0000
  C   C1256     1.0  0.70184  0.12972  0.10560  1.0000
  C   C1257     1.0  0.72758  0.18324  0.38727  1.0000
  N   N105      1.0  0.73975  0.05997  0.25585  1.0000
  C   C1258     1.0  0.68334  0.00044  0.19787  1.0000
  H   H1264     1.0  0.73923  0.00061  0.17501  1.0000
  H   H1265     1.0  0.69227  0.16739  0.12962  1.0000
  C   C1259     1.0  0.64836  0.03897  0.29510  1.0000
  C   C1260     1.0  0.65855  0.19886  0.02651  1.0000
  S   S422      1.0  0.73395  0.04904  0.30669  1.0000
  C   C1261     1.0  0.69038  0.13690  0.15117  1.0000
  H   H1266     1.0  0.61683  0.05925  0.27244  1.0000
  C   C1262     1.0  0.69779  0.12677  0.12372  1.0000
  N   N106      1.0  0.67447  0.16291  0.46288  1.0000
  C   C1263     1.0  0.66779  0.21337  0.99655  1.0000
  N   N107      1.0  0.69417  0.14024  0.13217  1.0000
  H   H1267     1.0  0.69756  0.11363  0.13099  1.0000
  H   H1268     1.0  0.70077  0.22601  0.40612  1.0000
  S   S423      1.0  0.73737  0.07713  0.46417  1.0000
  C   C1264     1.0  0.62393  0.02767  0.29243  1.0000
  Fe  Fe207     1.0  0.62400  0.25275  0.99263  1.0000
  H   H1269     1.0  0.68530  0.08998  0.33822  1.0000
  H   H1270     1.0  0.70799  0.09050  0.32854  1.0000
  H   H1271     1.0  0.69509  0.29697  0.08662  1.0000
  C   C1265     1.0  0.65521  0.02128  0.20028  1.0000
  Fe  Fe208     1.0  0.70477  0.30604  0.37336  1.0000
  H   H1272     1.0  0.71288  0.05506  0.04482  1.0000
  C   C1266     1.0  0.70021  0.99410  0.20131  1.0000
  Fe  Fe209     1.0  0.73212  0.02075  0.11051  1.0000
  C   C1267     1.0  0.68663  0.30850  0.47568  1.0000
  Fe  Fe210     1.0  0.73670  0.30278  0.38744  1.0000
  C   C1268     1.0  0.61630  0.30742  0.00918  1.0000
  C   C1269     1.0  0.70646  0.00257  0.21072  1.0000
  C   C1270     1.0  0.70233  0.21160  0.17537  1.0000
  H   H1273     1.0  0.71964  0.23562  0.40156  1.0000
  C   C1271     1.0  0.72507  0.07260  0.26308  1.0000
  C   C1272     1.0  0.65785  0.00255  0.15572  1.0000
  C   C1273     1.0  0.73292  0.18961  0.43738  1.0000
  C   C1274     1.0  0.73541  0.05325  0.40930  1.0000
  H   H1274     1.0  0.65357  0.28616  0.98907  1.0000
  N   N108      1.0  0.66663  0.19821  0.00836  1.0000
  Fe  Fe211     1.0  0.73913  0.99069  0.14127  1.0000
  H   H1275     1.0  0.71944  0.29468  0.02499  1.0000
  C   C1275     1.0  0.74297  0.07853  0.30868  1.0000
  H   H1276     1.0  0.71942  0.99767  0.21367  1.0000
  S   S424      1.0  0.65267  0.99182  0.24015  1.0000
  Fe  Fe212     1.0  0.71763  0.14439  0.98043  1.0000
  H   H1277     1.0  0.69451  0.28032  0.04081  1.0000
  S   S425      1.0  0.61335  0.99269  0.23418  1.0000
  H   H1278     1.0  0.64989  0.31189  0.04820  1.0000
  H   H1279     1.0  0.68504  0.16957  0.98188  1.0000
  H   H1280     1.0  0.66281  0.22570  0.00065  1.0000
  H   H1281     1.0  0.73314  0.23402  0.46386  1.0000
  H   H1282     1.0  0.70973  0.23591  0.38409  1.0000
  C   C1276     1.0  0.70008  0.28700  0.04744  1.0000
  H   H1283     1.0  0.73233  0.30933  0.04045  1.0000
  H   H1284     1.0  0.73578  0.04500  0.34246  1.0000
  H   H1285     1.0  0.67566  0.22217  0.17279  1.0000
  H   H1286     1.0  0.73984  0.30355  0.42126  1.0000
  H   H1287     1.0  0.60880  0.30906  0.99930  1.0000
  H   H1288     1.0  0.62871  0.98958  0.16475  1.0000
  H   H1289     1.0  0.74226  0.24263  0.11940  1.0000
  H   H1290     1.0  0.74253  0.08288  0.29506  1.0000
  C   C1277     1.0  0.72195  0.31323  0.07317  1.0000
  H   H1291     1.0  0.66224  0.29354  0.03886  1.0000
  C   C1278     1.0  0.73825  0.05269  0.24299  1.0000
  H   H1292     1.0  0.71272  0.31702  0.08487  1.0000
  C   C1279     1.0  0.73914  0.06242  0.31761  1.0000
  H   H1293     1.0  0.73610  0.23258  0.15653  1.0000
  C   C1280     1.0  0.74248  0.04776  0.39345  1.0000
  C   C1281     1.0  0.74420  0.06750  0.34388  1.0000
  H   H1294     1.0  0.74482  0.01128  0.19879  1.0000
  H   H1295     1.0  0.68605  0.16466  0.90323  1.0000
  Fe  Fe213     1.0  0.67014  0.27740  0.61906  1.0000
  S   S426      1.0  0.68714  0.25145  0.61617  1.0000
  S   S427      1.0  0.71078  0.15737  0.95413  1.0000
  Fe  Fe214     1.0  0.67157  0.28907  0.58033  1.0000
  S   S428      1.0  0.68805  0.26404  0.57430  1.0000
  H   H1296     1.0  0.52387  0.24964  0.95757  1.0000
  Fe  Fe215     1.0  0.67074  0.25171  0.59774  1.0000
  S   S429      1.0  0.66228  0.22733  0.59848  1.0000
  Fe  Fe216     1.0  0.70308  0.26606  0.59314  1.0000
  S   S430      1.0  0.65240  0.27659  0.60216  1.0000
  S   S431      1.0  0.68778  0.29220  0.59767  1.0000
  Fe  Fe217     1.0  0.53471  0.18205  0.78408  1.0000
  S   S432      1.0  0.52732  0.16075  0.80605  1.0000
  S   S433      1.0  0.52185  0.20930  0.78633  1.0000
  Fe  Fe218     1.0  0.56141  0.15746  0.76429  1.0000
  S   S434      1.0  0.55640  0.13386  0.78476  1.0000
  S   S435      1.0  0.58213  0.15721  0.74011  1.0000
  Fe  Fe219     1.0  0.52793  0.14661  0.78532  1.0000
  C   C1282     1.0  0.53262  0.16437  0.56683  1.0000
  Fe  Fe220     1.0  0.55623  0.15041  0.80344  1.0000
  S   S436      1.0  0.56956  0.14247  0.82666  1.0000
  S   S437      1.0  0.53321  0.16904  0.76354  1.0000
  S   S438      1.0  0.56340  0.17272  0.78282  1.0000
  Fe  Fe221     1.0  0.54404  0.26344  0.70230  1.0000
  S   S439      1.0  0.54047  0.29085  0.70532  1.0000
  S   S440      1.0  0.52406  0.25381  0.69414  1.0000
  Fe  Fe222     1.0  0.57890  0.25213  0.71399  1.0000
  S   S441      1.0  0.57835  0.27844  0.71823  1.0000
  S   S442      1.0  0.60276  0.23072  0.71443  1.0000
  Fe  Fe223     1.0  0.54991  0.27862  0.73022  1.0000
  S   S443      1.0  0.53826  0.28722  0.75571  1.0000
  Fe  Fe224     1.0  0.56900  0.28826  0.69319  1.0000
  H   H1297     1.0  0.73241  0.19847  0.86254  1.0000
  S   S444      1.0  0.55128  0.25129  0.72817  1.0000
  S   S445      1.0  0.57173  0.26199  0.68798  1.0000
  Fe  Fe225     1.0  0.63963  0.20428  0.87408  1.0000
  S   S446      1.0  0.65307  0.20324  0.84676  1.0000
  S   S447      1.0  0.62205  0.22768  0.88331  1.0000
  Fe  Fe226     1.0  0.65477  0.16662  0.88794  1.0000
  S   S448      1.0  0.66905  0.16206  0.86128  1.0000
  S   S449      1.0  0.65496  0.14949  0.91471  1.0000
  Fe  Fe227     1.0  0.67643  0.18787  0.85796  1.0000
  S   S450      1.0  0.70405  0.19284  0.85001  1.0000
  Fe  Fe228     1.0  0.64421  0.17777  0.85220  1.0000
  S   S451      1.0  0.63106  0.17693  0.83059  1.0000
  S   S452      1.0  0.66357  0.19123  0.88484  1.0000
  S   S453      1.0  0.62943  0.17992  0.87915  1.0000
  C   C1283     1.0  0.66486  0.29041  0.48074  1.0000
  H   H1298     1.0  0.51052  0.15588  0.60824  1.0000
  C   C1284     1.0  0.55943  0.14336  0.58265  1.0000
  H   H1299     1.0  0.56986  0.13533  0.58904  1.0000
  C   C1285     1.0  0.67529  0.27329  0.90784  1.0000
  Fe  Fe229     1.0  0.62784  0.21980  0.52487  1.0000
  S   S454      1.0  0.61086  0.22232  0.50613  1.0000
  S   S455      1.0  0.62331  0.24285  0.53678  1.0000
  Fe  Fe230     1.0  0.64868  0.18445  0.51850  1.0000
  S   S456      1.0  0.63303  0.18426  0.49939  1.0000
  S   S457      1.0  0.67328  0.16490  0.52284  1.0000
  H   H1300     1.0  0.66544  0.18891  0.94595  1.0000
  Fe  Fe231     1.0  0.60983  0.19460  0.51877  1.0000
  S   S458      1.0  0.58450  0.18484  0.52752  1.0000
  S   S459      1.0  0.65295  0.21148  0.50711  1.0000
  S   S460      1.0  0.62533  0.19272  0.53870  1.0000
  H   H1301     1.0  0.65335  0.18577  0.92227  1.0000
  C   C1286     1.0  0.54943  0.22052  0.82349  1.0000
  C   C1287     1.0  0.61992  0.19176  0.92014  1.0000
  H   H1302     1.0  0.55596  0.18599  0.86359  1.0000
  C   C1288     1.0  0.58586  0.21945  0.59309  1.0000
  S   S461      1.0  0.68961  0.09937  0.48835  1.0000
  H   H1303     1.0  0.52666  0.19355  0.72958  1.0000
  Fe  Fe232     1.0  0.63592  0.21204  0.48907  1.0000
  H   H1304     1.0  0.56625  0.21865  0.61670  1.0000
  Fe  Fe233     1.0  0.53800  0.18880  0.64308  1.0000
  S   S462      1.0  0.51854  0.21199  0.63372  1.0000
  S   S463      1.0  0.55996  0.19556  0.65054  1.0000
  H   H1305     1.0  0.70692  0.16818  0.91901  1.0000
  Fe  Fe234     1.0  0.51897  0.19737  0.61360  1.0000
  S   S464      1.0  0.52078  0.20980  0.58527  1.0000
  C   C1289     1.0  0.73267  0.20828  0.60409  1.0000
  S   S465      1.0  0.54005  0.17527  0.62165  1.0000
  C   C1290     1.0  0.58877  0.22349  0.57496  1.0000
  C   C1291     1.0  0.55482  0.22863  0.59399  1.0000
  S   S466      1.0  0.62689  0.27512  0.94442  1.0000
  C   C1292     1.0  0.62201  0.20110  0.96219  1.0000
  H   H1306     1.0  0.60678  0.20009  0.91943  1.0000
  N   N109      1.0  0.57502  0.22973  0.56660  1.0000
  C   C1293     1.0  0.56874  0.22193  0.60264  1.0000
  H   H1307     1.0  0.52796  0.18079  0.88210  1.0000
  C   C1294     1.0  0.56193  0.25443  0.91854  1.0000
  C   C1295     1.0  0.56833  0.19408  0.54351  1.0000
  C   C1296     1.0  0.55244  0.20364  0.53920  1.0000
  C   C1297     1.0  0.53821  0.20865  0.55213  1.0000
  C   C1298     1.0  0.53947  0.20371  0.56960  1.0000
  C   C1299     1.0  0.55545  0.19433  0.57400  1.0000
  C   C1300     1.0  0.56993  0.18970  0.56094  1.0000
  H   H1308     1.0  0.55100  0.20684  0.52583  1.0000
  H   H1309     1.0  0.52597  0.21597  0.54859  1.0000
  H   H1310     1.0  0.55671  0.19069  0.58739  1.0000
  H   H1311     1.0  0.58207  0.18203  0.56442  1.0000
  H   H1312     1.0  0.67812  0.30401  0.51008  1.0000
  C   C1301     1.0  0.51894  0.26110  0.79177  1.0000
  C   C1302     1.0  0.66415  0.14157  0.50897  1.0000
  C   C1303     1.0  0.67760  0.14688  0.51306  1.0000
  C   C1304     1.0  0.69479  0.13752  0.50956  1.0000
  C   C1305     1.0  0.67744  0.31707  0.54014  1.0000
  H   H1313     1.0  0.71869  0.07715  0.50656  1.0000
  H   H1314     1.0  0.65079  0.14845  0.51202  1.0000
  H   H1315     1.0  0.70523  0.14145  0.51284  1.0000
  Fe  Fe235     1.0  0.63176  0.28450  0.96602  1.0000
  H   H1316     1.0  0.61941  0.17789  0.92179  1.0000
  C   C1306     1.0  0.50123  0.12371  0.69747  1.0000
  C   C1307     1.0  0.64004  0.19741  0.96134  1.0000
  C   C1308     1.0  0.63256  0.23248  0.89739  1.0000
  C   C1309     1.0  0.65081  0.22972  0.89394  1.0000
  C   C1310     1.0  0.65967  0.23020  0.90651  1.0000
  C   C1311     1.0  0.65018  0.23406  0.92240  1.0000
  C   C1312     1.0  0.63184  0.23789  0.92548  1.0000
  C   C1313     1.0  0.62301  0.23702  0.91301  1.0000
  H   H1317     1.0  0.65810  0.22698  0.88157  1.0000
  H   H1318     1.0  0.60885  0.23928  0.91572  1.0000
  C   C1314     1.0  0.53537  0.28906  0.94536  1.0000
  C   C1315     1.0  0.72169  0.20946  0.86374  1.0000
  C   C1316     1.0  0.70599  0.20965  0.85906  1.0000
  C   C1317     1.0  0.69217  0.22384  0.86065  1.0000
  C   C1318     1.0  0.69399  0.23782  0.86680  1.0000
  C   C1319     1.0  0.50731  0.28064  0.81736  1.0000
  H   H1319     1.0  0.68018  0.22421  0.85675  1.0000
  C   C1320     1.0  0.53357  0.23865  0.68069  1.0000
  C   C1321     1.0  0.52492  0.22544  0.68152  1.0000
  C   C1322     1.0  0.53302  0.21232  0.67213  1.0000
  C   C1323     1.0  0.54985  0.21222  0.66199  1.0000
  C   C1324     1.0  0.55836  0.22563  0.66079  1.0000
  C   C1325     1.0  0.55009  0.23897  0.66993  1.0000
  H   H1320     1.0  0.51219  0.22499  0.68984  1.0000
  H   H1321     1.0  0.52632  0.20205  0.67309  1.0000
  H   H1322     1.0  0.57121  0.22583  0.65266  1.0000
  H   H1323     1.0  0.55646  0.24955  0.66852  1.0000
  C   C1326     1.0  0.52481  0.27204  0.81421  1.0000
  C   C1327     1.0  0.58600  0.15267  0.82835  1.0000
  C   C1328     1.0  0.59643  0.14475  0.84083  1.0000
  C   C1329     1.0  0.60985  0.15232  0.84224  1.0000
  C   C1330     1.0  0.61286  0.16802  0.83126  1.0000
  C   C1331     1.0  0.60199  0.17624  0.81926  1.0000
  C   C1332     1.0  0.58870  0.16861  0.81776  1.0000
  H   H1324     1.0  0.59438  0.13247  0.84920  1.0000
  H   H1325     1.0  0.61820  0.14576  0.85145  1.0000
  H   H1326     1.0  0.60406  0.18847  0.81082  1.0000
  H   H1327     1.0  0.58053  0.17519  0.80845  1.0000
  C   C1333     1.0  0.58781  0.17765  0.73297  1.0000
  C   C1334     1.0  0.60341  0.17965  0.72108  1.0000
  C   C1335     1.0  0.60819  0.19592  0.71573  1.0000
  C   C1336     1.0  0.59730  0.21022  0.72214  1.0000
  C   C1337     1.0  0.58187  0.20812  0.73424  1.0000
  C   C1338     1.0  0.57706  0.19190  0.73953  1.0000
  H   H1328     1.0  0.61184  0.16863  0.71607  1.0000
  H   H1329     1.0  0.62019  0.19748  0.70641  1.0000
  H   H1330     1.0  0.57357  0.21902  0.73950  1.0000
  H   H1331     1.0  0.56478  0.19061  0.74837  1.0000
  C   C1339     1.0  0.53247  0.21482  0.79985  1.0000
  C   C1340     1.0  0.55069  0.21303  0.79609  1.0000
  C   C1341     1.0  0.55917  0.21599  0.80788  1.0000
  S   S467      1.0  0.51380  0.25027  0.85715  1.0000
  H   H1332     1.0  0.55823  0.20953  0.78403  1.0000
  H   H1333     1.0  0.57324  0.21471  0.80491  1.0000
  S   S468      1.0  0.64895  0.25948  0.97569  1.0000
  H   H1334     1.0  0.58181  0.20222  0.68841  1.0000
  S   S469      1.0  0.50319  0.13655  0.78816  1.0000
  C   C1342     1.0  0.65402  0.31159  0.97316  1.0000
  H   H1335     1.0  0.56648  0.23539  0.54248  1.0000
  C   C1343     1.0  0.57851  0.23354  0.54762  1.0000
  H   H1336     1.0  0.56014  0.16493  0.85767  1.0000
  H   H1337     1.0  0.73245  0.17815  0.92572  1.0000
  Fe  Fe236     1.0  0.51771  0.16368  0.63907  1.0000
  H   H1338     1.0  0.49835  0.13839  0.72436  1.0000
  N   N110      1.0  0.71935  0.08576  0.52909  1.0000
  C   C1344     1.0  0.63122  0.28882  0.67066  1.0000
  C   C1345     1.0  0.62768  0.29704  0.64086  1.0000
  C   C1346     1.0  0.60967  0.30300  0.64645  1.0000
  C   C1347     1.0  0.60235  0.30137  0.66417  1.0000
  H   H1339     1.0  0.65738  0.12266  0.49868  1.0000
  C   C1348     1.0  0.52978  0.18114  0.84033  1.0000
  H   H1340     1.0  0.55205  0.16569  0.54300  1.0000
  C   C1349     1.0  0.67517  0.29433  0.92489  1.0000
  C   C1350     1.0  0.56936  0.26455  0.92536  1.0000
  C   C1351     1.0  0.70154  0.30764  0.89990  1.0000
  C   C1352     1.0  0.65089  0.23154  0.58180  1.0000
  C   C1353     1.0  0.64716  0.21785  0.57679  1.0000
  C   C1354     1.0  0.63899  0.22122  0.56266  1.0000
  C   C1355     1.0  0.63394  0.23831  0.55408  1.0000
  C   C1356     1.0  0.63733  0.25199  0.55937  1.0000
  C   C1357     1.0  0.64609  0.24858  0.57303  1.0000
  H   H1341     1.0  0.65096  0.20465  0.58355  1.0000
  H   H1342     1.0  0.63645  0.21060  0.55860  1.0000
  H   H1343     1.0  0.63335  0.26523  0.55281  1.0000
  H   H1344     1.0  0.64901  0.25920  0.57678  1.0000
  H   H1345     1.0  0.50209  0.15826  0.58920  1.0000
  C   C1358     1.0  0.69552  0.15391  0.94364  1.0000
  C   C1359     1.0  0.68214  0.14485  0.95238  1.0000
  C   C1360     1.0  0.66988  0.14329  0.94339  1.0000
  C   C1361     1.0  0.67103  0.15064  0.92563  1.0000
  C   C1362     1.0  0.68461  0.15939  0.91696  1.0000
  C   C1363     1.0  0.69661  0.16121  0.92595  1.0000
  H   H1346     1.0  0.68115  0.13915  0.96603  1.0000
  H   H1347     1.0  0.65946  0.13642  0.95022  1.0000
  C   C1364     1.0  0.72499  0.24616  0.82776  1.0000
  C   C1365     1.0  0.68166  0.30773  0.92750  1.0000
  C   C1366     1.0  0.73067  0.22952  0.82419  1.0000
  C   C1367     1.0  0.54244  0.14744  0.59225  1.0000
  C   C1368     1.0  0.54936  0.16029  0.55681  1.0000
  H   H1348     1.0  0.50941  0.11738  0.70736  1.0000
  C   C1369     1.0  0.69478  0.30803  0.53637  1.0000
  C   C1370     1.0  0.51770  0.28928  0.90686  1.0000
  H   H1349     1.0  0.65656  0.28761  0.53012  1.0000
  Fe  Fe237     1.0  0.73752  0.25972  0.88070  1.0000
  S   S470      1.0  0.51809  0.17469  0.66149  1.0000
  C   C1371     1.0  0.51194  0.18329  0.84057  1.0000
  S   S471      1.0  0.51848  0.13531  0.64207  1.0000
  S   S472      1.0  0.66090  0.28142  0.64654  1.0000
  N   N111      1.0  0.56428  0.18488  0.70052  1.0000
  C   C1372     1.0  0.56966  0.20025  0.69734  1.0000
  C   C1373     1.0  0.54922  0.18226  0.71222  1.0000
  C   C1374     1.0  0.53065  0.26231  0.80125  1.0000
  C   C1375     1.0  0.53871  0.19553  0.72050  1.0000
  H   H1350     1.0  0.71184  0.11594  0.49923  1.0000
  C   C1376     1.0  0.57519  0.17081  0.69206  1.0000
  S   S473      1.0  0.57901  0.27262  0.95201  1.0000
  H   H1351     1.0  0.54533  0.16984  0.71523  1.0000
  C   C1377     1.0  0.50790  0.30321  0.74401  1.0000
  H   H1352     1.0  0.72376  0.09427  0.55013  1.0000
  H   H1353     1.0  0.63321  0.29825  0.62718  1.0000
  H   H1354     1.0  0.58273  0.17602  0.67915  1.0000
  H   H1355     1.0  0.58437  0.16244  0.70038  1.0000
  H   H1356     1.0  0.56699  0.16283  0.68970  1.0000
  H   H1357     1.0  0.65443  0.24849  0.68437  1.0000
  H   H1358     1.0  0.54215  0.29691  0.94934  1.0000
  N   N112      1.0  0.70225  0.20136  0.56404  1.0000
  H   H1359     1.0  0.58418  0.24541  0.54253  1.0000
  C   C1378     1.0  0.68899  0.20436  0.55527  1.0000
  C   C1379     1.0  0.54393  0.21136  0.71707  1.0000
  C   C1380     1.0  0.70375  0.21441  0.57288  1.0000
  H   H1360     1.0  0.52233  0.17303  0.56062  1.0000
  H   H1361     1.0  0.67955  0.21651  0.55459  1.0000
  H   H1362     1.0  0.62856  0.19569  0.90757  1.0000
  H   H1363     1.0  0.69383  0.22654  0.57061  1.0000
  H   H1364     1.0  0.70173  0.20932  0.58711  1.0000
  H   H1365     1.0  0.71690  0.21781  0.56828  1.0000
  N   N113      1.0  0.59168  0.21883  0.86427  1.0000
  C   C1381     1.0  0.59439  0.20462  0.85712  1.0000
  C   C1382     1.0  0.58468  0.21803  0.88155  1.0000
  C   C1383     1.0  0.59001  0.18910  0.86733  1.0000
  C   C1384     1.0  0.58032  0.20266  0.89214  1.0000
  C   C1385     1.0  0.58298  0.18813  0.88495  1.0000
  C   C1386     1.0  0.59641  0.23488  0.85318  1.0000
  H   H1366     1.0  0.59994  0.20526  0.84341  1.0000
  H   H1367     1.0  0.58272  0.22921  0.88733  1.0000
  H   H1368     1.0  0.59235  0.17786  0.86162  1.0000
  H   H1369     1.0  0.57500  0.20203  0.90586  1.0000
  H   H1370     1.0  0.57981  0.17609  0.89307  1.0000
  H   H1371     1.0  0.61058  0.23243  0.84721  1.0000
  H   H1372     1.0  0.58858  0.23967  0.84286  1.0000
  H   H1373     1.0  0.59411  0.24523  0.86066  1.0000
  N   N114      1.0  0.61387  0.15092  0.78174  1.0000
  C   C1387     1.0  0.62532  0.14808  0.79253  1.0000
  C   C1388     1.0  0.61091  0.16645  0.77044  1.0000
  C   C1389     1.0  0.63458  0.16079  0.79177  1.0000
  C   C1390     1.0  0.61977  0.17953  0.76949  1.0000
  C   C1391     1.0  0.63169  0.17664  0.78025  1.0000
  C   C1392     1.0  0.60402  0.13758  0.78301  1.0000
  H   H1374     1.0  0.62706  0.13609  0.80205  1.0000
  H   H1375     1.0  0.60156  0.16885  0.76218  1.0000
  H   H1376     1.0  0.64338  0.15865  0.80060  1.0000
  H   H1377     1.0  0.61722  0.19188  0.76060  1.0000
  H   H1378     1.0  0.63840  0.18676  0.77998  1.0000
  H   H1379     1.0  0.59267  0.13827  0.79403  1.0000
  H   H1380     1.0  0.59910  0.13926  0.77096  1.0000
  H   H1381     1.0  0.61239  0.12442  0.78513  1.0000
  N   N115      1.0  0.63585  0.24691  0.67062  1.0000
  C   C1393     1.0  0.61870  0.25379  0.66977  1.0000
  C   C1394     1.0  0.64754  0.24207  0.65646  1.0000
  C   C1395     1.0  0.61298  0.25665  0.65422  1.0000
  C   C1396     1.0  0.64219  0.24436  0.64083  1.0000
  C   C1397     1.0  0.62485  0.25189  0.63966  1.0000
  H   H1382     1.0  0.60949  0.25761  0.68102  1.0000
  H   H1383     1.0  0.59954  0.26283  0.65342  1.0000
  H   H1384     1.0  0.65151  0.24061  0.62961  1.0000
  H   H1385     1.0  0.62072  0.25417  0.62744  1.0000
  H   H1386     1.0  0.64315  0.23037  0.69338  1.0000
  N   N116      1.0  0.68163  0.28787  0.91005  1.0000
  H   H1387     1.0  0.71157  0.25290  0.82753  1.0000
  H   H1388     1.0  0.72641  0.20054  0.61577  1.0000
  H   H1389     1.0  0.53987  0.14232  0.60612  1.0000
  H   H1390     1.0  0.72130  0.23233  0.61261  1.0000
  S   S474      1.0  0.61804  0.24025  0.97365  1.0000
  C   C1398     1.0  0.51998  0.26819  0.93401  1.0000
  C   C1399     1.0  0.72681  0.07909  0.51446  1.0000
  C   C1400     1.0  0.69468  0.29432  0.89766  1.0000
  C   C1401     1.0  0.70027  0.08959  0.53482  1.0000
  H   H1391     1.0  0.73194  0.26648  0.83570  1.0000
  H   H1392     1.0  0.54421  0.25566  0.79856  1.0000
  H   H1393     1.0  0.65961  0.23834  0.48004  1.0000
  H   H1394     1.0  0.50790  0.17662  0.59360  1.0000
  H   H1395     1.0  0.50501  0.28595  0.90728  1.0000
  H   H1396     1.0  0.69944  0.29654  0.54538  1.0000
  S   S475      1.0  0.51148  0.29509  0.86517  1.0000
  S   S476      1.0  0.66251  0.31050  0.55910  1.0000
  N   N117      1.0  0.73658  0.31253  0.55395  1.0000
  S   S477      1.0  0.57968  0.30803  0.67112  1.0000
  H   H1397     1.0  0.53260  0.30659  0.92119  1.0000
  C   C1402     1.0  0.72963  0.08862  0.53876  1.0000
  H   H1398     1.0  0.51622  0.30350  0.90187  1.0000
  C   C1403     1.0  0.52516  0.26247  0.95001  1.0000
  H   H1399     1.0  0.64549  0.27444  0.48647  1.0000
  Fe  Fe238     1.0  0.50439  0.23325  0.88227  1.0000
  H   H1400     1.0  0.64521  0.19910  0.97174  1.0000
  H   H1401     1.0  0.67383  0.22756  0.90389  1.0000
  C   C1404     1.0  0.73642  0.25375  0.83240  1.0000
  C   C1405     1.0  0.71415  0.18604  0.56485  1.0000
  C   C1406     1.0  0.73865  0.19949  0.93267  1.0000
  H   H1402     1.0  0.60156  0.20257  0.94900  1.0000
  C   C1407     1.0  0.64176  0.24426  0.68689  1.0000
  C   C1408     1.0  0.51705  0.30000  0.75733  1.0000
  H   H1403     1.0  0.55714  0.25980  0.90664  1.0000
  H   H1404     1.0  0.62435  0.24105  0.93763  1.0000
  C   C1409     1.0  0.55399  0.17887  0.85448  1.0000
  C   C1410     1.0  0.73758  0.23646  0.58720  1.0000
  H   H1405     1.0  0.63224  0.25199  0.69598  1.0000
  H   H1406     1.0  0.69995  0.28910  0.88598  1.0000
  S   S478      1.0  0.54769  0.22583  0.92143  1.0000
  C   C1411     1.0  0.53008  0.29435  0.92940  1.0000
  H   H1407     1.0  0.66118  0.23679  0.65706  1.0000
  C   C1412     1.0  0.65889  0.28817  0.51625  1.0000
  H   H1408     1.0  0.51321  0.29676  0.73323  1.0000
  H   H1409     1.0  0.58798  0.22257  0.54254  1.0000
  C   C1413     1.0  0.70613  0.31401  0.52089  1.0000
  H   H1410     1.0  0.50749  0.18469  0.82871  1.0000
  C   C1414     1.0  0.67109  0.29747  0.50485  1.0000
  H   H1411     1.0  0.57010  0.27774  0.91870  1.0000
  S   S479      1.0  0.64014  0.31010  0.96028  1.0000
  H   H1412     1.0  0.69342  0.08789  0.52525  1.0000
  Fe  Fe239     1.0  0.51868  0.26628  0.87339  1.0000
  S   S480      1.0  0.55995  0.22412  0.83831  1.0000
  C   C1415     1.0  0.49988  0.18421  0.85609  1.0000
  H   H1413     1.0  0.67673  0.19401  0.54033  1.0000
  C   C1416     1.0  0.61557  0.19942  0.94839  1.0000
  C   C1417     1.0  0.65138  0.19176  0.94692  1.0000
  H   H1414     1.0  0.53913  0.18041  0.82821  1.0000
  C   C1418     1.0  0.72357  0.22355  0.86980  1.0000
  H   H1415     1.0  0.54143  0.23045  0.60123  1.0000
  H   H1416     1.0  0.52344  0.25362  0.78159  1.0000
  C   C1419     1.0  0.64447  0.19011  0.93345  1.0000
  N   N118      1.0  0.62681  0.19408  0.93423  1.0000
  H   H1417     1.0  0.72461  0.18368  0.57180  1.0000
  C   C1420     1.0  0.68736  0.19174  0.54713  1.0000
  H   H1418     1.0  0.50851  0.10467  0.66467  1.0000
  H   H1419     1.0  0.73573  0.22341  0.87322  1.0000
  H   H1420     1.0  0.59680  0.21437  0.59967  1.0000
  H   H1421     1.0  0.60208  0.22153  0.56758  1.0000
  C   C1421     1.0  0.55822  0.23265  0.57586  1.0000
  H   H1422     1.0  0.54726  0.23759  0.56930  1.0000
  C   C1422     1.0  0.66788  0.12691  0.50150  1.0000
  S   S481      1.0  0.66114  0.23396  0.93849  1.0000
  C   C1423     1.0  0.70970  0.23782  0.87123  1.0000
  C   C1424     1.0  0.57497  0.25807  0.94120  1.0000
  H   H1423     1.0  0.56053  0.31540  0.73666  1.0000
  H   H1424     1.0  0.68320  0.24878  0.86789  1.0000
  H   H1425     1.0  0.53588  0.22183  0.72330  1.0000
  H   H1426     1.0  0.64021  0.27243  0.51830  1.0000
  N   N119      1.0  0.53532  0.18068  0.85503  1.0000
  H   H1427     1.0  0.72018  0.30178  0.57700  1.0000
  H   H1428     1.0  0.67534  0.27408  0.89398  1.0000
  H   H1429     1.0  0.56472  0.21812  0.95018  1.0000
  C   C1425     1.0  0.63847  0.28984  0.65297  1.0000
  N   N120      1.0  0.52932  0.15787  0.58429  1.0000
  H   H1430     1.0  0.67637  0.31292  0.93920  1.0000
  C   C1426     1.0  0.72961  0.22631  0.60223  1.0000
  H   H1431     1.0  0.52553  0.11928  0.76052  1.0000
  N   N121      1.0  0.49600  0.27968  0.80775  1.0000
  C   C1427     1.0  0.71301  0.17319  0.55676  1.0000
  H   H1432     1.0  0.69837  0.16618  0.54166  1.0000
  S   S482      1.0  0.71161  0.25627  0.87773  1.0000
  C   C1428     1.0  0.55980  0.23782  0.92770  1.0000
  H   H1433     1.0  0.50883  0.22052  0.81843  1.0000
  C   C1429     1.0  0.57395  0.24100  0.94972  1.0000
  C   C1430     1.0  0.51205  0.11911  0.76091  1.0000
  S   S483      1.0  0.50704  0.25071  0.89869  1.0000
  Fe  Fe240     1.0  0.64151  0.24949  0.95609  1.0000
  H   H1434     1.0  0.56077  0.18462  0.84140  1.0000
  Fe  Fe241     1.0  0.60353  0.26667  0.96315  1.0000
  H   H1435     1.0  0.63958  0.28356  0.68006  1.0000
  C   C1431     1.0  0.56634  0.23095  0.94301  1.0000
  C   C1432     1.0  0.61316  0.29426  0.67628  1.0000
  C   C1433     1.0  0.53129  0.22197  0.82729  1.0000
  Fe  Fe242     1.0  0.49844  0.19719  0.65094  1.0000
  H   H1436     1.0  0.68387  0.26081  0.91247  1.0000
  S   S484      1.0  0.73811  0.27327  0.90135  1.0000
  H   H1437     1.0  0.73964  0.30632  0.91580  1.0000
  S   S485      1.0  0.54644  0.25248  0.87381  1.0000
  H   H1438     1.0  0.57604  0.14715  0.55719  1.0000
  H   H1439     1.0  0.53776  0.26842  0.96767  1.0000
  C   C1434     1.0  0.52280  0.21954  0.81533  1.0000
  H   H1440     1.0  0.60765  0.29320  0.68997  1.0000
  C   C1435     1.0  0.50968  0.30804  0.77159  1.0000
  C   C1436     1.0  0.69948  0.17608  0.54789  1.0000
  Fe  Fe243     1.0  0.54045  0.23467  0.86004  1.0000
  C   C1437     1.0  0.52358  0.18141  0.87037  1.0000
  H   H1441     1.0  0.72256  0.16107  0.55743  1.0000
  H   H1442     1.0  0.50285  0.28815  0.82749  1.0000
  H   H1443     1.0  0.52380  0.22434  0.83968  1.0000
  C   C1438     1.0  0.68513  0.11779  0.49762  1.0000
  H   H1444     1.0  0.52801  0.28267  0.89741  1.0000
  H   H1445     1.0  0.66167  0.27299  0.91513  1.0000
  C   C1439     1.0  0.50802  0.11041  0.74990  1.0000
  C   C1440     1.0  0.55956  0.21371  0.70551  1.0000
  C   C1441     1.0  0.69858  0.12316  0.50166  1.0000
  C   C1442     1.0  0.56287  0.14986  0.56481  1.0000
  S   S486      1.0  0.73216  0.25915  0.58428  1.0000
  H   H1446     1.0  0.69569  0.10326  0.53650  1.0000
  H   H1447     1.0  0.51849  0.10400  0.74101  1.0000
  Fe  Fe244     1.0  0.53470  0.23568  0.89808  1.0000
  H   H1448     1.0  0.56383  0.22589  0.70287  1.0000
  S   S487      1.0  0.53096  0.21651  0.88425  1.0000
  H   H1449     1.0  0.53377  0.27288  0.82181  1.0000
  H   H1450     1.0  0.57791  0.23598  0.96208  1.0000
  C   C1443     1.0  0.69496  0.31437  0.91494  1.0000
  H   H1451     1.0  0.51678  0.30569  0.78188  1.0000
  C   C1444     1.0  0.50569  0.18328  0.87111  1.0000
  C   C1445     1.0  0.64969  0.27975  0.50963  1.0000
  H   H1452     1.0  0.69631  0.08078  0.54730  1.0000
  H   H1453     1.0  0.68792  0.19696  0.96035  1.0000
  H   H1454     1.0  0.60137  0.30865  0.63703  1.0000
  H   H1455     1.0  0.66489  0.28921  0.93480  1.0000
  N   N122      1.0  0.52235  0.28401  0.92399  1.0000
  C   C1446     1.0  0.68182  0.19734  0.97381  1.0000
  H   H1456     1.0  0.74302  0.26982  0.96589  1.0000
  H   H1457     1.0  0.51459  0.25962  0.92942  1.0000
  C   C1447     1.0  0.74379  0.20029  0.59093  1.0000
  C   C1448     1.0  0.65263  0.28090  0.49176  1.0000
  H   H1458     1.0  0.74080  0.12968  0.51667  1.0000
  C   C1449     1.0  0.51160  0.16236  0.59435  1.0000
  C   C1450     1.0  0.50155  0.26988  0.79523  1.0000
  H   H1459     1.0  0.72165  0.22322  0.82125  1.0000
  H   H1460     1.0  0.67649  0.22521  0.96977  1.0000
  H   H1461     1.0  0.72995  0.20936  0.92533  1.0000
  H   H1462     1.0  0.61306  0.20543  0.97335  1.0000
  C   C1451     1.0  0.49801  0.12923  0.64966  1.0000
  H   H1463     1.0  0.74474  0.11842  0.49013  1.0000
  C   C1452     1.0  0.49681  0.11331  0.66106  1.0000
  H   H1464     1.0  0.51010  0.12548  0.68455  1.0000
  N   N123      1.0  0.67410  0.29831  0.48738  1.0000
  C   C1453     1.0  0.72112  0.31219  0.56567  1.0000
  C   C1454     1.0  0.53290  0.27300  0.95569  1.0000
  S   S488      1.0  0.49639  0.18497  0.62978  1.0000
  H   H1465     1.0  0.69768  0.30802  0.48182  1.0000
  H   H1466     1.0  0.71204  0.31260  0.89013  1.0000
  H   H1467     1.0  0.71949  0.30709  0.51798  1.0000
  C   C1455     1.0  0.74012  0.18201  0.93280  1.0000
  C   C1456     1.0  0.49869  0.12683  0.77295  1.0000
  H   H1468     1.0  0.49633  0.18444  0.88317  1.0000
  C   C1457     1.0  0.67547  0.21318  0.97912  1.0000
  H   H1469     1.0  0.65511  0.62508  0.22779  1.0000
  Fe  Fe245     1.0  0.70145  0.56836  0.26939  1.0000
  S   S489      1.0  0.70947  0.56674  0.24130  1.0000
  S   S490      1.0  0.72377  0.56000  0.28381  1.0000
  Fe  Fe246     1.0  0.66287  0.58159  0.26749  1.0000
  S   S491      1.0  0.66775  0.58000  0.23957  1.0000
  S   S492      1.0  0.63503  0.59064  0.28101  1.0000
  Fe  Fe247     1.0  0.68603  0.55484  0.24662  1.0000
  S   S493      1.0  0.68861  0.53061  0.23698  1.0000
  Fe  Fe248     1.0  0.69066  0.59210  0.23673  1.0000
  S   S494      1.0  0.69318  0.61506  0.21481  1.0000
  S   S495      1.0  0.67888  0.55489  0.27499  1.0000
  S   S496      1.0  0.68485  0.59521  0.26435  1.0000
  C   C1458     1.0  0.69800  0.35675  0.28612  1.0000
  S   S497      1.0  0.71710  0.34144  0.01747  1.0000
  H   H1470     1.0  0.70468  0.46447  0.03969  1.0000
  Fe  Fe249     1.0  0.71670  0.36774  0.00038  1.0000
  S   S498      1.0  0.70788  0.39074  0.01401  1.0000
  Fe  Fe250     1.0  0.70408  0.33540  0.99911  1.0000
  H   H1471     1.0  0.73396  0.38469  0.07333  1.0000
  H   H1472     1.0  0.59280  0.54920  0.11937  1.0000
  C   C1459     1.0  0.69499  0.45081  0.02567  1.0000
  C   C1460     1.0  0.69911  0.44548  0.17989  1.0000
  H   H1473     1.0  0.65001  0.62001  0.26040  1.0000
  C   C1461     1.0  0.70149  0.50232  0.27878  1.0000
  C   C1462     1.0  0.58321  0.54176  0.11869  1.0000
  C   C1463     1.0  0.69353  0.34471  0.34786  1.0000
  S   S499      1.0  0.72846  0.48558  0.33287  1.0000
  C   C1464     1.0  0.71486  0.52480  0.11145  1.0000
  H   H1474     1.0  0.69334  0.47309  0.20344  1.0000
  H   H1475     1.0  0.71928  0.58496  0.20653  1.0000
  N   N124      1.0  0.57309  0.53644  0.13610  1.0000
  H   H1476     1.0  0.58083  0.62866  0.24986  1.0000
  C   C1465     1.0  0.57193  0.51857  0.16463  1.0000
  Fe  Fe251     1.0  0.70808  0.46306  0.07990  1.0000
  Fe  Fe252     1.0  0.74277  0.47077  0.08089  1.0000
  S   S500      1.0  0.68265  0.47487  0.07131  1.0000
  N   N125      1.0  0.71188  0.35002  0.29618  1.0000
  H   H1477     1.0  0.71156  0.50616  0.28281  1.0000
  H   H1478     1.0  0.70833  0.43219  0.36362  1.0000
  H   H1479     1.0  0.71318  0.33928  0.36325  1.0000
  S   S501      1.0  0.71695  0.43424  0.08678  1.0000
  S   S502      1.0  0.71814  0.46877  0.10076  1.0000
  Fe  Fe253     1.0  0.63265  0.51975  0.14524  1.0000
  S   S503      1.0  0.61816  0.50437  0.16881  1.0000
  S   S504      1.0  0.62752  0.52210  0.11891  1.0000
  Fe  Fe254     1.0  0.64927  0.53471  0.16595  1.0000
  S   S505      1.0  0.63571  0.52119  0.19143  1.0000
  S   S506      1.0  0.66786  0.55179  0.16389  1.0000
  Fe  Fe255     1.0  0.64316  0.49822  0.17863  1.0000
  S   S507      1.0  0.65663  0.47121  0.18932  1.0000
  Fe  Fe256     1.0  0.61212  0.52873  0.17922  1.0000
  S   S508      1.0  0.58528  0.53857  0.19398  1.0000
  S   S509      1.0  0.65829  0.51142  0.15385  1.0000
  S   S510      1.0  0.62506  0.54454  0.15495  1.0000
  Fe  Fe257     1.0  0.68579  0.43424  0.27284  1.0000
  S   S511      1.0  0.70864  0.43337  0.25055  1.0000
  S   S512      1.0  0.66110  0.45331  0.26847  1.0000
  Fe  Fe258     1.0  0.70682  0.41062  0.29893  1.0000
  S   S513      1.0  0.73153  0.40834  0.27889  1.0000
  S   S514      1.0  0.71059  0.39678  0.32580  1.0000
  Fe  Fe259     1.0  0.72331  0.43669  0.26901  1.0000
  H   H1480     1.0  0.68996  0.42797  0.99839  1.0000
  Fe  Fe260     1.0  0.71472  0.40508  0.26233  1.0000
  C   C1466     1.0  0.72512  0.60194  0.16325  1.0000
  S   S515      1.0  0.70008  0.43959  0.29065  1.0000
  S   S516      1.0  0.69037  0.40533  0.28304  1.0000
  H   H1481     1.0  0.68040  0.51331  0.29753  1.0000
  H   H1482     1.0  0.65753  0.50464  0.28771  1.0000
  H   H1483     1.0  0.73304  0.34237  0.40435  1.0000
  S   S517      1.0  0.73177  0.46745  0.05935  1.0000
  C   C1467     1.0  0.70586  0.49366  0.26499  1.0000
  C   C1468     1.0  0.72443  0.32857  0.31836  1.0000
  H   H1484     1.0  0.74299  0.44566  0.42618  1.0000
  C   C1469     1.0  0.55488  0.52735  0.16981  1.0000
  H   H1485     1.0  0.66623  0.53036  0.10989  1.0000
  C   C1470     1.0  0.70370  0.37691  0.33421  1.0000
  C   C1471     1.0  0.70695  0.54283  0.13347  1.0000
  C   C1472     1.0  0.69050  0.37298  0.32839  1.0000
  H   H1486     1.0  0.72182  0.36782  0.35157  1.0000
  H   H1487     1.0  0.68407  0.38240  0.31880  1.0000
  H   H1488     1.0  0.63246  0.59856  0.23751  1.0000
  S   S518      1.0  0.72739  0.38380  0.24775  1.0000
  S   S519      1.0  0.54538  0.63562  0.20605  1.0000
  C   C1473     1.0  0.65691  0.46614  0.21157  1.0000
  C   C1474     1.0  0.66624  0.44998  0.21862  1.0000
  C   C1475     1.0  0.66753  0.44596  0.23610  1.0000
  C   C1476     1.0  0.65909  0.45792  0.24673  1.0000
  C   C1477     1.0  0.64940  0.47392  0.23982  1.0000
  C   C1478     1.0  0.64844  0.47808  0.22222  1.0000
  H   H1489     1.0  0.67241  0.44050  0.21059  1.0000
  H   H1490     1.0  0.67469  0.43344  0.24146  1.0000
  H   H1491     1.0  0.64273  0.48315  0.24803  1.0000
  H   H1492     1.0  0.64098  0.49043  0.21701  1.0000
  C   C1479     1.0  0.70233  0.42766  0.18040  1.0000
  C   C1480     1.0  0.66731  0.48737  0.08511  1.0000
  C   C1481     1.0  0.65347  0.49929  0.07869  1.0000
  C   C1482     1.0  0.64126  0.50979  0.08924  1.0000
  C   C1483     1.0  0.64274  0.50830  0.10632  1.0000
  C   C1484     1.0  0.65641  0.49616  0.11291  1.0000
  C   C1485     1.0  0.66877  0.48573  0.10227  1.0000
  H   H1493     1.0  0.65228  0.50054  0.06546  1.0000
  H   H1494     1.0  0.63071  0.51913  0.08410  1.0000
  H   H1495     1.0  0.65742  0.49470  0.12620  1.0000
  H   H1496     1.0  0.67921  0.47625  0.10741  1.0000
  C   C1486     1.0  0.54774  0.58094  0.16492  1.0000
  C   C1487     1.0  0.54256  0.57398  0.18250  1.0000
  C   C1488     1.0  0.55418  0.56094  0.19124  1.0000
  C   C1489     1.0  0.57106  0.55480  0.18248  1.0000
  C   C1490     1.0  0.57621  0.56168  0.16486  1.0000
  C   C1491     1.0  0.56457  0.57474  0.15609  1.0000
  C   C1492     1.0  0.58090  0.52331  0.14761  1.0000
  H   H1497     1.0  0.55003  0.55550  0.20482  1.0000
  H   H1498     1.0  0.58906  0.55687  0.15791  1.0000
  H   H1499     1.0  0.56859  0.58002  0.14246  1.0000
  H   H1500     1.0  0.57834  0.50852  0.17391  1.0000
  C   C1493     1.0  0.69802  0.48086  0.24453  1.0000
  C   C1494     1.0  0.71380  0.44050  0.20314  1.0000
  C   C1495     1.0  0.70671  0.34868  0.35368  1.0000
  S   S520      1.0  0.73201  0.42307  0.13147  1.0000
  H   H1501     1.0  0.72556  0.32531  0.06451  1.0000
  H   H1502     1.0  0.52940  0.57826  0.18926  1.0000
  C   C1496     1.0  0.71037  0.51674  0.10033  1.0000
  H   H1503     1.0  0.71940  0.49098  0.25835  1.0000
  H   H1504     1.0  0.71066  0.47147  0.24457  1.0000
  C   C1497     1.0  0.73158  0.52094  0.19919  1.0000
  C   C1498     1.0  0.74077  0.53093  0.30327  1.0000
  C   C1499     1.0  0.72122  0.39646  0.02520  1.0000
  C   C1500     1.0  0.71774  0.45267  0.32155  1.0000
  H   H1505     1.0  0.60043  0.61014  0.29108  1.0000
  H   H1506     1.0  0.72390  0.37199  0.28548  1.0000
  C   C1501     1.0  0.72302  0.41269  0.04608  1.0000
  C   C1502     1.0  0.71316  0.40547  0.03871  1.0000
  H   H1507     1.0  0.57470  0.54989  0.10962  1.0000
  C   C1503     1.0  0.69281  0.51878  0.09970  1.0000
  H   H1508     1.0  0.71653  0.42001  0.05609  1.0000
  H   H1509     1.0  0.69914  0.40727  0.04322  1.0000
  H   H1510     1.0  0.72408  0.41373  0.21372  1.0000
  H   H1511     1.0  0.72046  0.50894  0.09226  1.0000
  C   C1504     1.0  0.68530  0.35696  0.33535  1.0000
  C   C1505     1.0  0.60081  0.63681  0.27834  1.0000
  N   N126      1.0  0.70481  0.45167  0.19121  1.0000
  N   N127      1.0  0.69321  0.48894  0.25970  1.0000
  S   S521      1.0  0.74033  0.45651  0.26076  1.0000
  C   C1506     1.0  0.67996  0.52884  0.11015  1.0000
  C   C1507     1.0  0.73361  0.45131  0.14342  1.0000
  H   H1512     1.0  0.71872  0.44546  0.21176  1.0000
  H   H1513     1.0  0.59052  0.63367  0.32803  1.0000
  H   H1514     1.0  0.70164  0.32746  0.30998  1.0000
  H   H1515     1.0  0.59427  0.51663  0.14369  1.0000
  C   C1508     1.0  0.74111  0.41087  0.04009  1.0000
  Fe  Fe261     1.0  0.51725  0.61670  0.16950  1.0000
  S   S522      1.0  0.53309  0.59684  0.15369  1.0000
  H   H1516     1.0  0.71383  0.47483  0.18811  1.0000
  C   C1509     1.0  0.68422  0.53622  0.21609  1.0000
  C   C1510     1.0  0.68540  0.55272  0.20591  1.0000
  C   C1511     1.0  0.68108  0.55735  0.18947  1.0000
  C   C1512     1.0  0.67550  0.54549  0.18331  1.0000
  C   C1513     1.0  0.67525  0.52872  0.19310  1.0000
  C   C1514     1.0  0.67949  0.52411  0.20953  1.0000
  H   H1517     1.0  0.68948  0.56199  0.21075  1.0000
  H   H1518     1.0  0.68155  0.57026  0.18181  1.0000
  H   H1519     1.0  0.67164  0.51928  0.18810  1.0000
  H   H1520     1.0  0.67853  0.51136  0.21732  1.0000
  C   C1515     1.0  0.72502  0.53952  0.29789  1.0000
  C   C1516     1.0  0.71051  0.53160  0.30370  1.0000
  C   C1517     1.0  0.71177  0.51513  0.31456  1.0000
  H   H1521     1.0  0.73570  0.38963  0.11729  1.0000
  H   H1522     1.0  0.74096  0.33714  0.42411  1.0000
  H   H1523     1.0  0.71386  0.40231  0.19322  1.0000
  H   H1524     1.0  0.69816  0.53835  0.30030  1.0000
  H   H1525     1.0  0.70039  0.50923  0.31926  1.0000
  C   C1518     1.0  0.71701  0.42257  0.20419  1.0000
  H   H1526     1.0  0.69802  0.42286  0.17121  1.0000
  H   H1527     1.0  0.64040  0.64845  0.28919  1.0000
  C   C1519     1.0  0.71291  0.61752  0.16365  1.0000
  C   C1520     1.0  0.70320  0.62150  0.17955  1.0000
  C   C1521     1.0  0.70536  0.60971  0.19506  1.0000
  C   C1522     1.0  0.71125  0.41616  0.19270  1.0000
  C   C1523     1.0  0.68492  0.53677  0.12107  1.0000
  H   H1528     1.0  0.69393  0.63366  0.17984  1.0000
  H   H1529     1.0  0.51078  0.64091  0.22718  1.0000
  H   H1530     1.0  0.54804  0.52420  0.18315  1.0000
  H   H1531     1.0  0.72098  0.54383  0.12985  1.0000
  C   C1524     1.0  0.73212  0.38507  0.08724  1.0000
  C   C1525     1.0  0.55637  0.54517  0.14109  1.0000
  C   C1526     1.0  0.71165  0.36482  0.34699  1.0000
  H   H1532     1.0  0.53397  0.54805  0.16205  1.0000
  H   H1533     1.0  0.65355  0.61217  0.21343  1.0000
  C   C1527     1.0  0.72930  0.44303  0.00810  1.0000
  H   H1534     1.0  0.66596  0.48932  0.26332  1.0000
  C   C1528     1.0  0.62612  0.61298  0.27619  1.0000
  H   H1535     1.0  0.70278  0.36468  0.27330  1.0000
  C   C1529     1.0  0.68533  0.43417  0.00990  1.0000
  C   C1530     1.0  0.68401  0.50630  0.28704  1.0000
  H   H1536     1.0  0.73687  0.57822  0.17861  1.0000
  C   C1531     1.0  0.70130  0.47034  0.19079  1.0000
  C   C1532     1.0  0.67118  0.50148  0.28152  1.0000
  H   H1537     1.0  0.69932  0.49105  0.23259  1.0000
  H   H1538     1.0  0.73176  0.50525  0.16415  1.0000
  C   C1533     1.0  0.59429  0.62773  0.24285  1.0000
  H   H1539     1.0  0.73823  0.39341  0.41555  1.0000
  H   H1540     1.0  0.68803  0.47364  0.24442  1.0000
  C   C1534     1.0  0.54699  0.54070  0.15798  1.0000
  H   H1541     1.0  0.68000  0.32228  0.47235  1.0000
  H   H1542     1.0  0.68126  0.42398  0.02115  1.0000
  Fe  Fe262     1.0  0.52308  0.63589  0.19415  1.0000
  C   C1535     1.0  0.62341  0.61092  0.23577  1.0000
  H   H1543     1.0  0.74185  0.41436  0.23559  1.0000
  H   H1544     1.0  0.55036  0.55605  0.13222  1.0000
  Fe  Fe263     1.0  0.74190  0.33322  0.99925  1.0000
  H   H1545     1.0  0.71198  0.52366  0.18443  1.0000
  N   N128      1.0  0.70219  0.53480  0.12151  1.0000
  C   C1536     1.0  0.73643  0.50789  0.17441  1.0000
  H   H1546     1.0  0.56250  0.64586  0.22746  1.0000
  C   C1537     1.0  0.71739  0.59402  0.19464  1.0000
  H   H1547     1.0  0.72964  0.35886  0.41700  1.0000
  H   H1548     1.0  0.69908  0.55620  0.13345  1.0000
  N   N129      1.0  0.69909  0.44106  0.01320  1.0000
  H   H1549     1.0  0.69191  0.45429  0.17047  1.0000
  H   H1550     1.0  0.72140  0.39618  0.09007  1.0000
  N   N130      1.0  0.57400  0.58952  0.19768  1.0000
  C   C1538     1.0  0.58971  0.57817  0.19790  1.0000
  C   C1539     1.0  0.57120  0.60159  0.18303  1.0000
  C   C1540     1.0  0.60299  0.57845  0.18304  1.0000
  C   C1541     1.0  0.58417  0.60221  0.16793  1.0000
  C   C1542     1.0  0.60015  0.59052  0.16796  1.0000
  C   C1543     1.0  0.56032  0.58923  0.21343  1.0000
  H   H1551     1.0  0.59187  0.56840  0.20941  1.0000
  H   H1552     1.0  0.55877  0.61066  0.18289  1.0000
  H   H1553     1.0  0.61526  0.56910  0.18316  1.0000
  H   H1554     1.0  0.58168  0.61157  0.15626  1.0000
  H   H1555     1.0  0.61025  0.59068  0.15628  1.0000
  H   H1556     1.0  0.54712  0.59295  0.21016  1.0000
  H   H1557     1.0  0.56128  0.57603  0.22175  1.0000
  H   H1558     1.0  0.56136  0.59860  0.22080  1.0000
  H   H1559     1.0  0.67501  0.35397  0.33092  1.0000
  C   C1544     1.0  0.64777  0.62449  0.21813  1.0000
  C   C1545     1.0  0.63632  0.62463  0.26544  1.0000
  C   C1546     1.0  0.72680  0.42100  0.34314  1.0000
  S   S523      1.0  0.51360  0.61134  0.19836  1.0000
  C   C1547     1.0  0.67603  0.49280  0.26771  1.0000
  H   H1560     1.0  0.70425  0.53514  0.14687  1.0000
  H   H1561     1.0  0.59066  0.53020  0.11318  1.0000
  C   C1548     1.0  0.72535  0.51804  0.18586  1.0000
  H   H1562     1.0  0.73041  0.40874  0.35172  1.0000
  H   H1563     1.0  0.67382  0.44466  0.00763  1.0000
  C   C1549     1.0  0.71425  0.43421  0.34994  1.0000
  C   C1550     1.0  0.73021  0.43919  0.31520  1.0000
  C   C1551     1.0  0.67052  0.32867  0.98116  1.0000
  H   H1564     1.0  0.68168  0.45362  0.03292  1.0000
  C   C1552     1.0  0.72760  0.50635  0.31955  1.0000
  C   C1553     1.0  0.72524  0.45299  0.02077  1.0000
  C   C1554     1.0  0.60592  0.61177  0.24426  1.0000
  C   C1555     1.0  0.61100  0.64842  0.26741  1.0000
  Fe  Fe264     1.0  0.72976  0.44025  0.10549  1.0000
  H   H1565     1.0  0.73656  0.44138  0.30169  1.0000
  S   S524      1.0  0.74269  0.35988  0.98324  1.0000
  Fe  Fe265     1.0  0.74122  0.43876  0.06727  1.0000
  C   C1556     1.0  0.51955  0.64464  0.23303  1.0000
  H   H1566     1.0  0.71941  0.42870  0.99515  1.0000
  C   C1557     1.0  0.70797  0.45698  0.02959  1.0000
  C   C1558     1.0  0.72741  0.59023  0.17877  1.0000
  C   C1559     1.0  0.70979  0.45017  0.33906  1.0000
  H   H1567     1.0  0.60163  0.60022  0.25245  1.0000
  C   C1560     1.0  0.73939  0.39414  0.01960  1.0000
  H   H1568     1.0  0.67484  0.54444  0.12928  1.0000
  N   N131      1.0  0.73462  0.42362  0.32595  1.0000
  H   H1569     1.0  0.68915  0.51253  0.09118  1.0000
  H   H1570     1.0  0.64246  0.32766  0.02060  1.0000
  H   H1571     1.0  0.71111  0.62663  0.15170  1.0000
  S   S525      1.0  0.70118  0.36251  0.98324  1.0000
  C   C1561     1.0  0.71599  0.43710  0.00446  1.0000
  C   C1562     1.0  0.60839  0.61913  0.28276  1.0000
  H   H1572     1.0  0.69374  0.47792  0.18069  1.0000
  C   C1563     1.0  0.73893  0.34749  0.41252  1.0000
  H   H1573     1.0  0.71470  0.46518  0.31309  1.0000
  C   C1564     1.0  0.62877  0.64227  0.26102  1.0000
  C   C1565     1.0  0.61788  0.64129  0.22476  1.0000
  C   C1566     1.0  0.74215  0.51427  0.31391  1.0000
  H   H1574     1.0  0.72687  0.45920  0.13338  1.0000
  H   H1575     1.0  0.70056  0.46076  0.34422  1.0000
  H   H1576     1.0  0.69334  0.34604  0.28359  1.0000
  S   S526      1.0  0.68807  0.32409  0.35520  1.0000
  S   S527      1.0  0.72908  0.32481  0.98228  1.0000
  H   H1577     1.0  0.62400  0.33215  0.99909  1.0000
  H   H1578     1.0  0.73556  0.45711  0.02413  1.0000
  C   C1567     1.0  0.63513  0.31786  0.02136  1.0000
  H   H1579     1.0  0.72827  0.37274  0.09489  1.0000
  S   S528      1.0  0.52844  0.64031  0.16533  1.0000
  C   C1568     1.0  0.73762  0.43324  0.14536  1.0000
  C   C1569     1.0  0.72409  0.35969  0.29457  1.0000
  H   H1580     1.0  0.72302  0.52868  0.20827  1.0000
  H   H1581     1.0  0.72855  0.52301  0.11193  1.0000
  H   H1582     1.0  0.74290  0.37097  0.38339  1.0000
  C   C1570     1.0  0.71182  0.33472  0.30801  1.0000
  H   H1583     1.0  0.68681  0.36497  0.29334  1.0000
  C   C1571     1.0  0.60027  0.64261  0.23305  1.0000
  N   N132      1.0  0.62916  0.62554  0.22604  1.0000
  H   H1584     1.0  0.64995  0.63524  0.20681  1.0000
  C   C1572     1.0  0.53735  0.64283  0.22552  1.0000
  H   H1585     1.0  0.58711  0.64140  0.28331  1.0000
  H   H1586     1.0  0.74280  0.43929  0.00167  1.0000
  C   C1573     1.0  0.62476  0.32047  0.00912  1.0000
  H   H1587     1.0  0.61983  0.63380  0.30916  1.0000
  C   C1574     1.0  0.73678  0.35401  0.30485  1.0000
  C   C1575     1.0  0.73789  0.45920  0.15485  1.0000
  H   H1588     1.0  0.73462  0.47316  0.15337  1.0000
  C   C1576     1.0  0.73692  0.33834  0.31683  1.0000
  H   H1589     1.0  0.73831  0.53530  0.26004  1.0000
  S   S529      1.0  0.73813  0.59765  0.14340  1.0000
  C   C1577     1.0  0.54876  0.64721  0.23337  1.0000
  C   C1578     1.0  0.61103  0.64605  0.31077  1.0000
  C   C1579     1.0  0.59446  0.64587  0.32146  1.0000
  S   S530      1.0  0.68470  0.31786  0.01041  1.0000
  H   H1590     1.0  0.49789  0.34898  0.72491  1.0000
  C   C1580     1.0  0.70628  0.32509  0.56308  1.0000
  C   C1581     1.0  0.74428  0.35438  0.90535  1.0000
  H   H1591     1.0  0.55249  0.33632  0.68462  1.0000
  C   C1582     1.0  0.55862  0.32520  0.70985  1.0000
  S   S531      1.0  0.71310  0.33695  0.48945  1.0000
  H   H1592     1.0  0.53128  0.33161  0.74779  1.0000
  H   H1593     1.0  0.70020  0.32468  0.91686  1.0000
  N   N133      1.0  0.52551  0.34304  0.72267  1.0000
  C   C1583     1.0  0.50818  0.35283  0.72920  1.0000
  H   H1594     1.0  0.73213  0.32311  0.93964  1.0000
  Fe  Fe266     1.0  0.72740  0.35220  0.96757  1.0000
  H   H1595     1.0  0.72403  0.34856  0.52477  1.0000
  H   H1596     1.0  0.57153  0.31824  0.70481  1.0000
  H   H1597     1.0  0.69388  0.32461  0.57213  1.0000
  C   C1584     1.0  0.53589  0.33291  0.73390  1.0000
  H   H1598     1.0  0.67780  0.34908  0.50399  1.0000
  C   C1585     1.0  0.66023  0.32692  0.97032  1.0000
  C   C1586     1.0  0.73776  0.32554  0.53955  1.0000
  C   C1587     1.0  0.73867  0.34652  0.92257  1.0000
  H   H1599     1.0  0.65807  0.33878  0.53114  1.0000
  C   C1588     1.0  0.53127  0.34428  0.70517  1.0000
  C   C1589     1.0  0.54791  0.33544  0.69850  1.0000
  H   H1600     1.0  0.65679  0.33760  0.95995  1.0000
  S   S532      1.0  0.73445  0.35934  0.93838  1.0000
  C   C1590     1.0  0.72317  0.33857  0.53648  1.0000
  H   H1601     1.0  0.69578  0.34805  0.54592  1.0000
  H   H1602     1.0  0.52297  0.35215  0.69627  1.0000
  H   H1603     1.0  0.67486  0.34070  0.97922  1.0000
  C   C1591     1.0  0.70001  0.32893  0.50923  1.0000
  C   C1592     1.0  0.67146  0.33180  0.52835  1.0000
  C   C1593     1.0  0.68264  0.33764  0.51298  1.0000
  C   C1594     1.0  0.73682  0.32914  0.92639  1.0000
  H   H1604     1.0  0.50761  0.36696  0.72441  1.0000
  C   C1595     1.0  0.70734  0.33832  0.54835  1.0000
  C   C1596     1.0  0.55254  0.32377  0.72767  1.0000
  C   C1597     1.0  0.74102  0.31969  0.91292  1.0000
  H   H1605     1.0  0.50486  0.35038  0.74360  1.0000
  Fe  Fe267     1.0  0.74246  0.33011  0.48484  1.0000
  Fe  Fe268     1.0  0.54636  0.71504  0.26538  1.0000
  S   S533      1.0  0.56698  0.70632  0.28153  1.0000
  S   S534      1.0  0.53917  0.74264  0.25137  1.0000
  Fe  Fe269     1.0  0.53559  0.68013  0.27591  1.0000
  S   S535      1.0  0.55529  0.66832  0.29284  1.0000
  H   H1606     1.0  0.50975  0.81903  0.24396  1.0000
  Fe  Fe270     1.0  0.54677  0.69375  0.30162  1.0000
  S   S536      1.0  0.54261  0.69330  0.33000  1.0000
  Fe  Fe271     1.0  0.57365  0.68177  0.27119  1.0000
  S   S537      1.0  0.60215  0.67065  0.26136  1.0000
  S   S538      1.0  0.52556  0.70440  0.28639  1.0000
  S   S539      1.0  0.55453  0.69164  0.25324  1.0000
  Fe  Fe272     1.0  0.51993  0.81279  0.17049  1.0000
  S   S540      1.0  0.52288  0.82907  0.14382  1.0000
  H   H1607     1.0  0.70835  0.98277  0.19660  1.0000
  Fe  Fe273     1.0  0.54590  0.78252  0.15888  1.0000
  S   S541      1.0  0.55114  0.79629  0.13093  1.0000
  S   S542      1.0  0.55947  0.75576  0.16963  1.0000
  Fe  Fe274     1.0  0.55175  0.81885  0.14223  1.0000
  S   S543      1.0  0.57113  0.83708  0.13265  1.0000
  Fe  Fe275     1.0  0.52168  0.80513  0.13530  1.0000
  H   H1608     1.0  0.51551  0.68568  0.21994  1.0000
  S   S544      1.0  0.54868  0.80430  0.16956  1.0000
  S   S545      1.0  0.51666  0.78969  0.16243  1.0000
  S   S546      1.0  0.70445  0.97354  0.10660  1.0000
  C   C1598     1.0  0.60461  0.67685  0.30397  1.0000
  H   H1609     1.0  0.57005  0.66168  0.33174  1.0000
  N   N134      1.0  0.69183  0.94194  0.34223  1.0000
  S   S547      1.0  0.73080  0.91698  0.29277  1.0000
  C   C1599     1.0  0.50825  0.81602  0.25794  1.0000
  Fe  Fe276     1.0  0.66530  0.89060  0.15597  1.0000
  S   S548      1.0  0.66706  0.86379  0.17281  1.0000
  S   S549      1.0  0.68654  0.89842  0.13345  1.0000
  Fe  Fe277     1.0  0.63148  0.90475  0.17753  1.0000
  S   S550      1.0  0.63042  0.87977  0.19667  1.0000
  S   S551      1.0  0.61087  0.92838  0.18136  1.0000
  Fe  Fe278     1.0  0.65911  0.87801  0.19482  1.0000
  S   S552      1.0  0.67095  0.87083  0.21881  1.0000
  Fe  Fe279     1.0  0.63812  0.86761  0.17316  1.0000
  S   S553      1.0  0.62339  0.84608  0.17553  1.0000
  S   S554      1.0  0.65926  0.90420  0.17795  1.0000
  S   S555      1.0  0.63725  0.89311  0.15410  1.0000
  H   H1610     1.0  0.71399  0.92161  0.26172  1.0000
  H   H1611     1.0  0.58542  0.96482  0.23364  1.0000
  C   C1600     1.0  0.59481  0.77754  0.16885  1.0000
  H   H1612     1.0  0.50615  0.75430  0.10158  1.0000
  C   C1601     1.0  0.63332  0.66164  0.29118  1.0000
  C   C1602     1.0  0.52060  0.86456  0.16771  1.0000
  C   C1603     1.0  0.53784  0.85688  0.16941  1.0000
  C   C1604     1.0  0.58810  0.67713  0.31479  1.0000
  H   H1613     1.0  0.66928  0.95757  0.33286  1.0000
  C   C1605     1.0  0.52439  0.65607  0.25580  1.0000
  C   C1606     1.0  0.56829  0.89811  0.21042  1.0000
  C   C1607     1.0  0.65345  0.91621  0.22760  1.0000
  H   H1614     1.0  0.58757  0.76824  0.17794  1.0000
  H   H1615     1.0  0.68217  0.92647  0.15235  1.0000
  H   H1616     1.0  0.51698  0.69784  0.10660  1.0000
  S   S556      1.0  0.63804  0.95583  0.25043  1.0000
  H   H1617     1.0  0.50313  0.80566  0.30769  1.0000
  C   C1608     1.0  0.64191  0.97347  0.12794  1.0000
  S   S557      1.0  0.54038  0.85407  0.23188  1.0000
  C   C1609     1.0  0.57548  0.95086  0.25893  1.0000
  C   C1610     1.0  0.56362  0.94008  0.26836  1.0000
  H   H1618     1.0  0.56273  0.93566  0.28219  1.0000
  H   H1619     1.0  0.54373  0.92675  0.26755  1.0000
  H   H1620     1.0  0.70883  0.90354  0.16325  1.0000
  S   S558      1.0  0.58913  0.95644  0.26996  1.0000
  C   C1611     1.0  0.60107  0.79555  0.14045  1.0000
  H   H1621     1.0  0.58590  0.91328  0.24910  1.0000
  H   H1622     1.0  0.51370  0.85830  0.16201  1.0000
  H   H1623     1.0  0.70559  0.94670  0.08999  1.0000
  Fe  Fe280     1.0  0.52249  0.87784  0.24009  1.0000
  C   C1612     1.0  0.62603  0.91218  0.22272  1.0000
  H   H1624     1.0  0.60924  0.77939  0.18709  1.0000
  C   C1613     1.0  0.60698  0.78377  0.17395  1.0000
  H   H1625     1.0  0.49761  0.68858  0.24820  1.0000
  H   H1626     1.0  0.63219  0.66985  0.27816  1.0000
  H   H1627     1.0  0.63245  0.91105  0.20957  1.0000
  H   H1628     1.0  0.63384  0.91892  0.25888  1.0000
  C   C1614     1.0  0.59975  0.91346  0.24485  1.0000
  H   H1629     1.0  0.71412  0.92379  0.34983  1.0000
  C   C1615     1.0  0.62154  0.94282  0.18525  1.0000
  C   C1616     1.0  0.61434  0.95104  0.19930  1.0000
  C   C1617     1.0  0.62419  0.96028  0.20419  1.0000
  C   C1618     1.0  0.64104  0.96169  0.19474  1.0000
  C   C1619     1.0  0.64802  0.95392  0.18035  1.0000
  C   C1620     1.0  0.63823  0.94454  0.17558  1.0000
  H   H1630     1.0  0.60149  0.94961  0.20690  1.0000
  N   N135      1.0  0.73192  0.91335  0.15114  1.0000
  H   H1631     1.0  0.66105  0.95499  0.17299  1.0000
  H   H1632     1.0  0.64365  0.93856  0.16442  1.0000
  C   C1621     1.0  0.71874  0.89166  0.21966  1.0000
  C   C1622     1.0  0.71275  0.87873  0.23320  1.0000
  C   C1623     1.0  0.69810  0.87243  0.23279  1.0000
  C   C1624     1.0  0.68951  0.87880  0.21875  1.0000
  C   C1625     1.0  0.69552  0.89173  0.20524  1.0000
  C   C1626     1.0  0.70990  0.89828  0.20582  1.0000
  H   H1633     1.0  0.71936  0.87357  0.24398  1.0000
  H   H1634     1.0  0.69348  0.86249  0.24335  1.0000
  H   H1635     1.0  0.68896  0.89685  0.19444  1.0000
  H   H1636     1.0  0.71408  0.90860  0.19556  1.0000
  N   N136      1.0  0.50525  0.80013  0.26724  1.0000
  C   C1627     1.0  0.72583  0.94516  0.30722  1.0000
  C   C1628     1.0  0.73027  0.95553  0.31624  1.0000
  C   C1629     1.0  0.66948  0.97472  0.29262  1.0000
  H   H1637     1.0  0.69750  0.97161  0.28713  1.0000
  H   H1638     1.0  0.51753  0.77743  0.25721  1.0000
  H   H1639     1.0  0.71272  0.94788  0.30485  1.0000
  H   H1640     1.0  0.72065  0.96620  0.32068  1.0000
  Fe  Fe281     1.0  0.64728  0.97166  0.26399  1.0000
  C   C1630     1.0  0.50476  0.78674  0.25831  1.0000
  C   C1631     1.0  0.58390  0.84107  0.14563  1.0000
  C   C1632     1.0  0.58456  0.83142  0.16239  1.0000
  C   C1633     1.0  0.59627  0.83361  0.17157  1.0000
  C   C1634     1.0  0.60738  0.84555  0.16422  1.0000
  C   C1635     1.0  0.60616  0.85581  0.14779  1.0000
  C   C1636     1.0  0.59452  0.85351  0.13854  1.0000
  H   H1641     1.0  0.57653  0.82181  0.16810  1.0000
  H   H1642     1.0  0.59703  0.82567  0.18432  1.0000
  H   H1643     1.0  0.61468  0.86501  0.14191  1.0000
  H   H1644     1.0  0.59412  0.86108  0.12558  1.0000
  C   C1637     1.0  0.51181  0.83199  0.20338  1.0000
  H   H1645     1.0  0.52393  0.72877  0.21750  1.0000
  C   C1638     1.0  0.51358  0.85479  0.21662  1.0000
  C   C1639     1.0  0.52975  0.84566  0.22048  1.0000
  C   C1640     1.0  0.53709  0.82966  0.21560  1.0000
  C   C1641     1.0  0.52814  0.82286  0.20694  1.0000
  H   H1646     1.0  0.68442  0.95099  0.36582  1.0000
  H   H1647     1.0  0.65961  0.91005  0.21621  1.0000
  H   H1648     1.0  0.54958  0.82249  0.21862  1.0000
  H   H1649     1.0  0.53368  0.81037  0.20344  1.0000
  C   C1642     1.0  0.51612  0.70187  0.35663  1.0000
  H   H1650     1.0  0.73997  0.91117  0.17484  1.0000
  C   C1643     1.0  0.49751  0.72957  0.33591  1.0000
  H   H1651     1.0  0.66575  0.97676  0.10928  1.0000
  N   N137      1.0  0.51160  0.70758  0.23155  1.0000
  H   H1652     1.0  0.60832  0.68903  0.29692  1.0000
  C   C1644     1.0  0.68534  0.97702  0.29490  1.0000
  Fe  Fe282     1.0  0.61114  0.97159  0.25816  1.0000
  C   C1645     1.0  0.71121  0.93235  0.25061  1.0000
  H   H1653     1.0  0.60111  0.90994  0.21912  1.0000
  C   C1646     1.0  0.69234  0.95411  0.35258  1.0000
  H   H1654     1.0  0.57923  0.68938  0.31629  1.0000
  H   H1655     1.0  0.69835  0.91766  0.10030  1.0000
  C   C1647     1.0  0.55283  0.93498  0.26008  1.0000
  H   H1656     1.0  0.71114  0.92638  0.23974  1.0000
  H   H1657     1.0  0.66118  0.90949  0.23779  1.0000
  C   C1648     1.0  0.69875  0.95303  0.11529  1.0000
  C   C1649     1.0  0.54570  0.74623  0.22873  1.0000
  C   C1650     1.0  0.53795  0.76161  0.21884  1.0000
  C   C1651     1.0  0.54197  0.76437  0.20074  1.0000
  C   C1652     1.0  0.55407  0.75196  0.19236  1.0000
  C   C1653     1.0  0.56197  0.73660  0.20222  1.0000
  C   C1654     1.0  0.55775  0.73371  0.22041  1.0000
  H   H1658     1.0  0.52859  0.77132  0.22518  1.0000
  H   H1659     1.0  0.53552  0.77609  0.19331  1.0000
  H   H1660     1.0  0.57139  0.72698  0.19580  1.0000
  H   H1661     1.0  0.56396  0.72192  0.22797  1.0000
  C   C1655     1.0  0.50439  0.84776  0.20856  1.0000
  H   H1662     1.0  0.60238  0.91812  0.26890  1.0000
  H   H1663     1.0  0.64125  0.66692  0.29720  1.0000
  C   C1656     1.0  0.62680  0.91664  0.25020  1.0000
  C   C1657     1.0  0.49752  0.68436  0.10536  1.0000
  H   H1664     1.0  0.49918  0.65325  0.25357  1.0000
  C   C1658     1.0  0.73164  0.92253  0.13459  1.0000
  C   C1659     1.0  0.52267  0.70585  0.33879  1.0000
  H   H1665     1.0  0.50865  0.83454  0.29090  1.0000
  H   H1666     1.0  0.65435  0.93013  0.22377  1.0000
  C   C1660     1.0  0.51334  0.71973  0.32840  1.0000
  H   H1667     1.0  0.52327  0.69122  0.36472  1.0000
  H   H1668     1.0  0.51845  0.72308  0.31467  1.0000
  C   C1661     1.0  0.57643  0.95649  0.24107  1.0000
  C   C1662     1.0  0.70057  0.94236  0.10364  1.0000
  C   C1663     1.0  0.69635  0.92592  0.10947  1.0000
  C   C1664     1.0  0.68963  0.92006  0.12697  1.0000
  C   C1665     1.0  0.68721  0.93091  0.13876  1.0000
  H   H1669     1.0  0.49525  0.70822  0.37785  1.0000
  H   H1670     1.0  0.59841  0.80031  0.12747  1.0000
  N   N138      1.0  0.61296  0.80161  0.14556  1.0000
  C   C1666     1.0  0.61615  0.79572  0.16200  1.0000
  C   C1667     1.0  0.62291  0.81387  0.13308  1.0000
  H   H1671     1.0  0.62553  0.80059  0.16608  1.0000
  H   H1672     1.0  0.62701  0.82214  0.13973  1.0000
  H   H1673     1.0  0.63474  0.80670  0.12555  1.0000
  H   H1674     1.0  0.61478  0.82281  0.12399  1.0000
  Fe  Fe283     1.0  0.52183  0.91564  0.24023  1.0000
  C   C1668     1.0  0.51418  0.72419  0.22843  1.0000
  Fe  Fe284     1.0  0.64067  0.97767  0.22754  1.0000
  S   S559      1.0  0.66960  0.96173  0.27825  1.0000
  Fe  Fe285     1.0  0.50076  0.65508  0.16767  1.0000
  H   H1675     1.0  0.74132  0.96631  0.26465  1.0000
  C   C1669     1.0  0.55365  0.94076  0.24225  1.0000
  H   H1676     1.0  0.58256  0.77849  0.14789  1.0000
  H   H1677     1.0  0.69797  0.94024  0.25444  1.0000
  C   C1670     1.0  0.50358  0.79630  0.28486  1.0000
  H   H1678     1.0  0.70603  0.95358  0.35351  1.0000
  N   N139      1.0  0.57347  0.90885  0.19505  1.0000
  C   C1671     1.0  0.58442  0.90214  0.18147  1.0000
  C   C1672     1.0  0.57402  0.88012  0.21244  1.0000
  C   C1673     1.0  0.59042  0.88425  0.18306  1.0000
  C   C1674     1.0  0.58519  0.87317  0.19865  1.0000
  H   H1679     1.0  0.58892  0.91064  0.16942  1.0000
  H   H1680     1.0  0.56985  0.87162  0.22464  1.0000
  H   H1681     1.0  0.59938  0.87908  0.17236  1.0000
  H   H1682     1.0  0.58999  0.85925  0.20011  1.0000
  H   H1683     1.0  0.68716  0.96771  0.34651  1.0000
  C   C1675     1.0  0.73904  0.93731  0.12829  1.0000
  S   S560      1.0  0.50089  0.82454  0.19155  1.0000
  C   C1676     1.0  0.49913  0.71374  0.09032  1.0000
  H   H1684     1.0  0.55976  0.85827  0.17929  1.0000
  S   S561      1.0  0.49628  0.65300  0.19638  1.0000
  S   S562      1.0  0.51595  0.66601  0.27364  1.0000
  C   C1677     1.0  0.70380  0.91514  0.33234  1.0000
  S   S563      1.0  0.50088  0.80971  0.11918  1.0000
  C   C1678     1.0  0.50446  0.73545  0.23946  1.0000
  C   C1679     1.0  0.58298  0.66154  0.32352  1.0000
  H   H1685     1.0  0.50145  0.78361  0.29216  1.0000
  H   H1686     1.0  0.59152  0.65520  0.23248  1.0000
  C   C1680     1.0  0.50024  0.71149  0.36406  1.0000
  N   N140      1.0  0.72443  0.94316  0.24601  1.0000
  H   H1687     1.0  0.71395  0.90353  0.33175  1.0000
  H   H1688     1.0  0.62256  0.65302  0.21776  1.0000
  N   N141      1.0  0.61586  0.66144  0.30214  1.0000
  H   H1689     1.0  0.69039  0.95556  0.14204  1.0000
  H   H1690     1.0  0.61876  0.96610  0.21541  1.0000
  C   C1681     1.0  0.60826  0.91153  0.22808  1.0000
  H   H1691     1.0  0.63823  0.96546  0.12114  1.0000
  H   H1692     1.0  0.66905  0.93792  0.31419  1.0000
  H   H1693     1.0  0.54428  0.84501  0.16479  1.0000
  C   C1682     1.0  0.60903  0.91607  0.25600  1.0000
  H   H1694     1.0  0.49609  0.87524  0.32163  1.0000
  C   C1683     1.0  0.65736  0.97976  0.12130  1.0000
  H   H1695     1.0  0.73373  0.93849  0.22028  1.0000
  S   S564      1.0  0.52510  0.89096  0.26021  1.0000
  N   N142      1.0  0.63508  0.91463  0.23375  1.0000
  C   C1684     1.0  0.70389  0.92671  0.34244  1.0000
  H   H1696     1.0  0.50668  0.74853  0.23711  1.0000
  C   C1685     1.0  0.56551  0.95155  0.23282  1.0000
  H   H1697     1.0  0.57175  0.93224  0.20292  1.0000
  C   C1686     1.0  0.56729  0.92763  0.19333  1.0000
  H   H1698     1.0  0.55971  0.90343  0.22123  1.0000
  H   H1699     1.0  0.55276  0.93093  0.19567  1.0000
  N   N143      1.0  0.51238  0.87947  0.17361  1.0000
  C   C1687     1.0  0.69200  0.94733  0.13294  1.0000
  C   C1688     1.0  0.67904  0.94568  0.33276  1.0000
  C   C1689     1.0  0.59192  0.78336  0.15197  1.0000
  H   H1700     1.0  0.72547  0.91858  0.12622  1.0000
  C   C1690     1.0  0.69127  0.91921  0.32205  1.0000
  H   H1701     1.0  0.57246  0.93491  0.18030  1.0000
  C   C1691     1.0  0.72637  0.95100  0.25824  1.0000
  C   C1692     1.0  0.52077  0.88685  0.18168  1.0000
  H   H1702     1.0  0.51399  0.89834  0.18689  1.0000
  H   H1703     1.0  0.50828  0.86753  0.21937  1.0000
  S   S565      1.0  0.54042  0.93481  0.23102  1.0000
  H   H1704     1.0  0.56617  0.95629  0.21906  1.0000
  H   H1705     1.0  0.52647  0.70264  0.20693  1.0000
  S   S566      1.0  0.52152  0.90184  0.21962  1.0000
  C   C1693     1.0  0.50405  0.77812  0.10988  1.0000
  C   C1694     1.0  0.53799  0.87943  0.18371  1.0000
  C   C1695     1.0  0.54655  0.86436  0.17750  1.0000
  C   C1696     1.0  0.67871  0.93451  0.32233  1.0000
  C   C1697     1.0  0.73965  0.91842  0.16172  1.0000
  C   C1698     1.0  0.50947  0.82862  0.26630  1.0000
  S   S567      1.0  0.65343  0.97308  0.20086  1.0000
  C   C1699     1.0  0.72283  0.89874  0.15786  1.0000
  H   H1706     1.0  0.50507  0.72504  0.08724  1.0000
  C   C1700     1.0  0.50581  0.69852  0.10111  1.0000
  H   H1707     1.0  0.51685  0.77441  0.11319  1.0000
  H   H1708     1.0  0.53454  0.68887  0.22562  1.0000
  C   C1701     1.0  0.50462  0.80865  0.29367  1.0000
  H   H1709     1.0  0.54448  0.88503  0.19048  1.0000
  C   C1702     1.0  0.63140  0.97729  0.14351  1.0000
  C   C1703     1.0  0.49958  0.70176  0.24560  1.0000
  H   H1710     1.0  0.61954  0.97215  0.14900  1.0000
  C   C1704     1.0  0.52255  0.69564  0.22045  1.0000
  C   C1705     1.0  0.73498  0.94505  0.22986  1.0000
  H   H1711     1.0  0.69163  0.91074  0.31352  1.0000
  H   H1712     1.0  0.71803  0.94940  0.27103  1.0000
  C   C1706     1.0  0.73796  0.93087  0.30191  1.0000
  H   H1713     1.0  0.72875  0.88906  0.16821  1.0000
  C   C1707     1.0  0.50767  0.82487  0.28427  1.0000
  C   C1708     1.0  0.51304  0.65135  0.24814  1.0000
  S   S568      1.0  0.73946  0.87892  0.26919  1.0000
  S   S569      1.0  0.73719  0.89987  0.21947  1.0000
  H   H1714     1.0  0.72333  0.89190  0.14744  1.0000
  C   C1709     1.0  0.54229  0.65373  0.24860  1.0000
  C   C1710     1.0  0.49794  0.76674  0.10328  1.0000
  H   H1715     1.0  0.50199  0.79243  0.24512  1.0000
  H   H1716     1.0  0.51192  0.84118  0.25888  1.0000
  H   H1717     1.0  0.55113  0.65701  0.25473  1.0000
  H   H1718     1.0  0.50254  0.67277  0.11414  1.0000
  H   H1719     1.0  0.73839  0.94479  0.11529  1.0000
  H   H1720     1.0  0.63673  0.65119  0.25255  1.0000
  S   S570      1.0  0.49507  0.68132  0.15051  1.0000
  C   C1711     1.0  0.65377  0.98200  0.30253  1.0000
  H   H1721     1.0  0.64148  0.98001  0.30109  1.0000
  C   C1712     1.0  0.73946  0.96065  0.25466  1.0000
  H   H1722     1.0  0.49517  0.84673  0.34138  1.0000
  Fe  Fe286     1.0  0.49561  0.89596  0.26592  1.0000
  H   H1723     1.0  0.75164  0.03660  0.22424  1.0000
  H   H1724     1.0  0.75337  0.16715  0.38614  1.0000
  C   C1713     1.0  0.78722  0.11704  0.38253  1.0000
  H   H1725     1.0  0.78265  0.04395  0.25668  1.0000
  H   H1726     1.0  0.75961  0.04737  0.18225  1.0000
  H   H1727     1.0  0.76096  0.08007  0.99626  1.0000
  S   S571      1.0  0.82237  0.00706  0.20916  1.0000
  S   S572      1.0  0.77341  0.00219  0.21631  1.0000
  Fe  Fe287     1.0  0.82297  0.01211  0.23496  1.0000
  S   S573      1.0  0.82000  0.04010  0.23659  1.0000
  C   C1714     1.0  0.77515  0.06889  0.03377  1.0000
  H   H1728     1.0  0.78429  0.09784  0.26550  1.0000
  S   S574      1.0  0.84180  0.21039  0.00947  1.0000
  H   H1729     1.0  0.77182  0.23008  0.40424  1.0000
  C   C1715     1.0  0.76020  0.25625  0.12374  1.0000
  N   N144      1.0  0.80637  0.31513  0.02562  1.0000
  C   C1716     1.0  0.75533  0.05658  0.26110  1.0000
  C   C1717     1.0  0.77586  0.01503  0.30738  1.0000
  C   C1718     1.0  0.83780  0.29100  0.05719  1.0000
  C   C1719     1.0  0.76050  0.05252  0.02218  1.0000
  H   H1730     1.0  0.78711  0.10798  0.01666  1.0000
  H   H1731     1.0  0.75588  0.16695  0.00882  1.0000
  C   C1720     1.0  0.76064  0.10257  0.23472  1.0000
  N   N145      1.0  0.76752  0.06789  0.02090  1.0000
  C   C1721     1.0  0.86378  0.26132  0.45904  1.0000
  C   C1722     1.0  0.76861  0.03114  0.15647  1.0000
  Fe  Fe288     1.0  0.81655  0.21833  0.99988  1.0000
  H   H1732     1.0  0.85173  0.29886  0.03113  1.0000
  Fe  Fe289     1.0  0.81443  0.09115  0.30393  1.0000
  S   S575      1.0  0.81704  0.11818  0.28928  1.0000
  S   S576      1.0  0.83291  0.06620  0.29858  1.0000
  Fe  Fe290     1.0  0.77900  0.10389  0.32522  1.0000
  S   S577      1.0  0.77839  0.13153  0.31225  1.0000
  Fe  Fe291     1.0  0.78890  0.12134  0.28770  1.0000
  Fe  Fe292     1.0  0.80629  0.12586  0.31538  1.0000
  S   S578      1.0  0.81341  0.14703  0.32439  1.0000
  S   S579      1.0  0.78715  0.09396  0.30061  1.0000
  S   S580      1.0  0.80614  0.09852  0.33019  1.0000
  Fe  Fe293     1.0  0.82773  0.18285  0.43827  1.0000
  S   S581      1.0  0.80780  0.20700  0.43219  1.0000
  S   S582      1.0  0.83955  0.17828  0.46207  1.0000
  Fe  Fe294     1.0  0.81958  0.16602  0.41182  1.0000
  S   S583      1.0  0.79872  0.18872  0.40451  1.0000
  S   S584      1.0  0.82583  0.14241  0.39958  1.0000
  Fe  Fe295     1.0  0.81789  0.20443  0.40444  1.0000
  S   S585      1.0  0.82024  0.22762  0.38273  1.0000
  Fe  Fe296     1.0  0.79051  0.18915  0.43272  1.0000
  S   S586      1.0  0.76191  0.19570  0.44450  1.0000
  S   S587      1.0  0.83962  0.18169  0.41023  1.0000
  S   S588      1.0  0.80962  0.16490  0.44041  1.0000
  S   S589      1.0  0.79991  0.00016  0.24940  1.0000
  H   H1733     1.0  0.76938  0.24458  0.12779  1.0000
  C   C1723     1.0  0.79898  0.16350  0.98972  1.0000
  C   C1724     1.0  0.83709  0.26084  0.04628  1.0000
  H   H1734     1.0  0.79419  0.24316  0.40973  1.0000
  S   S590      1.0  0.78268  0.27408  0.12913  1.0000
  C   C1725     1.0  0.80078  0.23429  0.37471  1.0000
  C   C1726     1.0  0.79370  0.22218  0.37052  1.0000
  C   C1727     1.0  0.77676  0.22675  0.36707  1.0000
  H   H1735     1.0  0.82038  0.27876  0.46143  1.0000
  C   C1728     1.0  0.77418  0.25576  0.37131  1.0000
  C   C1729     1.0  0.79131  0.25131  0.37432  1.0000
  H   H1736     1.0  0.80116  0.20919  0.37020  1.0000
  H   H1737     1.0  0.77122  0.21726  0.36414  1.0000
  N   N146      1.0  0.74900  0.24450  0.44053  1.0000
  H   H1738     1.0  0.79679  0.26080  0.37734  1.0000
  C   C1730     1.0  0.81494  0.14498  0.34611  1.0000
  C   C1731     1.0  0.82330  0.12949  0.35530  1.0000
  C   C1732     1.0  0.82645  0.12889  0.37172  1.0000
  C   C1733     1.0  0.82101  0.14364  0.37920  1.0000
  C   C1734     1.0  0.81224  0.15901  0.37018  1.0000
  C   C1735     1.0  0.80942  0.15971  0.35361  1.0000
  H   H1739     1.0  0.82787  0.11813  0.34952  1.0000
  H   H1740     1.0  0.83328  0.11695  0.37858  1.0000
  H   H1741     1.0  0.80806  0.17049  0.37571  1.0000
  H   H1742     1.0  0.80313  0.17180  0.34648  1.0000
  C   C1736     1.0  0.78178  0.09661  0.01786  1.0000
  C   C1737     1.0  0.78001  0.22477  0.06975  1.0000
  C   C1738     1.0  0.80222  0.17817  0.99367  1.0000
  C   C1739     1.0  0.85576  0.28576  0.47233  1.0000
  C   C1740     1.0  0.75856  0.16647  0.43577  1.0000
  H   H1743     1.0  0.75418  0.14412  0.23994  1.0000
  S   S591      1.0  0.74501  0.04220  0.09213  1.0000
  H   H1744     1.0  0.85437  0.16451  0.37657  1.0000
  H   H1745     1.0  0.77205  0.16132  0.43698  1.0000
  H   H1746     1.0  0.75551  0.14354  0.42903  1.0000
  C   C1741     1.0  0.78921  0.29431  0.42254  1.0000
  C   C1742     1.0  0.86967  0.21319  0.45844  1.0000
  C   C1743     1.0  0.85938  0.20380  0.45411  1.0000
  C   C1744     1.0  0.85135  0.19157  0.46691  1.0000
  C   C1745     1.0  0.78359  0.30200  0.40690  1.0000
  C   C1746     1.0  0.85293  0.16289  0.35088  1.0000
  H   H1747     1.0  0.87651  0.22197  0.44829  1.0000
  H   H1748     1.0  0.85828  0.20549  0.44079  1.0000
  H   H1749     1.0  0.77580  0.14382  0.47450  1.0000
  Fe  Fe297     1.0  0.81590  0.31619  0.08663  1.0000
  C   C1747     1.0  0.77696  0.29030  0.43772  1.0000
  C   C1748     1.0  0.76580  0.30524  0.40645  1.0000
  N   N147      1.0  0.79151  0.02021  0.30385  1.0000
  H   H1750     1.0  0.77427  0.10540  0.99307  1.0000
  S   S592      1.0  0.75343  0.10454  0.43036  1.0000
  C   C1749     1.0  0.75522  0.27388  0.98491  1.0000
  C   C1750     1.0  0.83070  0.08371  0.22224  1.0000
  C   C1751     1.0  0.75879  0.13021  0.24205  1.0000
  C   C1752     1.0  0.75192  0.28756  0.11774  1.0000
  N   N148      1.0  0.81511  0.09329  0.21829  1.0000
  S   S593      1.0  0.83593  0.24172  0.04036  1.0000
  C   C1753     1.0  0.79180  0.03802  0.30446  1.0000
  S   S594      1.0  0.79220  0.30621  0.08787  1.0000
  H   H1751     1.0  0.77226  0.02327  0.16839  1.0000
  H   H1752     1.0  0.78451  0.07538  0.36527  1.0000
  C   C1754     1.0  0.77565  0.10416  0.25660  1.0000
  Fe  Fe298     1.0  0.85457  0.22140  0.98213  1.0000
  C   C1755     1.0  0.83918  0.08914  0.23238  1.0000
  S   S595      1.0  0.81498  0.30824  0.11549  1.0000
  S   S596      1.0  0.77730  0.13484  0.26405  1.0000
  C   C1756     1.0  0.77528  0.99825  0.30643  1.0000
  H   H1753     1.0  0.87368  0.25088  0.45434  1.0000
  C   C1757     1.0  0.75408  0.05739  0.14107  1.0000
  C   C1758     1.0  0.80682  0.00911  0.29894  1.0000
  C   C1759     1.0  0.78226  0.15939  0.99511  1.0000
  H   H1754     1.0  0.85092  0.27234  0.02148  1.0000
  H   H1755     1.0  0.79935  0.07591  0.21850  1.0000
  H   H1756     1.0  0.83617  0.07132  0.21833  1.0000
  H   H1757     1.0  0.80707  0.27295  0.02738  1.0000
  C   C1760     1.0  0.85039  0.17148  0.36447  1.0000
  H   H1758     1.0  0.78025  0.06227  0.38669  1.0000
  Fe  Fe299     1.0  0.78993  0.30008  0.11650  1.0000
  C   C1761     1.0  0.76714  0.08079  0.00641  1.0000
  H   H1759     1.0  0.77043  0.04315  0.01517  1.0000
  C   C1762     1.0  0.75431  0.00103  0.19339  1.0000
  S   S597      1.0  0.79214  0.20675  0.00932  1.0000
  C   C1763     1.0  0.82279  0.04597  0.25500  1.0000
  C   C1764     1.0  0.81427  0.06243  0.25818  1.0000
  C   C1765     1.0  0.81752  0.06866  0.27137  1.0000
  C   C1766     1.0  0.82898  0.05830  0.28191  1.0000
  C   C1767     1.0  0.83728  0.04157  0.27907  1.0000
  C   C1768     1.0  0.83418  0.03538  0.26562  1.0000
  H   H1760     1.0  0.80552  0.07068  0.25004  1.0000
  H   H1761     1.0  0.81156  0.08173  0.27302  1.0000
  H   H1762     1.0  0.84632  0.03353  0.28711  1.0000
  H   H1763     1.0  0.84101  0.02272  0.26312  1.0000
  C   C1769     1.0  0.80672  0.99221  0.29788  1.0000
  H   H1764     1.0  0.80368  0.03855  0.30879  1.0000
  S   S598      1.0  0.83742  0.31033  0.06366  1.0000
  C   C1770     1.0  0.76672  0.24333  0.36816  1.0000
  H   H1765     1.0  0.78027  0.04350  0.31372  1.0000
  H   H1766     1.0  0.81457  0.08085  0.19836  1.0000
  C   C1771     1.0  0.77760  0.07563  0.37888  1.0000
  H   H1767     1.0  0.75116  0.26310  0.99476  1.0000
  C   C1772     1.0  0.77206  0.18457  0.00853  1.0000
  C   C1773     1.0  0.76880  0.17001  0.00450  1.0000
  H   H1768     1.0  0.79534  0.11604  0.22101  1.0000
  H   H1769     1.0  0.74867  0.07639  0.07321  1.0000
  C   C1774     1.0  0.75952  0.05097  0.12577  1.0000
  H   H1770     1.0  0.77247  0.23408  0.07769  1.0000
  N   N149      1.0  0.78306  0.08811  0.38559  1.0000
  C   C1775     1.0  0.78847  0.08326  0.40107  1.0000
  C   C1776     1.0  0.83379  0.27693  0.46293  1.0000
  C   C1777     1.0  0.79383  0.09514  0.40745  1.0000
  C   C1778     1.0  0.75119  0.99509  0.17986  1.0000
  C   C1779     1.0  0.79313  0.11214  0.39813  1.0000
  H   H1771     1.0  0.75557  0.05873  0.11392  1.0000
  C   C1780     1.0  0.77442  0.09523  0.00461  1.0000
  H   H1772     1.0  0.80946  0.15534  0.98243  1.0000
  H   H1773     1.0  0.79808  0.09130  0.41976  1.0000
  H   H1774     1.0  0.74963  0.29108  0.44912  1.0000
  H   H1775     1.0  0.79713  0.12150  0.40303  1.0000
  H   H1776     1.0  0.82868  0.29878  0.47529  1.0000
  C   C1781     1.0  0.78876  0.18870  0.00318  1.0000
  C   C1782     1.0  0.75362  0.30092  0.42159  1.0000
  N   N150      1.0  0.84733  0.17144  0.33586  1.0000
  C   C1783     1.0  0.83937  0.18860  0.33385  1.0000
  H   H1777     1.0  0.81516  0.18122  0.98955  1.0000
  C   C1784     1.0  0.83669  0.19760  0.34716  1.0000
  C   C1785     1.0  0.75916  0.29381  0.43730  1.0000
  H   H1778     1.0  0.76614  0.18943  0.39198  1.0000
  C   C1786     1.0  0.85068  0.16241  0.32152  1.0000
  H   H1779     1.0  0.83494  0.19538  0.32194  1.0000
  H   H1780     1.0  0.81066  0.31494  0.98321  1.0000
  H   H1781     1.0  0.83029  0.21119  0.34567  1.0000
  H   H1782     1.0  0.84039  0.16769  0.31359  1.0000
  H   H1783     1.0  0.77332  0.02895  0.11430  1.0000
  C   C1787     1.0  0.80898  0.29263  0.00397  1.0000
  C   C1788     1.0  0.75275  0.04218  0.23460  1.0000
  S   S599      1.0  0.77827  0.14121  0.98972  1.0000
  H   H1784     1.0  0.75656  0.04606  0.03592  1.0000
  H   H1785     1.0  0.76288  0.99409  0.30945  1.0000
  H   H1786     1.0  0.80295  0.29184  0.42291  1.0000
  H   H1787     1.0  0.74603  0.07027  0.14084  1.0000
  H   H1788     1.0  0.79174  0.04644  0.29141  1.0000
  H   H1789     1.0  0.78030  0.03163  0.23252  1.0000
  C   C1789     1.0  0.76954  0.03425  0.12599  1.0000
  H   H1790     1.0  0.76062  0.19662  0.04723  1.0000
  H   H1791     1.0  0.78112  0.18230  0.04208  1.0000
  C   C1790     1.0  0.75037  0.18302  0.43892  1.0000
  Fe  Fe300     1.0  0.74988  0.13891  0.99636  1.0000
  C   C1791     1.0  0.80718  0.28654  0.02182  1.0000
  H   H1792     1.0  0.76283  0.17377  0.47930  1.0000
  H   H1793     1.0  0.79503  0.09648  0.20405  1.0000
  C   C1792     1.0  0.84554  0.28885  0.04014  1.0000
  C   C1793     1.0  0.75402  0.12041  0.23261  1.0000
  C   C1794     1.0  0.79899  0.20078  0.04962  1.0000
  S   S600      1.0  0.81072  0.24491  0.00584  1.0000
  C   C1795     1.0  0.80748  0.21202  0.05338  1.0000
  C   C1796     1.0  0.80558  0.08635  0.20930  1.0000
  N   N151      1.0  0.78142  0.20157  0.05574  1.0000
  C   C1797     1.0  0.80783  0.10854  0.22388  1.0000
  C   C1798     1.0  0.75241  0.19211  0.39135  1.0000
  H   H1794     1.0  0.78845  0.07023  0.40869  1.0000
  H   H1795     1.0  0.82139  0.21143  0.04841  1.0000
  H   H1796     1.0  0.77668  0.08079  0.24825  1.0000
  C   C1799     1.0  0.79791  0.22412  0.06346  1.0000
  C   C1800     1.0  0.76524  0.31324  0.04528  1.0000
  Fe  Fe301     1.0  0.83678  0.23783  0.01351  1.0000
  C   C1801     1.0  0.88624  0.27017  0.46860  1.0000
  H   H1797     1.0  0.76664  0.26871  0.37183  1.0000
  C   C1802     1.0  0.82977  0.26287  0.06338  1.0000
  C   C1803     1.0  0.76973  0.12212  0.25398  1.0000
  S   S601      1.0  0.75718  0.09025  0.22140  1.0000
  H   H1798     1.0  0.82384  0.25277  0.07258  1.0000
  C   C1804     1.0  0.74862  0.08331  0.33484  1.0000
  H   H1799     1.0  0.82689  0.22318  0.47512  1.0000
  C   C1805     1.0  0.74920  0.15641  0.43128  1.0000
  Fe  Fe302     1.0  0.75206  0.09870  0.45911  1.0000
  C   C1806     1.0  0.83163  0.10447  0.23845  1.0000
  S   S602      1.0  0.75643  0.09546  0.34505  1.0000
  C   C1807     1.0  0.77135  0.09449  0.24678  1.0000
  S   S603      1.0  0.78359  0.28226  0.45754  1.0000
  H   H1800     1.0  0.80975  0.12611  0.23899  1.0000
  H   H1801     1.0  0.74850  0.05619  0.01658  1.0000
  N   N152      1.0  0.75862  0.04749  0.15615  1.0000
  H   H1802     1.0  0.76155  0.19265  0.01587  1.0000
  H   H1803     1.0  0.76329  0.07943  0.37926  1.0000
  H   H1804     1.0  0.81922  0.01323  0.29595  1.0000
  H   H1805     1.0  0.77540  0.05868  0.04529  1.0000
  H   H1806     1.0  0.75447  0.30011  0.11728  1.0000
  S   S604      1.0  0.84293  0.98779  0.24131  1.0000
  C   C1808     1.0  0.78217  0.08336  0.03256  1.0000
  H   H1807     1.0  0.80472  0.29314  0.04636  1.0000
  S   S605      1.0  0.77490  0.09711  0.47144  1.0000
  C   C1809     1.0  0.84228  0.18896  0.36252  1.0000
  H   H1808     1.0  0.78787  0.25580  0.43579  1.0000
  H   H1809     1.0  0.82433  0.27921  0.08203  1.0000
  H   H1810     1.0  0.75167  0.06820  0.16982  1.0000
  C   C1810     1.0  0.81593  0.11432  0.23407  1.0000
  C   C1811     1.0  0.82998  0.27791  0.06877  1.0000
  C   C1812     1.0  0.76891  0.23628  0.41523  1.0000
  C   C1813     1.0  0.84504  0.27387  0.03463  1.0000
  H   H1811     1.0  0.83773  0.10852  0.24685  1.0000
  H   H1812     1.0  0.75646  0.06239  0.27130  1.0000
  N   N153      1.0  0.86810  0.27225  0.46691  1.0000
  H   H1813     1.0  0.81008  0.28387  0.99550  1.0000
  C   C1814     1.0  0.75168  0.05410  0.17222  1.0000
  H   H1814     1.0  0.85034  0.14841  0.32641  1.0000
  C   C1815     1.0  0.84658  0.26344  0.45699  1.0000
  H   H1815     1.0  0.80652  0.19162  0.04153  1.0000
  H   H1816     1.0  0.86364  0.16373  0.31311  1.0000
  C   C1816     1.0  0.76884  0.03921  0.23940  1.0000
  H   H1817     1.0  0.85900  0.14923  0.35261  1.0000
  C   C1817     1.0  0.83840  0.28817  0.47068  1.0000
  C   C1818     1.0  0.77413  0.02422  0.14144  1.0000
  H   H1818     1.0  0.76907  0.28105  0.00070  1.0000
  H   H1819     1.0  0.77773  0.10860  0.36422  1.0000
  C   C1819     1.0  0.80594  0.29803  0.03251  1.0000
  H   H1820     1.0  0.85112  0.08111  0.23614  1.0000
  Fe  Fe303     1.0  0.77376  0.30538  0.46978  1.0000
  H   H1821     1.0  0.89321  0.25641  0.46955  1.0000
  H   H1822     1.0  0.78780  0.08433  0.04298  1.0000
  C   C1820     1.0  0.77268  0.18946  0.05213  1.0000
  H   H1823     1.0  0.78158  0.01104  0.14188  1.0000
  H   H1824     1.0  0.76905  0.17991  0.06414  1.0000
  C   C1821     1.0  0.87154  0.21088  0.47566  1.0000
  C   C1822     1.0  0.78226  0.10477  0.37639  1.0000
  H   H1825     1.0  0.84026  0.19582  0.37290  1.0000
  C   C1823     1.0  0.76374  0.27251  0.12306  1.0000
  C   C1824     1.0  0.76989  0.99413  0.19960  1.0000
  H   H1826     1.0  0.76373  0.02382  0.31113  1.0000
  H   H1827     1.0  0.79510  0.23363  0.47550  1.0000
  C   C1825     1.0  0.74740  0.08911  0.31740  1.0000
  C   C1826     1.0  0.76151  0.25105  0.44406  1.0000
  H   H1828     1.0  0.89332  0.27828  0.45727  1.0000
  H   H1829     1.0  0.76874  0.29934  0.04623  1.0000
  H   H1830     1.0  0.75010  0.10171  0.31055  1.0000
  H   H1831     1.0  0.79298  0.30534  0.39514  1.0000
  C   C1827     1.0  0.78150  0.24348  0.41838  1.0000
  H   H1832     1.0  0.75417  0.05177  0.38534  1.0000
  C   C1828     1.0  0.77194  0.21329  0.06578  1.0000
  H   H1833     1.0  0.78668  0.13022  0.37515  1.0000
  C   C1829     1.0  0.77793  0.25063  0.43303  1.0000
  C   C1830     1.0  0.77014  0.04620  0.25292  1.0000
  H   H1834     1.0  0.84323  0.25466  0.45082  1.0000
  H   H1835     1.0  0.74579  0.12679  0.22325  1.0000
  H   H1836     1.0  0.76484  0.31166  0.07211  1.0000
  H   H1837     1.0  0.75881  0.25677  0.45537  1.0000
  H   H1838     1.0  0.75804  0.21376  0.07075  1.0000
  C   C1831     1.0  0.75263  0.23690  0.42649  1.0000
  H   H1839     1.0  0.80442  0.23295  0.06635  1.0000
  S   S606      1.0  0.85141  0.24826  0.98691  1.0000
  S   S607      1.0  0.76323  0.31551  0.01179  1.0000
  C   C1832     1.0  0.80939  0.31009  0.99705  1.0000
  Fe  Fe304     1.0  0.80000  0.99412  0.22393  1.0000
  C   C1833     1.0  0.76539  0.28382  0.98820  1.0000
  H   H1840     1.0  0.83574  0.14137  0.47810  1.0000
  S   S608      1.0  0.75860  0.31516  0.38716  1.0000
  S   S609      1.0  0.74566  0.06745  0.41510  1.0000
  H   H1841     1.0  0.85935  0.29480  0.47794  1.0000
  C   C1834     1.0  0.79083  0.98675  0.30174  1.0000
  C   C1835     1.0  0.78306  0.15076  0.47906  1.0000
  H   H1842     1.0  0.74737  0.21761  0.39663  1.0000
  C   C1836     1.0  0.74529  0.17967  0.38792  1.0000
  H   H1843     1.0  0.76044  0.20431  0.56560  1.0000
  C   C1837     1.0  0.80981  0.28093  0.80471  1.0000
  S   S610      1.0  0.81416  0.27566  0.96040  1.0000
  H   H1844     1.0  0.78115  0.19572  0.59516  1.0000
  C   C1838     1.0  0.83298  0.29995  0.81953  1.0000
  H   H1845     1.0  0.98876  0.19842  0.75462  1.0000
  C   C1839     1.0  0.75207  0.29898  0.55670  1.0000
  Fe  Fe305     1.0  0.89556  0.22947  0.53932  1.0000
  Fe  Fe306     1.0  0.95847  0.13771  0.74805  1.0000
  S   S611      1.0  0.95249  0.16542  0.75065  1.0000
  S   S612      1.0  0.93918  0.12488  0.74258  1.0000
  Fe  Fe307     1.0  0.96263  0.15553  0.77534  1.0000
  S   S613      1.0  0.94758  0.16808  0.79801  1.0000
  S   S614      1.0  0.91364  0.21740  0.55855  1.0000
  S   S615      1.0  0.96614  0.12754  0.77416  1.0000
  Fe  Fe308     1.0  0.96884  0.25339  0.85514  1.0000
  S   S616      1.0  0.95990  0.23934  0.83955  1.0000
  H   H1846     1.0  0.81838  0.26761  0.86126  1.0000
  Fe  Fe309     1.0  0.95173  0.23295  0.88942  1.0000
  S   S617      1.0  0.94206  0.21668  0.87665  1.0000
  S   S618      1.0  0.94395  0.23535  0.91755  1.0000
  Fe  Fe310     1.0  0.96832  0.21538  0.85844  1.0000
  C   C1840     1.0  0.96662  0.28790  0.68683  1.0000
  Fe  Fe311     1.0  0.93447  0.24182  0.85876  1.0000
  S   S619      1.0  0.90778  0.24834  0.85241  1.0000
  S   S620      1.0  0.97912  0.22926  0.87306  1.0000
  S   S621      1.0  0.94241  0.25823  0.87243  1.0000
  S   S622      1.0  0.78067  0.27026  0.88460  1.0000
  Fe  Fe312     1.0  0.76705  0.16778  0.57178  1.0000
  S   S623      1.0  0.78035  0.13987  0.57474  1.0000
  C   C1841     1.0  0.80838  0.25492  0.82708  1.0000
  Fe  Fe313     1.0  0.78816  0.17716  0.53587  1.0000
  S   S624      1.0  0.80369  0.15008  0.53571  1.0000
  S   S625      1.0  0.79254  0.20057  0.51542  1.0000
  Fe  Fe314     1.0  0.77741  0.14257  0.54726  1.0000
  S   S626      1.0  0.76353  0.12490  0.54026  1.0000
  Fe  Fe315     1.0  0.80515  0.15016  0.56316  1.0000
  S   S627      1.0  0.82892  0.14035  0.57594  1.0000
  S   S628      1.0  0.76198  0.16991  0.54551  1.0000
  S   S629      1.0  0.79173  0.17781  0.56203  1.0000
  Fe  Fe316     1.0  0.88561  0.16281  0.66670  1.0000
  S   S630      1.0  0.86320  0.18543  0.66318  1.0000
  S   S631      1.0  0.88563  0.14388  0.69221  1.0000
  Fe  Fe317     1.0  0.90537  0.17291  0.63036  1.0000
  S   S632      1.0  0.88533  0.19673  0.62386  1.0000
  S   S633      1.0  0.93058  0.16621  0.61200  1.0000
  Fe  Fe318     1.0  0.88432  0.20057  0.65042  1.0000
  S   S634      1.0  0.88338  0.22693  0.65506  1.0000
  Fe  Fe319     1.0  0.86600  0.17941  0.63692  1.0000
  S   S635      1.0  0.84264  0.18403  0.62427  1.0000
  S   S636      1.0  0.90646  0.17839  0.65566  1.0000
  S   S637      1.0  0.88634  0.15515  0.64167  1.0000
  Fe  Fe320     1.0  0.85722  0.23291  0.54077  1.0000
  S   S638      1.0  0.83129  0.22893  0.55708  1.0000
  H   H1847     1.0  0.92046  0.25910  0.62187  1.0000
  S   S639      1.0  0.95183  0.23928  0.63947  1.0000
  Fe  Fe321     1.0  0.97705  0.21960  0.63805  1.0000
  H   H1848     1.0  0.98438  0.16571  0.79797  1.0000
  H   H1849     1.0  0.88967  0.14422  0.57040  1.0000
  C   C1842     1.0  0.97536  0.12727  0.81831  1.0000
  C   C1843     1.0  0.75581  0.11664  0.49599  1.0000
  C   C1844     1.0  0.82429  0.24672  0.81806  1.0000
  H   H1850     1.0  0.89407  0.28978  0.57516  1.0000
  H   H1851     1.0  0.75602  0.08709  0.54154  1.0000
  C   C1845     1.0  0.96026  0.30820  0.77039  1.0000
  C   C1846     1.0  0.92144  0.23040  0.56828  1.0000
  C   C1847     1.0  0.92338  0.24728  0.55997  1.0000
  C   C1848     1.0  0.93165  0.25652  0.56693  1.0000
  H   H1852     1.0  0.91899  0.25303  0.54789  1.0000
  H   H1853     1.0  0.93332  0.26949  0.56025  1.0000
  C   C1849     1.0  0.94512  0.17298  0.62038  1.0000
  C   C1850     1.0  0.96019  0.16153  0.62484  1.0000
  C   C1851     1.0  0.97110  0.16694  0.63258  1.0000
  C   C1852     1.0  0.96716  0.18390  0.63539  1.0000
  C   C1853     1.0  0.95235  0.19540  0.63047  1.0000
  C   C1854     1.0  0.94116  0.18986  0.62332  1.0000
  H   H1854     1.0  0.96310  0.14835  0.62286  1.0000
  C   C1855     1.0  0.75637  0.29132  0.95604  1.0000
  H   H1855     1.0  0.94915  0.20842  0.63269  1.0000
  H   H1856     1.0  0.92933  0.19861  0.62024  1.0000
  C   C1856     1.0  0.88936  0.22537  0.70979  1.0000
  C   C1857     1.0  0.88503  0.24130  0.69871  1.0000
  C   C1858     1.0  0.88307  0.24173  0.68192  1.0000
  C   C1859     1.0  0.88515  0.22626  0.67629  1.0000
  C   C1860     1.0  0.88946  0.21037  0.68740  1.0000
  C   C1861     1.0  0.89193  0.20994  0.70395  1.0000
  H   H1857     1.0  0.88315  0.25327  0.70307  1.0000
  H   H1858     1.0  0.87977  0.25407  0.67335  1.0000
  H   H1859     1.0  0.89118  0.19837  0.68316  1.0000
  H   H1860     1.0  0.89588  0.19759  0.71218  1.0000
  C   C1862     1.0  0.83392  0.15291  0.58834  1.0000
  C   C1863     1.0  0.84555  0.14508  0.59971  1.0000
  C   C1864     1.0  0.84913  0.15464  0.61025  1.0000
  C   C1865     1.0  0.84097  0.17208  0.60956  1.0000
  C   C1866     1.0  0.82986  0.18002  0.59777  1.0000
  C   C1867     1.0  0.82650  0.17056  0.58713  1.0000
  H   H1861     1.0  0.85155  0.13149  0.60063  1.0000
  H   H1862     1.0  0.85768  0.14835  0.61933  1.0000
  H   H1863     1.0  0.82371  0.19359  0.59691  1.0000
  H   H1864     1.0  0.81815  0.17703  0.57801  1.0000
  C   C1868     1.0  0.80326  0.21009  0.52558  1.0000
  C   C1869     1.0  0.79358  0.21995  0.53790  1.0000
  C   C1870     1.0  0.80219  0.22557  0.54781  1.0000
  C   C1871     1.0  0.82047  0.22156  0.54514  1.0000
  C   C1872     1.0  0.83013  0.21187  0.53269  1.0000
  C   C1873     1.0  0.82148  0.20582  0.52319  1.0000
  H   H1865     1.0  0.77945  0.22274  0.54017  1.0000
  H   H1866     1.0  0.79470  0.23295  0.55755  1.0000
  H   H1867     1.0  0.84425  0.20859  0.53072  1.0000
  H   H1868     1.0  0.82888  0.19764  0.51418  1.0000
  C   C1874     1.0  0.76770  0.12045  0.51929  1.0000
  C   C1875     1.0  0.78407  0.11141  0.51222  1.0000
  C   C1876     1.0  0.78620  0.10475  0.49727  1.0000
  H   H1869     1.0  0.86256  0.26560  0.81074  1.0000
  H   H1870     1.0  0.97423  0.30461  0.69909  1.0000
  S   S640      1.0  0.82962  0.22689  0.97241  1.0000
  H   H1871     1.0  0.79487  0.10879  0.51879  1.0000
  H   H1872     1.0  0.75700  0.29245  0.54547  1.0000
  C   C1877     1.0  0.81700  0.30475  0.83057  1.0000
  C   C1878     1.0  0.81922  0.23250  0.48299  1.0000
  H   H1873     1.0  0.76226  0.25039  0.83717  1.0000
  H   H1874     1.0  0.98856  0.27624  0.64867  1.0000
  C   C1879     1.0  0.97753  0.21945  0.57146  1.0000
  H   H1875     1.0  0.94152  0.26979  0.79609  1.0000
  N   N154      1.0  0.84343  0.28401  0.82354  1.0000
  H   H1876     1.0  0.89850  0.22275  0.88601  1.0000
  H   H1877     1.0  0.93005  0.30483  0.71098  1.0000
  N   N155      1.0  0.76656  0.30084  0.95930  1.0000
  H   H1878     1.0  0.94826  0.14620  0.83513  1.0000
  C   C1880     1.0  0.92735  0.22308  0.58390  1.0000
  H   H1879     1.0  0.95588  0.13133  0.85363  1.0000
  S   S641      1.0  0.94827  0.26132  0.59045  1.0000
  H   H1880     1.0  0.89971  0.25699  0.63649  1.0000
  Fe  Fe322     1.0  0.96361  0.25089  0.61222  1.0000
  H   H1881     1.0  0.77217  0.31386  0.93277  1.0000
  S   S642      1.0  0.89166  0.22435  0.73095  1.0000
  H   H1882     1.0  0.90961  0.28120  0.59960  1.0000
  C   C1881     1.0  0.78548  0.17649  0.48716  1.0000
  C   C1882     1.0  0.93799  0.24906  0.58229  1.0000
  Fe  Fe323     1.0  0.86344  0.27486  0.76148  1.0000
  N   N156      1.0  0.96113  0.19455  0.56797  1.0000
  H   H1883     1.0  0.87556  0.27085  0.57213  1.0000
  C   C1883     1.0  0.89259  0.27792  0.58465  1.0000
  C   C1884     1.0  0.96946  0.19143  0.58148  1.0000
  C   C1885     1.0  0.91109  0.25464  0.82992  1.0000
  C   C1886     1.0  0.92552  0.26204  0.82095  1.0000
  S   S643      1.0  0.88525  0.22238  0.48037  1.0000
  H   H1884     1.0  0.92588  0.21004  0.59044  1.0000
  Fe  Fe324     1.0  0.96667  0.25482  0.64768  1.0000
  C   C1887     1.0  0.90027  0.25107  0.82082  1.0000
  H   H1885     1.0  0.93339  0.26558  0.82796  1.0000
  C   C1888     1.0  0.78883  0.26676  0.51600  1.0000
  H   H1886     1.0  0.88916  0.24523  0.82780  1.0000
  C   C1889     1.0  0.92646  0.13063  0.72639  1.0000
  C   C1890     1.0  0.92494  0.14661  0.71459  1.0000
  C   C1891     1.0  0.91311  0.15072  0.70317  1.0000
  C   C1892     1.0  0.90282  0.13884  0.70367  1.0000
  C   C1893     1.0  0.90476  0.12288  0.71523  1.0000
  C   C1894     1.0  0.91648  0.11881  0.72642  1.0000
  H   H1887     1.0  0.93253  0.15588  0.71452  1.0000
  H   H1888     1.0  0.91149  0.16321  0.69446  1.0000
  H   H1889     1.0  0.89686  0.11369  0.71580  1.0000
  H   H1890     1.0  0.91755  0.10646  0.73544  1.0000
  C   C1895     1.0  0.95813  0.17664  0.80956  1.0000
  H   H1891     1.0  0.96161  0.28927  0.87496  1.0000
  S   S644      1.0  0.76719  0.24251  0.93143  1.0000
  C   C1896     1.0  0.97393  0.18794  0.83088  1.0000
  C   C1897     1.0  0.95576  0.19210  0.83243  1.0000
  C   C1898     1.0  0.94789  0.18630  0.82194  1.0000
  H   H1892     1.0  0.94764  0.28901  0.76747  1.0000
  H   H1893     1.0  0.75308  0.29390  0.94340  1.0000
  H   H1894     1.0  0.94771  0.19928  0.84214  1.0000
  H   H1895     1.0  0.93377  0.18907  0.82365  1.0000
  C   C1899     1.0  0.80015  0.26753  0.95247  1.0000
  H   H1896     1.0  0.91370  0.23871  0.62791  1.0000
  H   H1897     1.0  0.80170  0.28583  0.92814  1.0000
  C   C1900     1.0  0.92712  0.31136  0.66689  1.0000
  C   C1901     1.0  0.89538  0.21539  0.95172  1.0000
  C   C1902     1.0  0.90544  0.20749  0.93796  1.0000
  C   C1903     1.0  0.92001  0.21385  0.92711  1.0000
  C   C1904     1.0  0.92497  0.22788  0.93026  1.0000
  C   C1905     1.0  0.91496  0.23577  0.94408  1.0000
  C   C1906     1.0  0.90007  0.22970  0.95465  1.0000
  H   H1898     1.0  0.88831  0.23548  0.61819  1.0000
  H   H1899     1.0  0.92773  0.20751  0.91668  1.0000
  H   H1900     1.0  0.91882  0.24652  0.94671  1.0000
  H   H1901     1.0  0.77777  0.21638  0.84573  1.0000
  Fe  Fe325     1.0  0.77630  0.25680  0.86557  1.0000
  H   H1902     1.0  0.85383  0.19322  0.56660  1.0000
  H   H1903     1.0  0.94036  0.22650  0.60274  1.0000
  C   C1907     1.0  0.83526  0.28661  0.52730  1.0000
  C   C1908     1.0  0.90889  0.25297  0.62485  1.0000
  C   C1909     1.0  0.88228  0.26725  0.58290  1.0000
  N   N157      1.0  0.79921  0.25492  0.50459  1.0000
  C   C1910     1.0  0.98541  0.28233  0.65974  1.0000
  N   N158      1.0  0.87285  0.24423  0.92471  1.0000
  C   C1911     1.0  0.88601  0.25125  0.91310  1.0000
  C   C1912     1.0  0.86863  0.22968  0.92267  1.0000
  C   C1913     1.0  0.89539  0.24363  0.89904  1.0000
  C   C1914     1.0  0.87778  0.22169  0.90876  1.0000
  C   C1915     1.0  0.89122  0.22877  0.89686  1.0000
  C   C1916     1.0  0.86276  0.25257  0.93915  1.0000
  H   H1904     1.0  0.88953  0.26265  0.91480  1.0000
  Fe  Fe326     1.0  0.75540  0.28850  0.88058  1.0000
  H   H1905     1.0  0.90593  0.24910  0.88992  1.0000
  S   S645      1.0  0.75195  0.31726  0.87789  1.0000
  H   H1906     1.0  0.97157  0.29886  0.77416  1.0000
  H   H1907     1.0  0.87005  0.26100  0.94217  1.0000
  H   H1908     1.0  0.85004  0.26039  0.93614  1.0000
  H   H1909     1.0  0.86016  0.24259  0.95106  1.0000
  C   C1917     1.0  0.83722  0.31187  0.50418  1.0000
  C   C1918     1.0  0.81696  0.29124  0.53022  1.0000
  C   C1919     1.0  0.97822  0.20446  0.76382  1.0000
  H   H1910     1.0  0.93743  0.18549  0.57447  1.0000
  C   C1920     1.0  0.77205  0.10715  0.48918  1.0000
  H   H1911     1.0  0.76117  0.19892  0.97407  1.0000
  H   H1912     1.0  0.79019  0.28028  0.50966  1.0000
  H   H1913     1.0  0.80418  0.29423  0.79959  1.0000
  H   H1914     1.0  0.96035  0.31514  0.65717  1.0000
  S   S646      1.0  0.87707  0.20693  0.96477  1.0000
  H   H1915     1.0  0.98603  0.25282  0.91442  1.0000
  S   S647      1.0  0.75274  0.27681  0.85927  1.0000
  H   H1916     1.0  0.78616  0.31550  0.94594  1.0000
  H   H1917     1.0  0.87463  0.20996  0.90739  1.0000
  H   H1918     1.0  0.77477  0.26599  0.51920  1.0000
  N   N159      1.0  0.94742  0.21391  0.77416  1.0000
  C   C1921     1.0  0.80135  0.23827  0.48330  1.0000
  C   C1922     1.0  0.95090  0.21944  0.78727  1.0000
  C   C1923     1.0  0.80874  0.30594  0.51985  1.0000
  N   N160      1.0  0.97562  0.13533  0.83109  1.0000
  S   S648      1.0  0.98619  0.13752  0.73324  1.0000
  H   H1919     1.0  0.87108  0.28089  0.81753  1.0000
  H   H1920     1.0  0.77762  0.25413  0.49426  1.0000
  H   H1921     1.0  0.92504  0.20269  0.78060  1.0000
  S   S649      1.0  0.98176  0.27613  0.84087  1.0000
  N   N161      1.0  0.75882  0.22815  0.83011  1.0000
  N   N162      1.0  0.75950  0.19177  0.95130  1.0000
  H   H1922     1.0  0.91116  0.30167  0.77076  1.0000
  S   S650      1.0  0.75754  0.30464  0.49641  1.0000
  H   H1923     1.0  0.77971  0.20592  0.82807  1.0000
  S   S651      1.0  0.83734  0.28537  0.77758  1.0000
  C   C1924     1.0  0.86066  0.18326  0.72880  1.0000
  C   C1925     1.0  0.86569  0.18503  0.57044  1.0000
  C   C1926     1.0  0.83846  0.27261  0.83847  1.0000
  N   N163      1.0  0.78923  0.17745  0.61693  1.0000
  C   C1927     1.0  0.79805  0.17561  0.62984  1.0000
  C   C1928     1.0  0.78833  0.16322  0.61137  1.0000
  C   C1929     1.0  0.80693  0.15927  0.63697  1.0000
  C   C1930     1.0  0.79714  0.14671  0.61812  1.0000
  C   C1931     1.0  0.80659  0.14478  0.63092  1.0000
  C   C1932     1.0  0.78043  0.19470  0.60920  1.0000
  C   C1933     1.0  0.76077  0.17457  0.95176  1.0000
  H   H1924     1.0  0.78123  0.16463  0.60127  1.0000
  H   H1925     1.0  0.81469  0.15804  0.64652  1.0000
  H   H1926     1.0  0.98251  0.15796  0.63644  1.0000
  H   H1927     1.0  0.81398  0.13215  0.63583  1.0000
  H   H1928     1.0  0.76645  0.19717  0.61575  1.0000
  H   H1929     1.0  0.82276  0.25383  0.51243  1.0000
  H   H1930     1.0  0.82650  0.13055  0.49968  1.0000
  C   C1934     1.0  0.88072  0.25190  0.59505  1.0000
  C   C1935     1.0  0.88961  0.24740  0.60876  1.0000
  S   S652      1.0  0.88034  0.21217  0.53388  1.0000
  C   C1936     1.0  0.98558  0.26472  0.90465  1.0000
  S   S653      1.0  0.88221  0.24957  0.76736  1.0000
  H   H1931     1.0  0.95377  0.21257  0.54570  1.0000
  H   H1932     1.0  0.84552  0.24942  0.79584  1.0000
  C   C1937     1.0  0.91836  0.30836  0.75841  1.0000
  C   C1938     1.0  0.96816  0.21769  0.78891  1.0000
  C   C1939     1.0  0.93563  0.23235  0.59087  1.0000
  S   S654      1.0  0.95572  0.26852  0.67003  1.0000
  C   C1940     1.0  0.97636  0.17315  0.80745  1.0000
  S   S655      1.0  0.97636  0.26836  0.62060  1.0000
  S   S656      1.0  0.87194  0.24902  0.54796  1.0000
  C   C1941     1.0  0.82598  0.27293  0.79594  1.0000
  H   H1933     1.0  0.87268  0.24353  0.59386  1.0000
  C   C1942     1.0  0.98422  0.17866  0.81819  1.0000
  C   C1943     1.0  0.82681  0.14326  0.49062  1.0000
  C   C1944     1.0  0.84545  0.29695  0.51434  1.0000
  N   N164      1.0  0.93867  0.21946  0.69032  1.0000
  C   C1945     1.0  0.93048  0.21710  0.67851  1.0000
  C   C1946     1.0  0.95075  0.20624  0.69727  1.0000
  C   C1947     1.0  0.93439  0.20121  0.67329  1.0000
  C   C1948     1.0  0.95508  0.19019  0.69226  1.0000
  C   C1949     1.0  0.94678  0.18768  0.68021  1.0000
  C   C1950     1.0  0.93384  0.23590  0.69630  1.0000
  H   H1934     1.0  0.92082  0.22753  0.67308  1.0000
  H   H1935     1.0  0.95718  0.20808  0.70669  1.0000
  H   H1936     1.0  0.92789  0.19943  0.66389  1.0000
  H   H1937     1.0  0.96491  0.17984  0.69759  1.0000
  H   H1938     1.0  0.95015  0.17538  0.67602  1.0000
  H   H1939     1.0  0.92812  0.24674  0.68664  1.0000
  H   H1940     1.0  0.92407  0.23478  0.70865  1.0000
  H   H1941     1.0  0.94551  0.23953  0.69827  1.0000
  N   N165      1.0  0.89991  0.25781  0.61023  1.0000
  C   C1951     1.0  0.90130  0.27302  0.59853  1.0000
  C   C1952     1.0  0.96922  0.22243  0.55755  1.0000
  N   N166      1.0  0.93254  0.31454  0.76176  1.0000
  H   H1942     1.0  0.94030  0.22502  0.79671  1.0000
  H   H1943     1.0  0.97080  0.22177  0.79957  1.0000
  C   C1953     1.0  0.95104  0.18217  0.56714  1.0000
  H   H1944     1.0  0.90197  0.19634  0.93568  1.0000
  C   C1954     1.0  0.96098  0.20979  0.55603  1.0000
  H   H1945     1.0  0.99084  0.11409  0.79776  1.0000
  H   H1946     1.0  0.90274  0.14330  0.75945  1.0000
  H   H1947     1.0  0.74924  0.28884  0.56848  1.0000
  H   H1948     1.0  0.79710  0.13562  0.61299  1.0000
  C   C1955     1.0  0.75362  0.12312  0.51104  1.0000
  C   C1956     1.0  0.98449  0.29514  0.87977  1.0000
  H   H1949     1.0  0.76918  0.16471  0.95938  1.0000
  C   C1957     1.0  0.90437  0.25426  0.80267  1.0000
  H   H1950     1.0  0.86443  0.19705  0.50180  1.0000
  H   H1951     1.0  0.78875  0.27838  0.82707  1.0000
  H   H1952     1.0  0.83238  0.15124  0.49632  1.0000
  H   H1953     1.0  0.89628  0.25106  0.79567  1.0000
  N   N167      1.0  0.88678  0.16623  0.74747  1.0000
  H   H1954     1.0  0.96302  0.12612  0.81603  1.0000
  H   H1955     1.0  0.84091  0.23370  0.49332  1.0000
  C   C1958     1.0  0.82253  0.27694  0.84974  1.0000
  C   C1959     1.0  0.97225  0.27002  0.89523  1.0000
  H   H1956     1.0  0.84667  0.25991  0.84155  1.0000
  H   H1957     1.0  0.79526  0.24807  0.97560  1.0000
  C   C1960     1.0  0.99219  0.30111  0.67515  1.0000
  C   C1961     1.0  0.88977  0.18041  0.58407  1.0000
  C   C1962     1.0  0.82708  0.23841  0.49322  1.0000
  C   C1963     1.0  0.76943  0.19697  0.96129  1.0000
  C   C1964     1.0  0.87975  0.18341  0.74734  1.0000
  H   H1958     1.0  0.79335  0.26343  0.52850  1.0000
  H   H1959     1.0  0.85087  0.19002  0.72107  1.0000
  C   C1965     1.0  0.94674  0.30273  0.76658  1.0000
  Fe  Fe327     1.0  0.99353  0.12936  0.75948  1.0000
  C   C1966     1.0  0.79636  0.27476  0.93599  1.0000
  H   H1960     1.0  0.92779  0.21715  0.75957  1.0000
  C   C1967     1.0  0.86641  0.19211  0.73824  1.0000
  C   C1968     1.0  0.86790  0.16575  0.72900  1.0000
  H   H1961     1.0  0.86378  0.15877  0.72147  1.0000
  C   C1969     1.0  0.92992  0.26472  0.80290  1.0000
  C   C1970     1.0  0.78291  0.24583  0.95603  1.0000
  Fe  Fe328     1.0  0.88695  0.25010  0.73880  1.0000
  C   C1971     1.0  0.91943  0.26070  0.79378  1.0000
  C   C1972     1.0  0.79303  0.25334  0.96260  1.0000
  C   C1973     1.0  0.86035  0.27927  0.81214  1.0000
  S   S657      1.0  0.85835  0.24763  0.51361  1.0000
  H   H1962     1.0  0.88005  0.21418  0.58236  1.0000
  C   C1974     1.0  0.95917  0.14174  0.84232  1.0000
  H   H1963     1.0  0.96014  0.15313  0.84702  1.0000
  C   C1975     1.0  0.88093  0.15737  0.73856  1.0000
  C   C1976     1.0  0.92925  0.21495  0.77322  1.0000
  H   H1964     1.0  0.79900  0.18688  0.63414  1.0000
  S   S658      1.0  0.79826  0.24348  0.84694  1.0000
  H   H1965     1.0  0.88657  0.14381  0.73851  1.0000
  S   S659      1.0  0.90913  0.26421  0.73152  1.0000
  H   H1966     1.0  0.95052  0.18249  0.55355  1.0000
  S   S660      1.0  0.92579  0.26303  0.77136  1.0000
  H   H1967     1.0  0.91389  0.16053  0.74755  1.0000
  Fe  Fe329     1.0  0.87524  0.26202  0.51999  1.0000
  C   C1977     1.0  0.78593  0.26740  0.92950  1.0000
  Fe  Fe330     1.0  0.90287  0.26567  0.75944  1.0000
  S   S661      1.0  0.88388  0.29090  0.75630  1.0000
  C   C1978     1.0  0.79149  0.24967  0.49413  1.0000
  C   C1979     1.0  0.90146  0.15765  0.75621  1.0000
  H   H1968     1.0  0.77777  0.23467  0.96392  1.0000
  C   C1980     1.0  0.81679  0.24969  0.50403  1.0000
  C   C1981     1.0  0.77954  0.25266  0.93936  1.0000
  H   H1969     1.0  0.86078  0.20699  0.59646  1.0000
  H   H1970     1.0  0.82996  0.23346  0.82322  1.0000
  H   H1971     1.0  0.78295  0.27312  0.91688  1.0000
  H   H1972     1.0  0.75100  0.06987  0.49760  1.0000
  H   H1973     1.0  0.89977  0.16205  0.76849  1.0000
  H   H1974     1.0  0.92038  0.22598  0.77873  1.0000
  C   C1982     1.0  0.83312  0.25572  0.80256  1.0000
  H   H1975     1.0  0.84721  0.17972  0.49405  1.0000
  S   S662      1.0  0.86655  0.27425  0.73331  1.0000
  C   C1983     1.0  0.87096  0.16828  0.56703  1.0000
  H   H1976     1.0  0.79924  0.29660  0.85425  1.0000
  S   S663      1.0  0.98797  0.23024  0.61041  1.0000
  Fe  Fe331     1.0  0.76307  0.25427  0.90435  1.0000
  H   H1977     1.0  0.89254  0.23577  0.96534  1.0000
  H   H1978     1.0  0.95807  0.20162  0.75243  1.0000
  C   C1984     1.0  0.75060  0.27768  0.96875  1.0000
  H   H1979     1.0  0.79876  0.09725  0.49224  1.0000
  H   H1980     1.0  0.98338  0.22943  0.57314  1.0000
  Fe  Fe332     1.0  0.88270  0.22840  0.50686  1.0000
  H   H1981     1.0  0.93491  0.30489  0.65608  1.0000
  C   C1985     1.0  0.80106  0.27199  0.82028  1.0000
  C   C1986     1.0  0.97042  0.28004  0.67249  1.0000
  H   H1982     1.0  0.90672  0.15515  0.58566  1.0000
  H   H1983     1.0  0.88474  0.19065  0.75391  1.0000
  H   H1984     1.0  0.86122  0.20586  0.73782  1.0000
  H   H1985     1.0  0.84145  0.27518  0.53535  1.0000
  H   H1986     1.0  0.83673  0.30885  0.80751  1.0000
  C   C1987     1.0  0.97773  0.20381  0.58348  1.0000
  H   H1987     1.0  0.86326  0.16359  0.56063  1.0000
  C   C1988     1.0  0.88575  0.15740  0.57256  1.0000
  Fe  Fe333     1.0  0.88855  0.28838  0.72876  1.0000
  C   C1989     1.0  0.96080  0.20636  0.76261  1.0000
  S   S664      1.0  0.90026  0.24391  0.51145  1.0000
  C   C1990     1.0  0.89527  0.16349  0.58112  1.0000
  C   C1991     1.0  0.86298  0.19910  0.48853  1.0000
  S   S665      1.0  0.86840  0.29065  0.51017  1.0000
  N   N168      1.0  0.87511  0.19091  0.57880  1.0000
  H   H1988     1.0  0.89730  0.18505  0.59066  1.0000
  C   C1992     1.0  0.97168  0.28529  0.88268  1.0000
  S   S666      1.0  0.76078  0.23894  0.88587  1.0000
  H   H1989     1.0  0.96950  0.17942  0.59098  1.0000
  H   H1990     1.0  0.78635  0.22638  0.82386  1.0000
  H   H1991     1.0  0.95677  0.16869  0.57300  1.0000
  S   S667      1.0  0.99039  0.15676  0.76281  1.0000
  C   C1993     1.0  0.75198  0.21036  0.57592  1.0000
  H   H1992     1.0  0.85843  0.22392  0.93211  1.0000
  C   C1994     1.0  0.86888  0.20812  0.58315  1.0000
  S   S668      1.0  0.98395  0.19323  0.84529  1.0000
  C   C1995     1.0  0.77650  0.21866  0.83199  1.0000
  H   H1993     1.0  0.80919  0.28334  0.54049  1.0000
  Fe  Fe334     1.0  0.98063  0.16459  0.73801  1.0000
  H   H1994     1.0  0.86069  0.21692  0.57412  1.0000
  N   N169      1.0  0.80920  0.15177  0.48763  1.0000
  H   H1995     1.0  0.98387  0.20140  0.59453  1.0000
  H   H1996     1.0  0.78137  0.18703  0.96346  1.0000
  H   H1997     1.0  0.96849  0.23478  0.54846  1.0000
  S   S669      1.0  0.98771  0.18829  0.71933  1.0000
  C   C1996     1.0  0.75111  0.16943  0.94252  1.0000
  C   C1997     1.0  0.98189  0.21014  0.77710  1.0000
  C   C1998     1.0  0.92393  0.31758  0.71365  1.0000
  H   H1998     1.0  0.74688  0.21773  0.94231  1.0000
  H   H1999     1.0  0.77391  0.20918  0.95425  1.0000
  H   H2000     1.0  0.95510  0.28608  0.69677  1.0000
  H   H2001     1.0  0.92373  0.29903  0.74956  1.0000
  S   S670      1.0  0.99059  0.23382  0.64917  1.0000
  C   C1999     1.0  0.97748  0.29841  0.68816  1.0000
  C   C2000     1.0  0.74899  0.22845  0.57413  1.0000
  S   S671      1.0  0.98053  0.19070  0.64528  1.0000
  H   H2002     1.0  0.76262  0.30477  0.55817  1.0000
  H   H2003     1.0  0.78672  0.20503  0.61017  1.0000
  H   H2004     1.0  0.86088  0.28734  0.79884  1.0000
  H   H2005     1.0  0.96240  0.26224  0.89765  1.0000
  C   C2001     1.0  0.81177  0.29315  0.84575  1.0000
  C   C2002     1.0  0.80229  0.16837  0.49001  1.0000
  H   H2006     1.0  0.88672  0.27405  0.48062  1.0000
  C   C2003     1.0  0.99098  0.12059  0.80783  1.0000
  H   H2007     1.0  0.76973  0.07437  0.51537  1.0000
  H   H2008     1.0  0.75183  0.15578  0.94316  1.0000
  H   H2009     1.0  0.75514  0.23626  0.56246  1.0000
  C   C2004     1.0  0.79992  0.14304  0.48202  1.0000
  C   C2005     1.0  0.77090  0.29738  0.97520  1.0000
  C   C2006     1.0  0.99119  0.13679  0.83392  1.0000
  H   H2010     1.0  0.80984  0.17550  0.49395  1.0000
  C   C2007     1.0  0.75342  0.24453  0.83343  1.0000
  C   C2008     1.0  0.75558  0.07734  0.51938  1.0000
  H   H2011     1.0  0.78010  0.18965  0.48907  1.0000
  H   H2012     1.0  0.99140  0.14323  0.84403  1.0000
  H   H2013     1.0  0.75168  0.20740  0.82343  1.0000
  C   C2009     1.0  0.74835  0.20415  0.94221  1.0000
  H   H2014     1.0  0.92761  0.30171  0.67926  1.0000
  H   H2015     1.0  0.98409  0.30684  0.86977  1.0000
  S   S672      1.0  0.78580  0.31132  0.52359  1.0000
  C   C2010     1.0  0.77244  0.31521  0.94596  1.0000
  H   H2016     1.0  0.80565  0.13011  0.47959  1.0000
  C   C2011     1.0  0.85321  0.18930  0.48410  1.0000
  H   H2017     1.0  0.80856  0.31724  0.82719  1.0000
  H   H2018     1.0  0.91328  0.31528  0.66531  1.0000
  S   S673      1.0  0.89387  0.31172  0.70805  1.0000
  H   H2019     1.0  0.77882  0.30503  0.97785  1.0000
  C   C2012     1.0  0.77581  0.16757  0.48173  1.0000
  C   C2013     1.0  0.74768  0.22058  0.82557  1.0000
  C   C2014     1.0  0.81887  0.31619  0.50671  1.0000
  C   C2015     1.0  0.74788  0.08442  0.53409  1.0000
  S   S674      1.0  0.74728  0.17770  0.59361  1.0000
  Fe  Fe335     1.0  0.82554  0.25284  0.97907  1.0000
  C   C2016     1.0  0.74503  0.07483  0.50938  1.0000
  Fe  Fe336     1.0  0.77989  0.53964  0.14315  1.0000
  N   N170      1.0  0.74820  0.38668  0.09149  1.0000
  S   S675      1.0  0.77940  0.51374  0.13735  1.0000
  Fe  Fe337     1.0  0.79944  0.56755  0.14494  1.0000
  S   S676      1.0  0.77762  0.57843  0.16469  1.0000
  Fe  Fe338     1.0  0.77638  0.55085  0.17719  1.0000
  S   S677      1.0  0.77502  0.54021  0.20561  1.0000
  H   H2020     1.0  0.77808  0.46469  0.29494  1.0000
  S   S678      1.0  0.79946  0.53977  0.15865  1.0000
  S   S679      1.0  0.75860  0.44210  0.33878  1.0000
  C   C2017     1.0  0.75456  0.34903  0.04344  1.0000
  C   C2018     1.0  0.80353  0.37006  0.19332  1.0000
  S   S680      1.0  0.95733  0.63145  0.28250  1.0000
  C   C2019     1.0  0.79534  0.61699  0.11791  1.0000
  H   H2021     1.0  0.74812  0.44145  0.40454  1.0000
  N   N171      1.0  0.76000  0.50466  0.18884  1.0000
  H   H2022     1.0  0.76401  0.42346  0.26725  1.0000
  H   H2023     1.0  0.79090  0.38832  0.10395  1.0000
  Fe  Fe339     1.0  0.94409  0.62404  0.26475  1.0000
  S   S681      1.0  0.92394  0.60655  0.27540  1.0000
  C   C2020     1.0  0.80519  0.42812  0.41568  1.0000
  S   S682      1.0  0.96861  0.62146  0.24412  1.0000
  Fe  Fe340     1.0  0.76544  0.43595  0.36485  1.0000
  S   S683      1.0  0.79402  0.43538  0.35392  1.0000
  H   H2024     1.0  0.90233  0.55737  0.31316  1.0000
  C   C2021     1.0  0.76298  0.49492  0.12506  1.0000
  S   S684      1.0  0.78151  0.47258  0.32661  1.0000
  H   H2025     1.0  0.79632  0.46029  0.23676  1.0000
  Fe  Fe341     1.0  0.78645  0.44393  0.32790  1.0000
  S   S685      1.0  0.79875  0.43106  0.30525  1.0000
  Fe  Fe342     1.0  0.78699  0.46405  0.35354  1.0000
  S   S686      1.0  0.80309  0.47621  0.36412  1.0000
  H   H2026     1.0  0.75632  0.61692  0.16059  1.0000
  S   S687      1.0  0.75890  0.46396  0.36683  1.0000
  Fe  Fe343     1.0  0.84152  0.55002  0.24904  1.0000
  S   S688      1.0  0.86564  0.53689  0.23308  1.0000
  S   S689      1.0  0.82386  0.57117  0.23421  1.0000
  Fe  Fe344     1.0  0.85236  0.53039  0.28281  1.0000
  S   S690      1.0  0.87738  0.51589  0.26920  1.0000
  S   S691      1.0  0.84773  0.52860  0.31149  1.0000
  Fe  Fe345     1.0  0.87974  0.54177  0.25150  1.0000
  S   S692      1.0  0.90408  0.55368  0.24115  1.0000
  Fe  Fe346     1.0  0.86035  0.51271  0.25238  1.0000
  S   S693      1.0  0.86190  0.48679  0.24552  1.0000
  S   S694      1.0  0.85579  0.55636  0.26620  1.0000
  S   S695      1.0  0.83518  0.52564  0.26738  1.0000
  Fe  Fe347     1.0  0.77491  0.34360  0.46327  1.0000
  C   C2022     1.0  0.75820  0.44975  0.27105  1.0000
  S   S696      1.0  0.78836  0.36363  0.44328  1.0000
  N   N172      1.0  0.77309  0.62976  0.13945  1.0000
  C   C2023     1.0  0.84076  0.53713  0.16827  1.0000
  H   H2027     1.0  0.78472  0.33979  0.18677  1.0000
  C   C2024     1.0  0.77049  0.37043  0.37810  1.0000
  H   H2028     1.0  0.75187  0.53723  0.29934  1.0000
  H   H2029     1.0  0.78702  0.41343  0.28498  1.0000
  Fe  Fe348     1.0  0.81315  0.45384  0.18945  1.0000
  S   S697      1.0  0.79002  0.44615  0.20925  1.0000
  S   S698      1.0  0.82112  0.47791  0.19192  1.0000
  Fe  Fe349     1.0  0.81293  0.42768  0.16746  1.0000
  S   S699      1.0  0.79019  0.41842  0.18613  1.0000
  S   S700      1.0  0.82357  0.41546  0.14359  1.0000
  Fe  Fe350     1.0  0.77888  0.44631  0.18664  1.0000
  C   C2025     1.0  0.80804  0.32123  0.00814  1.0000
  Fe  Fe351     1.0  0.80393  0.41910  0.20650  1.0000
  S   S701      1.0  0.80501  0.39536  0.22749  1.0000
  S   S702      1.0  0.80088  0.45593  0.16680  1.0000
  S   S703      1.0  0.82787  0.42651  0.18798  1.0000
  C   C2026     1.0  0.89373  0.63922  0.24871  1.0000
  C   C2027     1.0  0.81477  0.39866  0.14060  1.0000
  C   C2028     1.0  0.79859  0.39523  0.15027  1.0000
  C   C2029     1.0  0.79221  0.38145  0.14821  1.0000
  C   C2030     1.0  0.80184  0.37088  0.13640  1.0000
  C   C2031     1.0  0.81776  0.37462  0.12622  1.0000
  C   C2032     1.0  0.82417  0.38848  0.12832  1.0000
  H   H2030     1.0  0.79083  0.40320  0.15930  1.0000
  C   C2033     1.0  0.76208  0.40158  0.40087  1.0000
  H   H2031     1.0  0.82535  0.36655  0.11711  1.0000
  H   H2032     1.0  0.83664  0.39110  0.12062  1.0000
  C   C2034     1.0  0.78034  0.37482  0.23843  1.0000
  C   C2035     1.0  0.78359  0.39170  0.23346  1.0000
  H   H2033     1.0  0.79248  0.53574  0.27953  1.0000
  C   C2036     1.0  0.74785  0.38867  0.10778  1.0000
  H   H2034     1.0  0.79113  0.36383  0.23932  1.0000
  C   C2037     1.0  0.76307  0.37220  0.24209  1.0000
  H   H2035     1.0  0.82272  0.45944  0.28869  1.0000
  C   C2038     1.0  0.77471  0.42643  0.42583  1.0000
  H   H2036     1.0  0.80599  0.62606  0.16886  1.0000
  H   H2037     1.0  0.79815  0.36734  0.37660  1.0000
  S   S704      1.0  0.75678  0.54889  0.16296  1.0000
  H   H2038     1.0  0.91228  0.52641  0.27530  1.0000
  C   C2039     1.0  0.82941  0.46204  0.27485  1.0000
  H   H2039     1.0  0.80827  0.33481  0.00273  1.0000
  Fe  Fe352     1.0  0.75402  0.47006  0.33983  1.0000
  C   C2040     1.0  0.83347  0.56430  0.17865  1.0000
  C   C2041     1.0  0.84884  0.48380  0.23234  1.0000
  C   C2042     1.0  0.83588  0.49724  0.22618  1.0000
  C   C2043     1.0  0.82695  0.49499  0.21432  1.0000
  C   C2044     1.0  0.83051  0.47914  0.20893  1.0000
  C   C2045     1.0  0.84271  0.46534  0.21592  1.0000
  C   C2046     1.0  0.85191  0.46772  0.22750  1.0000
  H   H2040     1.0  0.83332  0.50961  0.22992  1.0000
  H   H2041     1.0  0.81766  0.50577  0.20883  1.0000
  H   H2042     1.0  0.84567  0.45310  0.21177  1.0000
  H   H2043     1.0  0.86184  0.45719  0.23230  1.0000
  H   H2044     1.0  0.81259  0.33570  0.16533  1.0000
  C   C2047     1.0  0.88899  0.53580  0.30267  1.0000
  C   C2048     1.0  0.94567  0.65072  0.19916  1.0000
  C   C2049     1.0  0.74902  0.51394  0.20060  1.0000
  C   C2050     1.0  0.77797  0.37786  0.42698  1.0000
  C   C2051     1.0  0.78795  0.38751  0.41294  1.0000
  C   C2052     1.0  0.78002  0.39942  0.39996  1.0000
  S   S705      1.0  0.75171  0.45895  0.18239  1.0000
  H   H2045     1.0  0.83985  0.38005  0.16582  1.0000
  H   H2046     1.0  0.80187  0.38580  0.41214  1.0000
  H   H2047     1.0  0.78782  0.40679  0.38919  1.0000
  C   C2053     1.0  0.81546  0.49047  0.34889  1.0000
  C   C2054     1.0  0.82271  0.50115  0.35498  1.0000
  C   C2055     1.0  0.83252  0.51275  0.34333  1.0000
  C   C2056     1.0  0.83531  0.51373  0.32547  1.0000
  C   C2057     1.0  0.82827  0.50293  0.31927  1.0000
  C   C2058     1.0  0.81834  0.49129  0.33099  1.0000
  H   H2048     1.0  0.82060  0.50057  0.36875  1.0000
  H   H2049     1.0  0.83794  0.52104  0.34821  1.0000
  H   H2050     1.0  0.83053  0.50348  0.30550  1.0000
  H   H2051     1.0  0.81315  0.48282  0.32619  1.0000
  C   C2059     1.0  0.91743  0.59406  0.26400  1.0000
  C   C2060     1.0  0.92795  0.58904  0.24887  1.0000
  C   C2061     1.0  0.92334  0.57718  0.24160  1.0000
  C   C2062     1.0  0.90814  0.57035  0.24928  1.0000
  C   C2063     1.0  0.89713  0.57616  0.26382  1.0000
  C   C2064     1.0  0.90180  0.58789  0.27115  1.0000
  H   H2052     1.0  0.93998  0.59373  0.24316  1.0000
  H   H2053     1.0  0.93190  0.57289  0.23026  1.0000
  H   H2054     1.0  0.88536  0.57113  0.26984  1.0000
  H   H2055     1.0  0.89352  0.59177  0.28280  1.0000
  H   H2056     1.0  0.79586  0.40764  0.43584  1.0000
  H   H2057     1.0  0.77579  0.53241  0.10235  1.0000
  C   C2065     1.0  0.80520  0.62932  0.11656  1.0000
  C   C2066     1.0  0.75511  0.36498  0.38770  1.0000
  H   H2058     1.0  0.77202  0.41890  0.22850  1.0000
  H   H2059     1.0  0.79842  0.34453  0.40352  1.0000
  C   C2067     1.0  0.76325  0.32022  0.05989  1.0000
  C   C2068     1.0  0.77046  0.52081  0.10520  1.0000
  H   H2060     1.0  0.82529  0.41206  0.26055  1.0000
  H   H2061     1.0  0.77967  0.48464  0.19860  1.0000
  C   C2069     1.0  0.79882  0.64193  0.12670  1.0000
  C   C2070     1.0  0.92267  0.63540  0.18999  1.0000
  H   H2062     1.0  0.80243  0.59971  0.16120  1.0000
  C   C2071     1.0  0.75213  0.39180  0.41481  1.0000
  C   C2072     1.0  0.81008  0.34512  0.17349  1.0000
  C   C2073     1.0  0.92983  0.62750  0.20468  1.0000
  S   S706      1.0  0.75712  0.32951  0.45753  1.0000
  H   H2063     1.0  0.94583  0.62952  0.22121  1.0000
  H   H2064     1.0  0.92649  0.61548  0.21256  1.0000
  H   H2065     1.0  0.85181  0.59825  0.12549  1.0000
  H   H2066     1.0  0.85537  0.62474  0.13317  1.0000
  C   C2074     1.0  0.78867  0.54894  0.21327  1.0000
  C   C2075     1.0  0.78897  0.56665  0.20839  1.0000
  C   C2076     1.0  0.79973  0.57352  0.21491  1.0000
  C   C2077     1.0  0.81044  0.56260  0.22604  1.0000
  C   C2078     1.0  0.81029  0.54489  0.23069  1.0000
  C   C2079     1.0  0.79918  0.53811  0.22458  1.0000
  H   H2067     1.0  0.78050  0.57516  0.20004  1.0000
  H   H2068     1.0  0.79971  0.58727  0.21137  1.0000
  H   H2069     1.0  0.81849  0.53642  0.23925  1.0000
  H   H2070     1.0  0.79883  0.52445  0.22853  1.0000
  C   C2080     1.0  0.84185  0.60419  0.13511  1.0000
  N   N173      1.0  0.81867  0.36801  0.18115  1.0000
  Fe  Fe353     1.0  0.77739  0.33257  0.09134  1.0000
  S   S707      1.0  0.90646  0.62703  0.18584  1.0000
  H   H2071     1.0  0.77981  0.37877  0.15605  1.0000
  N   N174      1.0  0.86676  0.59524  0.21076  1.0000
  H   H2072     1.0  0.75080  0.56999  0.24225  1.0000
  H   H2073     1.0  0.90513  0.63400  0.25455  1.0000
  C   C2081     1.0  0.77917  0.61748  0.12941  1.0000
  C   C2082     1.0  0.88100  0.60325  0.18110  1.0000
  C   C2083     1.0  0.80039  0.44326  0.40383  1.0000
  H   H2074     1.0  0.80041  0.60682  0.11044  1.0000
  C   C2084     1.0  0.75655  0.34208  0.02882  1.0000
  C   C2085     1.0  0.91649  0.53481  0.28123  1.0000
  C   C2086     1.0  0.75769  0.49014  0.11198  1.0000
  H   H2075     1.0  0.77013  0.38070  0.36665  1.0000
  H   H2076     1.0  0.87893  0.54499  0.29588  1.0000
  H   H2077     1.0  0.76329  0.39970  0.02239  1.0000
  C   C2087     1.0  0.81031  0.43512  0.24738  1.0000
  Fe  Fe354     1.0  0.98068  0.63187  0.26054  1.0000
  Fe  Fe355     1.0  0.88768  0.64902  0.17346  1.0000
  C   C2088     1.0  0.83149  0.37876  0.17905  1.0000
  C   C2089     1.0  0.84397  0.61915  0.13954  1.0000
  H   H2078     1.0  0.74577  0.38731  0.00916  1.0000
  N   N175      1.0  0.90607  0.54069  0.29551  1.0000
  H   H2079     1.0  0.78685  0.49690  0.17725  1.0000
  C   C2090     1.0  0.91091  0.55216  0.30229  1.0000
  H   H2080     1.0  0.83210  0.56907  0.19066  1.0000
  C   C2091     1.0  0.93746  0.55176  0.28046  1.0000
  H   H2081     1.0  0.93021  0.56742  0.29988  1.0000
  H   H2082     1.0  0.83628  0.42810  0.27641  1.0000
  H   H2083     1.0  0.78342  0.50629  0.19568  1.0000
  N   N176      1.0  0.76159  0.54481  0.25523  1.0000
  C   C2092     1.0  0.76014  0.56239  0.25019  1.0000
  H   H2084     1.0  0.74638  0.33395  0.32522  1.0000
  C   C2093     1.0  0.77061  0.57081  0.25526  1.0000
  N   N177      1.0  0.77011  0.44143  0.41434  1.0000
  C   C2094     1.0  0.82170  0.42609  0.25848  1.0000
  H   H2085     1.0  0.74617  0.36193  0.30376  1.0000
  C   C2095     1.0  0.76003  0.37998  0.42786  1.0000
  H   H2086     1.0  0.75643  0.42305  0.18057  1.0000
  H   H2087     1.0  0.77895  0.36191  0.20503  1.0000
  C   C2096     1.0  0.75249  0.40327  0.23625  1.0000
  C   C2097     1.0  0.78244  0.56116  0.26573  1.0000
  C   C2098     1.0  0.78620  0.36299  0.38373  1.0000
  C   C2099     1.0  0.74928  0.40127  0.02706  1.0000
  C   C2100     1.0  0.94095  0.63538  0.20950  1.0000
  C   C2101     1.0  0.82674  0.59718  0.14265  1.0000
  S   S708      1.0  0.82425  0.57879  0.13609  1.0000
  C   C2102     1.0  0.86479  0.61083  0.17660  1.0000
  H   H2088     1.0  0.75432  0.50770  0.31800  1.0000
  H   H2089     1.0  0.79080  0.56752  0.26955  1.0000
  H   H2090     1.0  0.83452  0.54390  0.15741  1.0000
  C   C2103     1.0  0.92669  0.55781  0.29492  1.0000
  Fe  Fe356     1.0  0.76029  0.57549  0.14847  1.0000
  C   C2104     1.0  0.76318  0.38937  0.11249  1.0000
  S   S709      1.0  0.79391  0.35248  0.13622  1.0000
  S   S710      1.0  0.75176  0.41591  0.38457  1.0000
  C   C2105     1.0  0.83100  0.62721  0.15165  1.0000
  H   H2091     1.0  0.74713  0.39710  0.32662  1.0000
  S   S711      1.0  0.75598  0.49335  0.07764  1.0000
  C   C2106     1.0  0.76207  0.32420  0.02970  1.0000
  H   H2092     1.0  0.94026  0.53595  0.26188  1.0000
  H   H2093     1.0  0.82481  0.39213  0.18065  1.0000
  C   C2107     1.0  0.84954  0.61023  0.18929  1.0000
  H   H2094     1.0  0.86412  0.61751  0.16340  1.0000
  C   C2108     1.0  0.78351  0.54331  0.27118  1.0000
  H   H2095     1.0  0.81800  0.62876  0.10808  1.0000
  C   C2109     1.0  0.78399  0.43840  0.29120  1.0000
  C   C2110     1.0  0.82215  0.35558  0.17145  1.0000
  H   H2096     1.0  0.86451  0.51335  0.20588  1.0000
  C   C2111     1.0  0.84809  0.51943  0.16973  1.0000
  S   S712      1.0  0.83185  0.64717  0.15631  1.0000
  H   H2097     1.0  0.84695  0.51239  0.16050  1.0000
  C   C2112     1.0  0.80531  0.45312  0.24521  1.0000
  H   H2098     1.0  0.81889  0.42287  0.41609  1.0000
  H   H2099     1.0  0.82705  0.47627  0.26978  1.0000
  H   H2100     1.0  0.76049  0.35920  0.24613  1.0000
  H   H2101     1.0  0.84379  0.45766  0.27386  1.0000
  C   C2113     1.0  0.79438  0.34749  0.18549  1.0000
  C   C2114     1.0  0.78022  0.42684  0.28314  1.0000
  H   H2102     1.0  0.75298  0.63981  0.15947  1.0000
  H   H2103     1.0  0.79119  0.38534  0.07417  1.0000
  C   C2115     1.0  0.76354  0.38556  0.07949  1.0000
  C   C2116     1.0  0.75051  0.43101  0.16997  1.0000
  H   H2104     1.0  0.75309  0.47813  0.11464  1.0000
  C   C2117     1.0  0.74891  0.41027  0.31935  1.0000
  H   H2105     1.0  0.76388  0.38380  0.06662  1.0000
  H   H2106     1.0  0.94939  0.55659  0.27422  1.0000
  H   H2107     1.0  0.75225  0.37261  0.43865  1.0000
  H   H2108     1.0  0.83408  0.35400  0.16170  1.0000
  H   H2109     1.0  0.74558  0.63199  0.14429  1.0000
  S   S713      1.0  0.80117  0.34353  0.08788  1.0000
  H   H2110     1.0  0.76287  0.39066  0.12552  1.0000
  C   C2118     1.0  0.74605  0.42310  0.15868  1.0000
  S   S714      1.0  0.75614  0.34705  0.07690  1.0000
  C   C2119     1.0  0.75377  0.50115  0.17621  1.0000
  C   C2120     1.0  0.75954  0.50028  0.09522  1.0000
  N   N178      1.0  0.79092  0.45062  0.11144  1.0000
  C   C2121     1.0  0.79691  0.45550  0.12342  1.0000
  C   C2122     1.0  0.79142  0.46053  0.09508  1.0000
  C   C2123     1.0  0.80371  0.47062  0.11915  1.0000
  C   C2124     1.0  0.79827  0.47564  0.09032  1.0000
  C   C2125     1.0  0.80433  0.48076  0.10250  1.0000
  C   C2126     1.0  0.78288  0.43533  0.11644  1.0000
  H   H2111     1.0  0.79630  0.44774  0.13641  1.0000
  H   H2112     1.0  0.78613  0.45704  0.08572  1.0000
  H   H2113     1.0  0.80804  0.47472  0.12881  1.0000
  H   H2114     1.0  0.79808  0.48374  0.07751  1.0000
  H   H2115     1.0  0.80901  0.49282  0.09923  1.0000
  H   H2116     1.0  0.78700  0.42773  0.10600  1.0000
  H   H2117     1.0  0.78679  0.42652  0.12828  1.0000
  H   H2118     1.0  0.76840  0.43942  0.11917  1.0000
  N   N179      1.0  0.82309  0.45290  0.26499  1.0000
  C   C2127     1.0  0.82794  0.43523  0.26730  1.0000
  C   C2128     1.0  0.81185  0.46186  0.25418  1.0000
  H   H2119     1.0  0.81860  0.33039  0.03471  1.0000
  H   H2120     1.0  0.80790  0.47584  0.25240  1.0000
  H   H2121     1.0  0.99354  0.64341  0.21352  1.0000
  C   C2129     1.0  0.77906  0.38641  0.08370  1.0000
  H   H2122     1.0  0.88476  0.53588  0.31674  1.0000
  C   C2130     1.0  0.93238  0.54015  0.27357  1.0000
  C   C2131     1.0  0.79229  0.41966  0.42682  1.0000
  H   H2123     1.0  0.83985  0.37310  0.18886  1.0000
  N   N180      1.0  0.84134  0.54581  0.18043  1.0000
  H   H2124     1.0  0.76256  0.48641  0.13768  1.0000
  H   H2125     1.0  0.87572  0.63263  0.21799  1.0000
  H   H2126     1.0  0.89448  0.59004  0.20185  1.0000
  C   C2132     1.0  0.81404  0.60497  0.15512  1.0000
  H   H2127     1.0  0.77158  0.60784  0.13041  1.0000
  S   S715      1.0  0.78211  0.56649  0.12739  1.0000
  C   C2133     1.0  0.77520  0.45571  0.28877  1.0000
  H   H2128     1.0  0.76706  0.52372  0.07907  1.0000
  C   C2134     1.0  0.76250  0.46145  0.27850  1.0000
  H   H2129     1.0  0.79553  0.33895  0.03419  1.0000
  H   H2130     1.0  0.76957  0.58471  0.25106  1.0000
  H   H2131     1.0  0.77915  0.46153  0.39402  1.0000
  C   C2135     1.0  0.81613  0.61992  0.15951  1.0000
  C   C2136     1.0  0.77286  0.53530  0.26583  1.0000
  C   C2137     1.0  0.77833  0.49776  0.19022  1.0000
  C   C2138     1.0  0.75041  0.53619  0.24995  1.0000
  C   C2139     1.0  0.85673  0.51084  0.18329  1.0000
  C   C2140     1.0  0.75815  0.33814  0.05891  1.0000
  C   C2141     1.0  0.89137  0.63124  0.23636  1.0000
  H   H2132     1.0  0.86223  0.49704  0.18476  1.0000
  H   H2133     1.0  0.75544  0.47477  0.27704  1.0000
  H   H2134     1.0  0.90071  0.61988  0.23293  1.0000
  H   H2135     1.0  0.83881  0.60178  0.21616  1.0000
  H   H2136     1.0  0.87789  0.59160  0.23281  1.0000
  H   H2137     1.0  0.85529  0.58969  0.23783  1.0000
  H   H2138     1.0  0.84172  0.57188  0.16786  1.0000
  C   C2142     1.0  0.78637  0.35022  0.39881  1.0000
  H   H2139     1.0  0.80509  0.42807  0.24080  1.0000
  H   H2140     1.0  0.82014  0.56680  0.17583  1.0000
  C   C2143     1.0  0.76559  0.51580  0.09200  1.0000
  C   C2144     1.0  0.79109  0.35996  0.19558  1.0000
  C   C2145     1.0  0.76717  0.43248  0.27320  1.0000
  C   C2146     1.0  0.88176  0.59550  0.19837  1.0000
  H   H2141     1.0  0.80092  0.37969  0.20122  1.0000
  H   H2142     1.0  0.88925  0.52249  0.30121  1.0000
  C   C2147     1.0  0.86800  0.58697  0.22870  1.0000
  C   C2148     1.0  0.84981  0.53750  0.19375  1.0000
  C   C2149     1.0  0.85075  0.60221  0.20639  1.0000
  C   C2150     1.0  0.77888  0.38815  0.10036  1.0000
  C   C2151     1.0  0.85788  0.51998  0.19523  1.0000
  C   C2152     1.0  0.75620  0.62971  0.15155  1.0000
  H   H2143     1.0  0.87208  0.57274  0.22976  1.0000
  Fe  Fe357     1.0  0.79809  0.33501  0.11683  1.0000
  H   H2144     1.0  0.83687  0.61629  0.18597  1.0000
  H   H2145     1.0  0.85023  0.54441  0.20335  1.0000
  C   C2153     1.0  0.76965  0.40586  0.23221  1.0000
  C   C2154     1.0  0.74648  0.44906  0.16805  1.0000
  C   C2155     1.0  0.76968  0.51012  0.12166  1.0000
  H   H2146     1.0  0.89297  0.60397  0.17141  1.0000
  H   H2147     1.0  0.80204  0.32106  0.05075  1.0000
  S   S716      1.0  0.75504  0.44244  0.08659  1.0000
  H   H2148     1.0  0.81029  0.44991  0.39493  1.0000
  H   H2149     1.0  0.76483  0.41939  0.43407  1.0000
  C   C2156     1.0  0.87719  0.63827  0.22816  1.0000
  N   N181      1.0  0.75538  0.35253  0.40253  1.0000
  S   S717      1.0  0.77301  0.32585  0.12015  1.0000
  Fe  Fe358     1.0  0.95876  0.64962  0.23379  1.0000
  S   S718      1.0  0.75376  0.42112  0.04791  1.0000
  S   S719      1.0  0.79293  0.31913  0.47323  1.0000
  H   H2150     1.0  0.77353  0.52147  0.27033  1.0000
  C   C2157     1.0  0.80558  0.32700  0.03681  1.0000
  H   H2151     1.0  0.75378  0.51618  0.21100  1.0000
  H   H2152     1.0  0.76230  0.49314  0.16738  1.0000
  C   C2158     1.0  0.78267  0.64193  0.13821  1.0000
  H   H2153     1.0  0.75378  0.35062  0.01690  1.0000
  H   H2154     1.0  0.75035  0.36286  0.04274  1.0000
  C   C2159     1.0  0.74913  0.38648  0.24116  1.0000
  C   C2160     1.0  0.78269  0.44977  0.40333  1.0000
  C   C2161     1.0  0.92773  0.65050  0.17937  1.0000
  H   H2155     1.0  0.77104  0.33523  0.41982  1.0000
  H   H2156     1.0  0.75739  0.52302  0.24790  1.0000
  H   H2157     1.0  0.74671  0.54351  0.23745  1.0000
  C   C2162     1.0  0.75166  0.44803  0.41322  1.0000
  H   H2158     1.0  0.76165  0.41246  0.32040  1.0000
  H   H2159     1.0  0.74923  0.41063  0.30556  1.0000
  H   H2160     1.0  0.74905  0.40912  0.16034  1.0000
  C   C2163     1.0  0.77075  0.34512  0.40810  1.0000
  H   H2161     1.0  0.74904  0.46224  0.40798  1.0000
  H   H2162     1.0  0.74563  0.36780  0.90223  1.0000
  C   C2164     1.0  0.92300  0.33988  0.67399  1.0000
  S   S720      1.0  0.97958  0.32171  0.72238  1.0000
  H   H2163     1.0  0.96969  0.33029  0.77183  1.0000
  C   C2165     1.0  0.94473  0.33779  0.76408  1.0000
  Fe  Fe359     1.0  0.77545  0.32052  0.49907  1.0000
  C   C2166     1.0  0.90833  0.35084  0.71982  1.0000
  C   C2167     1.0  0.95873  0.33893  0.66488  1.0000
  S   S721      1.0  0.75891  0.34630  0.48985  1.0000
  H   H2164     1.0  0.98394  0.44857  0.72827  1.0000
  H   H2165     1.0  0.76381  0.32774  0.94839  1.0000
  C   C2168     1.0  0.94762  0.35269  0.67193  1.0000
  H   H2166     1.0  0.90896  0.31910  0.75213  1.0000
  C   C2169     1.0  0.95921  0.32585  0.76910  1.0000
  N   N182      1.0  0.93401  0.32626  0.66739  1.0000
  H   H2167     1.0  0.92091  0.36382  0.68204  1.0000
  C   C2170     1.0  0.92962  0.35334  0.67625  1.0000
  Fe  Fe360     1.0  0.96795  0.35008  0.71827  1.0000
  H   H2168     1.0  0.94795  0.32364  0.71499  1.0000
  S   S722      1.0  0.93867  0.35900  0.72157  1.0000
  H   H2169     1.0  0.92016  0.34127  0.75666  1.0000
  H   H2170     1.0  0.81256  0.32770  0.49882  1.0000
  S   S723      1.0  0.98432  0.35627  0.73378  1.0000
  C   C2171     1.0  0.93411  0.32826  0.71596  1.0000
  H   H2171     1.0  0.99057  0.42522  0.73087  1.0000
  H   H2172     1.0  0.95296  0.36269  0.67430  1.0000
  C   C2172     1.0  0.93133  0.33186  0.76063  1.0000
  H   H2173     1.0  0.90907  0.34005  0.67817  1.0000
  C   C2173     1.0  0.89825  0.34034  0.71709  1.0000
  C   C2174     1.0  0.92636  0.34497  0.71899  1.0000
  H   H2174     1.0  0.88445  0.34522  0.71714  1.0000
  H   H2175     1.0  0.90220  0.36373  0.72213  1.0000
  C   C2175     1.0  0.90602  0.32369  0.71399  1.0000
  S   S724      1.0  0.98595  0.35743  0.69288  1.0000
  H   H2176     1.0  0.94395  0.35159  0.76259  1.0000
  H   H2177     1.0  0.97280  0.33816  0.66161  1.0000
  C   C2176     1.0  0.74675  0.32777  0.89566  1.0000
  C   C2177     1.0  0.74819  0.34515  0.89204  1.0000
  H   H2178     1.0  0.84501  0.32001  0.49425  1.0000
  H   H2179     1.0  0.75000  0.32581  0.53026  1.0000
  C   C2178     1.0  0.95162  0.32585  0.66253  1.0000
  H   H2180     1.0  0.75246  0.35155  0.87881  1.0000
  S   S725      1.0  0.96544  0.77437  0.11009  1.0000
  S   S726      1.0  0.95291  0.80371  0.14665  1.0000
  C   C2179     1.0  0.98333  0.69158  0.30224  1.0000
  S   S727      1.0  0.96437  0.72218  0.13164  1.0000
  Fe  Fe361     1.0  0.93137  0.86149  0.23407  1.0000
  S   S728      1.0  0.93830  0.87918  0.24714  1.0000
  S   S729      1.0  0.90635  0.85194  0.24526  1.0000
  Fe  Fe362     1.0  0.96297  0.86272  0.20511  1.0000
  S   S730      1.0  0.97262  0.88117  0.21548  1.0000
  S   S731      1.0  0.98455  0.71129  0.35283  1.0000
  Fe  Fe363     1.0  0.96590  0.86412  0.24164  1.0000
  Fe  Fe364     1.0  0.94423  0.89479  0.22024  1.0000
  S   S732      1.0  0.93504  0.92390  0.21681  1.0000
  S   S733      1.0  0.95826  0.84475  0.23092  1.0000
  S   S734      1.0  0.93534  0.87802  0.20750  1.0000
  Fe  Fe365     1.0  0.84017  0.98135  0.21692  1.0000
  H   H2181     1.0  0.88060  0.74359  0.20324  1.0000
  S   S735      1.0  0.81952  0.95501  0.27743  1.0000
  H   H2182     1.0  0.85793  0.83635  0.23215  1.0000
  C   C2180     1.0  0.95186  0.74045  0.08353  1.0000
  H   H2183     1.0  0.96499  0.77432  0.17798  1.0000
  Fe  Fe366     1.0  0.94882  0.65886  0.26916  1.0000
  Fe  Fe367     1.0  0.90314  0.75964  0.26434  1.0000
  S   S736      1.0  0.88818  0.75817  0.24526  1.0000
  S   S737      1.0  0.92741  0.77081  0.25538  1.0000
  Fe  Fe368     1.0  0.87949  0.74220  0.29464  1.0000
  S   S738      1.0  0.86177  0.73922  0.27840  1.0000
  S   S739      1.0  0.87671  0.73375  0.32351  1.0000
  Fe  Fe369     1.0  0.88704  0.73123  0.26021  1.0000
  S   S740      1.0  0.89554  0.70874  0.24645  1.0000
  Fe  Fe370     1.0  0.86413  0.76661  0.26466  1.0000
  S   S741      1.0  0.84527  0.78885  0.25178  1.0000
  S   S742      1.0  0.90435  0.73194  0.27763  1.0000
  S   S743      1.0  0.87935  0.77018  0.28262  1.0000
  C   C2181     1.0  0.88717  0.89786  0.24163  1.0000
  C   C2182     1.0  0.93847  0.79199  0.29186  1.0000
  H   H2184     1.0  0.87492  0.94675  0.24878  1.0000
  Fe  Fe371     1.0  0.85957  0.67933  0.18338  1.0000
  S   S744      1.0  0.88827  0.67644  0.17302  1.0000
  S   S745      1.0  0.84626  0.69486  0.20416  1.0000
  Fe  Fe372     1.0  0.88158  0.68210  0.14694  1.0000
  S   S746      1.0  0.89318  0.70391  0.12760  1.0000
  C   C2183     1.0  0.85992  0.90472  0.23175  1.0000
  H   H2185     1.0  0.94536  0.84182  0.18736  1.0000
  S   S747      1.0  0.85243  0.68658  0.15725  1.0000
  Fe  Fe373     1.0  0.97431  0.74749  0.12498  1.0000
  Fe  Fe374     1.0  0.78513  0.89066  0.25284  1.0000
  S   S748      1.0  0.77504  0.88039  0.28082  1.0000
  S   S749      1.0  0.81296  0.89375  0.24717  1.0000
  Fe  Fe375     1.0  0.76618  0.86180  0.27032  1.0000
  S   S750      1.0  0.77298  0.83334  0.28290  1.0000
  S   S751      1.0  0.77724  0.87149  0.24233  1.0000
  Fe  Fe376     1.0  0.96454  0.73588  0.34773  1.0000
  S   S752      1.0  0.97267  0.74075  0.31887  1.0000
  S   S753      1.0  0.93601  0.73769  0.36023  1.0000
  H   H2186     1.0  0.81886  0.98335  0.29410  1.0000
  C   C2184     1.0  0.77899  0.97493  0.17909  1.0000
  S   S754      1.0  0.97798  0.75722  0.14701  1.0000
  H   H2187     1.0  0.76443  0.91645  0.30096  1.0000
  C   C2185     1.0  0.95187  0.66801  0.33501  1.0000
  H   H2188     1.0  0.98141  0.82142  0.29350  1.0000
  H   H2189     1.0  0.78971  0.81630  0.22502  1.0000
  H   H2190     1.0  0.98614  0.81504  0.13995  1.0000
  H   H2191     1.0  0.94325  0.66975  0.17563  1.0000
  N   N183      1.0  0.98242  0.73001  0.08408  1.0000
  H   H2192     1.0  0.87396  0.84004  0.24229  1.0000
  H   H2193     1.0  0.87088  0.81838  0.24399  1.0000
  C   C2186     1.0  0.82635  0.80169  0.26195  1.0000
  C   C2187     1.0  0.81954  0.81767  0.25222  1.0000
  C   C2188     1.0  0.80371  0.82783  0.25899  1.0000
  C   C2189     1.0  0.79425  0.82196  0.27544  1.0000
  C   C2190     1.0  0.80126  0.80613  0.28543  1.0000
  C   C2191     1.0  0.81740  0.79606  0.27877  1.0000
  H   H2194     1.0  0.82639  0.82209  0.23920  1.0000
  H   H2195     1.0  0.79857  0.83989  0.25114  1.0000
  H   H2196     1.0  0.79403  0.80148  0.29819  1.0000
  H   H2197     1.0  0.82255  0.78371  0.28637  1.0000
  C   C2192     1.0  0.88162  0.70546  0.23466  1.0000
  C   C2193     1.0  0.86449  0.71496  0.23536  1.0000
  C   C2194     1.0  0.85372  0.71179  0.22578  1.0000
  C   C2195     1.0  0.86018  0.69938  0.21526  1.0000
  C   C2196     1.0  0.87741  0.69015  0.21442  1.0000
  C   C2197     1.0  0.88800  0.69299  0.22427  1.0000
  H   H2198     1.0  0.85949  0.72458  0.24340  1.0000
  H   H2199     1.0  0.84036  0.71891  0.22654  1.0000
  H   H2200     1.0  0.88240  0.68021  0.20684  1.0000
  H   H2201     1.0  0.90118  0.68546  0.22386  1.0000
  C   C2198     1.0  0.89322  0.73677  0.33255  1.0000
  C   C2199     1.0  0.90998  0.73841  0.32273  1.0000
  C   C2200     1.0  0.92330  0.73902  0.33089  1.0000
  C   C2201     1.0  0.91979  0.73829  0.34883  1.0000
  C   C2202     1.0  0.90291  0.73720  0.35840  1.0000
  C   C2203     1.0  0.88978  0.73629  0.35036  1.0000
  H   H2202     1.0  0.91282  0.73869  0.30897  1.0000
  H   H2203     1.0  0.93627  0.73976  0.32336  1.0000
  H   H2204     1.0  0.90005  0.73666  0.37223  1.0000
  H   H2205     1.0  0.87691  0.73502  0.35804  1.0000
  C   C2204     1.0  0.78223  0.98105  0.19245  1.0000
  Fe  Fe377     1.0  0.97135  0.78406  0.13138  1.0000
  H   H2206     1.0  0.96279  0.71499  0.09634  1.0000
  H   H2207     1.0  0.75273  0.95401  0.13427  1.0000
  Fe  Fe378     1.0  0.85460  0.65789  0.15916  1.0000
  N   N184      1.0  0.86766  0.92523  0.24377  1.0000
  C   C2205     1.0  0.80032  0.77927  0.25394  1.0000
  C   C2206     1.0  0.93254  0.92222  0.16543  1.0000
  C   C2207     1.0  0.81553  0.93694  0.27215  1.0000
  C   C2208     1.0  0.82689  0.92086  0.27509  1.0000
  C   C2209     1.0  0.82589  0.90738  0.26770  1.0000
  C   C2210     1.0  0.81326  0.90990  0.25775  1.0000
  C   C2211     1.0  0.80117  0.92558  0.25582  1.0000
  C   C2212     1.0  0.80241  0.93914  0.26288  1.0000
  H   H2208     1.0  0.83695  0.91907  0.28238  1.0000
  H   H2209     1.0  0.83507  0.89515  0.26944  1.0000
  H   H2210     1.0  0.79133  0.92753  0.24822  1.0000
  H   H2211     1.0  0.79348  0.95150  0.26077  1.0000
  S   S755      1.0  0.93899  0.68056  0.28371  1.0000
  C   C2213     1.0  0.91143  0.82949  0.24733  1.0000
  C   C2214     1.0  0.90217  0.81918  0.26119  1.0000
  C   C2215     1.0  0.90707  0.80112  0.26366  1.0000
  C   C2216     1.0  0.92112  0.79336  0.25222  1.0000
  C   C2217     1.0  0.93038  0.80370  0.23838  1.0000
  C   C2218     1.0  0.92541  0.82179  0.23580  1.0000
  H   H2212     1.0  0.89164  0.82514  0.27037  1.0000
  H   H2213     1.0  0.90053  0.79327  0.27490  1.0000
  H   H2214     1.0  0.94128  0.79771  0.22964  1.0000
  H   H2215     1.0  0.93232  0.82976  0.22482  1.0000
  C   C2219     1.0  0.91366  0.93429  0.21370  1.0000
  C   C2220     1.0  0.90653  0.95066  0.21795  1.0000
  C   C2221     1.0  0.89016  0.95998  0.21433  1.0000
  C   C2222     1.0  0.88097  0.95318  0.20603  1.0000
  C   C2223     1.0  0.88814  0.93682  0.20171  1.0000
  C   C2224     1.0  0.90428  0.92727  0.20577  1.0000
  H   H2216     1.0  0.91380  0.95628  0.22389  1.0000
  C   C2225     1.0  0.97528  0.79875  0.20078  1.0000
  H   H2217     1.0  0.88115  0.93153  0.19517  1.0000
  H   H2218     1.0  0.90968  0.91473  0.20233  1.0000
  C   C2226     1.0  0.94383  0.71791  0.13162  1.0000
  C   C2227     1.0  0.94126  0.70075  0.13733  1.0000
  C   C2228     1.0  0.92564  0.69641  0.13656  1.0000
  C   C2229     1.0  0.91249  0.70917  0.12983  1.0000
  C   C2230     1.0  0.91500  0.72637  0.12421  1.0000
  C   C2231     1.0  0.93050  0.73078  0.12531  1.0000
  H   H2219     1.0  0.95151  0.69066  0.14217  1.0000
  H   H2220     1.0  0.92397  0.68309  0.14078  1.0000
  H   H2221     1.0  0.90488  0.73633  0.11899  1.0000
  H   H2222     1.0  0.93227  0.74406  0.12096  1.0000
  C   C2232     1.0  0.96023  0.81760  0.15577  1.0000
  C   C2233     1.0  0.94875  0.82542  0.16905  1.0000
  C   C2234     1.0  0.95428  0.83608  0.17701  1.0000
  C   C2235     1.0  0.97128  0.83928  0.17150  1.0000
  H   H2223     1.0  0.93556  0.82303  0.17336  1.0000
  H   H2224     1.0  0.79054  0.97361  0.30113  1.0000
  H   H2225     1.0  0.94185  0.73305  0.25646  1.0000
  H   H2226     1.0  0.78861  0.96479  0.17359  1.0000
  C   C2236     1.0  0.93960  0.94594  0.17426  1.0000
  H   H2227     1.0  0.78501  0.77253  0.27955  1.0000
  H   H2228     1.0  0.93531  0.66341  0.32036  1.0000
  Fe  Fe379     1.0  0.99112  0.75501  0.32296  1.0000
  H   H2229     1.0  0.97538  0.77156  0.06205  1.0000
  H   H2230     1.0  0.94474  0.76691  0.07027  1.0000
  C   C2237     1.0  0.78589  0.78185  0.26737  1.0000
  H   H2231     1.0  0.87869  0.88063  0.23070  1.0000
  N   N185      1.0  0.95857  0.81096  0.29998  1.0000
  H   H2232     1.0  0.75368  0.82509  0.23831  1.0000
  C   C2238     1.0  0.94398  0.78684  0.30766  1.0000
  C   C2239     1.0  0.98266  0.83173  0.15801  1.0000
  Fe  Fe380     1.0  0.74985  0.89867  0.27672  1.0000
  H   H2233     1.0  0.94543  0.94718  0.18482  1.0000
  H   H2234     1.0  0.81309  0.78997  0.22829  1.0000
  H   H2235     1.0  0.98651  0.69153  0.25023  1.0000
  H   H2236     1.0  0.88492  0.97269  0.21747  1.0000
  C   C2240     1.0  0.98978  0.71257  0.26004  1.0000
  H   H2237     1.0  0.87328  0.67050  0.27131  1.0000
  C   C2241     1.0  0.96366  0.90046  0.17208  1.0000
  C   C2242     1.0  0.95533  0.75648  0.07397  1.0000
  C   C2243     1.0  0.75491  0.92740  0.30506  1.0000
  H   H2238     1.0  0.95539  0.70448  0.24833  1.0000
  C   C2244     1.0  0.94301  0.80679  0.28025  1.0000
  H   H2239     1.0  0.92524  0.95060  0.17807  1.0000
  C   C2245     1.0  0.95409  0.79654  0.31154  1.0000
  H   H2240     1.0  0.75166  0.82652  0.26052  1.0000
  H   H2241     1.0  0.96588  0.67671  0.34951  1.0000
  H   H2242     1.0  0.95900  0.74793  0.26710  1.0000
  H   H2243     1.0  0.89490  0.67084  0.25840  1.0000
  H   H2244     1.0  0.93074  0.78452  0.28860  1.0000
  H   H2245     1.0  0.91035  0.69844  0.31219  1.0000
  C   C2246     1.0  0.88541  0.66230  0.26533  1.0000
  H   H2246     1.0  0.93854  0.73828  0.08734  1.0000
  C   C2247     1.0  0.75037  0.96256  0.23829  1.0000
  C   C2248     1.0  0.78844  0.80655  0.23686  1.0000
  C   C2249     1.0  0.98991  0.78183  0.17336  1.0000
  S   S756      1.0  0.98059  0.85286  0.26384  1.0000
  H   H2247     1.0  0.96222  0.83443  0.30427  1.0000
  C   C2250     1.0  0.76108  0.82504  0.24813  1.0000
  H   H2248     1.0  0.95194  0.78938  0.20249  1.0000
  N   N186      1.0  0.92300  0.68469  0.33294  1.0000
  C   C2251     1.0  0.95244  0.89456  0.16535  1.0000
  C   C2252     1.0  0.88294  0.91397  0.24643  1.0000
  C   C2253     1.0  0.98044  0.70399  0.25371  1.0000
  C   C2254     1.0  0.96305  0.71131  0.25253  1.0000
  H   H2249     1.0  0.81080  0.76799  0.25563  1.0000
  C   C2255     1.0  0.87556  0.89320  0.23429  1.0000
  H   H2250     1.0  0.94474  0.95447  0.16205  1.0000
  N   N187      1.0  0.85074  0.83405  0.25948  1.0000
  C   C2256     1.0  0.83834  0.84903  0.25972  1.0000
  C   C2257     1.0  0.85094  0.82109  0.27394  1.0000
  C   C2258     1.0  0.82533  0.85105  0.27452  1.0000
  C   C2259     1.0  0.83810  0.82267  0.28895  1.0000
  C   C2260     1.0  0.82514  0.83771  0.28915  1.0000
  C   C2261     1.0  0.86406  0.83214  0.24371  1.0000
  H   H2251     1.0  0.83825  0.85943  0.24836  1.0000
  H   H2252     1.0  0.86073  0.80919  0.27375  1.0000
  H   H2253     1.0  0.81532  0.86281  0.27454  1.0000
  H   H2254     1.0  0.83797  0.81213  0.30018  1.0000
  H   H2255     1.0  0.81484  0.83897  0.30054  1.0000
  H   H2256     1.0  0.76075  0.96982  0.23542  1.0000
  C   C2262     1.0  0.95336  0.69936  0.29797  1.0000
  H   H2257     1.0  0.90924  0.72767  0.21005  1.0000
  C   C2263     1.0  0.96513  0.73554  0.26345  1.0000
  Fe  Fe381     1.0  0.75146  0.89029  0.24200  1.0000
  C   C2264     1.0  0.88873  0.73421  0.19565  1.0000
  H   H2258     1.0  0.98378  0.74721  0.27806  1.0000
  C   C2265     1.0  0.90501  0.72519  0.19940  1.0000
  H   H2259     1.0  0.87003  0.73716  0.17970  1.0000
  C   C2266     1.0  0.95537  0.72724  0.25731  1.0000
  C   C2267     1.0  0.97277  0.78097  0.18221  1.0000
  S   S757      1.0  0.86126  0.96529  0.19971  1.0000
  C   C2268     1.0  0.88279  0.73056  0.18252  1.0000
  C   C2269     1.0  0.96564  0.72729  0.08853  1.0000
  C   C2270     1.0  0.97723  0.82082  0.15028  1.0000
  C   C2271     1.0  0.93157  0.70271  0.19506  1.0000
  H   H2260     1.0  0.76733  0.83655  0.24409  1.0000
  H   H2261     1.0  0.92782  0.90086  0.15708  1.0000
  N   N188      1.0  0.94365  0.92793  0.17199  1.0000
  H   H2262     1.0  0.84393  0.92964  0.23471  1.0000
  H   H2263     1.0  0.85566  0.94007  0.26314  1.0000
  H   H2264     1.0  0.77235  0.93474  0.31700  1.0000
  C   C2272     1.0  0.99244  0.79921  0.19172  1.0000
  C   C2273     1.0  0.96542  0.78952  0.19596  1.0000
  H   H2265     1.0  0.95584  0.88146  0.16290  1.0000
  C   C2274     1.0  0.80161  0.79165  0.23856  1.0000
  H   H2266     1.0  0.92285  0.65620  0.16756  1.0000
  H   H2267     1.0  0.85488  0.95168  0.24124  1.0000
  C   C2275     1.0  0.90772  0.68925  0.32478  1.0000
  N   N189      1.0  0.91506  0.71286  0.19032  1.0000
  C   C2276     1.0  0.89315  0.71805  0.17328  1.0000
  H   H2268     1.0  0.92936  0.69017  0.20372  1.0000
  H   H2269     1.0  0.75666  0.95605  0.21306  1.0000
  C   C2277     1.0  0.86307  0.94173  0.24956  1.0000
  S   S758      1.0  0.76009  0.97430  0.15567  1.0000
  H   H2270     1.0  0.88860  0.71505  0.16310  1.0000
  C   C2278     1.0  0.97250  0.75909  0.06936  1.0000
  C   C2279     1.0  0.85619  0.92081  0.23655  1.0000
  H   H2271     1.0  0.85058  0.90119  0.22636  1.0000
  C   C2280     1.0  0.90925  0.70911  0.17754  1.0000
  C   C2281     1.0  0.75935  0.93774  0.31421  1.0000
  C   C2282     1.0  0.74806  0.95484  0.22574  1.0000
  H   H2272     1.0  0.93706  0.70966  0.20192  1.0000
  H   H2273     1.0  0.89207  0.91749  0.25211  1.0000
  C   C2283     1.0  0.96687  0.70260  0.30396  1.0000
  C   C2284     1.0  0.95309  0.81619  0.28455  1.0000
  C   C2285     1.0  0.92452  0.69484  0.34335  1.0000
  H   H2274     1.0  0.96446  0.71363  0.30988  1.0000
  C   C2286     1.0  0.93671  0.90543  0.16211  1.0000
  H   H2275     1.0  0.91696  0.69895  0.17076  1.0000
  H   H2276     1.0  0.94070  0.70804  0.29917  1.0000
  H   H2277     1.0  0.94156  0.69998  0.18335  1.0000
  H   H2278     1.0  0.89934  0.88900  0.24366  1.0000
  H   H2279     1.0  0.75343  0.93714  0.16416  1.0000
  H   H2280     1.0  0.76219  0.79918  0.27604  1.0000
  H   H2281     1.0  0.79427  0.97563  0.19720  1.0000
  C   C2287     1.0  0.77300  0.79695  0.26528  1.0000
  N   N190      1.0  0.98204  0.72805  0.26499  1.0000
  H   H2282     1.0  0.94056  0.77534  0.31682  1.0000
  H   H2283     1.0  0.93880  0.81099  0.26796  1.0000
  H   H2284     1.0  0.92032  0.93065  0.16284  1.0000
  C   C2288     1.0  0.95369  0.67865  0.34523  1.0000
  H   H2285     1.0  0.89586  0.69561  0.33305  1.0000
  S   S759      1.0  0.98114  0.75253  0.35168  1.0000
  N   N191      1.0  0.77446  0.80910  0.25019  1.0000
  S   S760      1.0  0.97889  0.85249  0.18115  1.0000
  C   C2289     1.0  0.98614  0.67712  0.29477  1.0000
  H   H2286     1.0  0.85875  0.67198  0.24859  1.0000
  C   C2290     1.0  0.95615  0.68485  0.29059  1.0000
  H   H2287     1.0  0.96769  0.92168  0.18087  1.0000
  Fe  Fe382     1.0  0.81952  0.97548  0.25324  1.0000
  C   C2291     1.0  0.93632  0.67122  0.32896  1.0000
  H   H2288     1.0  0.97381  0.81496  0.31631  1.0000
  H   H2289     1.0  0.96953  0.80589  0.21112  1.0000
  C   C2292     1.0  0.95902  0.91727  0.17539  1.0000
  C   C2293     1.0  0.97253  0.67366  0.28912  1.0000
  S   S761      1.0  0.81750  0.96805  0.22926  1.0000
  H   H2290     1.0  0.94113  0.70054  0.35744  1.0000
  H   H2291     1.0  0.91391  0.70533  0.34668  1.0000
  C   C2294     1.0  0.93987  0.69207  0.34958  1.0000
  H   H2292     1.0  0.95866  0.79222  0.32368  1.0000
  C   C2295     1.0  0.96946  0.82094  0.30383  1.0000
  H   H2293     1.0  0.96267  0.65780  0.33117  1.0000
  H   H2294     1.0  0.90473  0.67761  0.32224  1.0000
  C   C2296     1.0  0.98598  0.74563  0.07452  1.0000
  S   S762      1.0  0.76082  0.91066  0.24951  1.0000
  H   H2295     1.0  0.97579  0.89194  0.17487  1.0000
  H   H2296     1.0  0.95661  0.82767  0.27544  1.0000
  S   S763      1.0  0.97288  0.65969  0.24830  1.0000
  S   S764      1.0  0.75225  0.96363  0.33273  1.0000
  H   H2297     1.0  0.97473  0.66227  0.28370  1.0000
  C   C2297     1.0  0.76357  0.98203  0.17265  1.0000
  C   C2298     1.0  0.86779  0.66029  0.24550  1.0000
  S   S765      1.0  0.95899  0.66089  0.20572  1.0000
  C   C2299     1.0  0.74732  0.93306  0.15578  1.0000
  C   C2300     1.0  0.74694  0.94257  0.13898  1.0000
  H   H2298     1.0  0.85431  0.65870  0.22627  1.0000
  C   C2301     1.0  0.74696  0.95168  0.32005  1.0000
  C   C2302     1.0  0.93936  0.65809  0.18387  1.0000
  H   H2299     1.0  0.99032  0.67348  0.20204  1.0000
  C   C2303     1.0  0.99225  0.73678  0.27143  1.0000
  H   H2300     1.0  0.99371  0.71206  0.10409  1.0000
  H   H2301     1.0  0.99287  0.73479  0.20142  1.0000
  S   S766      1.0  0.88326  0.65396  0.14630  1.0000
  Fe  Fe383     1.0  0.99344  0.71710  0.32402  1.0000
  C   C2304     1.0  0.86520  0.65282  0.23283  1.0000
  N   N192      1.0  0.88201  0.65354  0.25316  1.0000
  Fe  Fe384     1.0  0.99417  0.77350  0.09798  1.0000
  H   H2302     1.0  0.77805  0.65154  0.14631  1.0000
  S   S767      1.0  0.93363  0.65179  0.25328  1.0000
  H   H2303     1.0  0.89098  0.65272  0.27595  1.0000
  H   H2304     1.0  0.80666  0.65123  0.12617  1.0000
  S   S768      1.0  0.85943  0.65127  0.18632  1.0000
