data_image0
_chemical_formula_structural       HFeS2FeS2FeSFeS3FeS2FeS2FeSFeHS2FeSCFeS2FeSFeS3FeS2FeS2FeHFeCS2CH2C3NHSH4C8H5C6H4C6H4SC6H4C2H4C2SCHC2H2C6H2C2HC2H2NC2HNCH2CHNHCHCNC2HC3HNH2CHC4H3SCH4CH3NH2CH2CH3C3HCH3C2HC2H2CHCHC4H3C2H2CH2CH6CHSFeS2FeS2FeSFeS3FeS2FeS2FeS2FeSFeS3FeS2FeS2FeSFeCS2C6H5CH3CH2C5H2C6H4C6H4C6H4CHCH2C4HCHC8H6SFeCHCH2CNCHNH2NC6H8NC6H9CHC3HCSH3NCH4CH2C4H4CHCHC2NC6H6SCHNHCHCHCH2CH3CHCSC3NH4CSH2NC2H2CHC4H4C2H4CNHCH2FeS2H2C2HFeS2FeS2FeSFeS4FeS2HSFeSFeS2CHFeS2FeCHSCSCFeSFeS2FeSFeS3FeS2C6HCH2C6H4C2H2C2HCH4CH3C6H4C6H4C6H5SC8H4Fe2NHCHSC2HCSC3H2CNC6H9C2H2CHC3H6SH2NC3H7C3HCHCH3NHN2C6H5SH2S2HFeC2Fe2HCH2SFeSHFeSFeSHCSFeS2FeSFeS3FeCSFeNH2NCFeS2FeS2FeS2HFeSCS3HC8H4C6H4C5H5C6H4C2HC4NSC7H6SNCHSCHC2HCHCHCHC3H3CHNCH5CHC2SH4C4SHCHC2H5FeH2CHFeCHNCHCHCH3FeS2FeS2FeSFeS3FeS2FeS2FeSFeS3FeS2FeS2FeSFeS3FeS2FeS2FeSFeS3CHC2HCH2C3HC3H3C4H2CHC6H4CHC4H3C6H5C5H4C6H4C6H4CHC4H5C3HCHC3NH4C2HC3H3C2HC4HC2H2C3H3CHNC6H8NC6H8NC6H2CH4C2HC2H2C2H5CHNC6H8NC2HC4HCN2C4SC2HC4SCH6C2HCNCNHCHCH3NHCH2CHCH3CHCH2C4HCHCH4NH2C2H2SHSHSCFeSHFeS2CFeS3FeSCFeS2FeS2FeS2FeS2FeSFeS3FeS2FeS2FeSFeS3HC4H2C2HC6H4C2H2C2HNH2C6H4C6H4C6H4CHSC8H3C5HCH2C5NCH2CSHCHNC2HC4HCHFeH4CNHC2NH2CN2C6H12CH5CH3CHCSC2FeHCH2CH8CHCH2CH3SHCH3C2HCHCHC4HCNHNC3HCS2HCSHFeSCSHFeS2HCFeHFeCS2FeS2FeHCFeH2SFeS2N2FeHCSHC6H4C2HC5HNHSCSHC2HCHC6H4FeHCFe2CH4CH3C3FeH5SCHSC2SHSC3HNC6H6S2FeH7CHC2H2CSH3SHCH2NHCHC4H4C3H6C2HCHFeSH3SC3S3C3HC6H4CH2CHNH2C2H2FeCFeCHCHC2H2SHS2CFeS3FeSCFeCHCSHCFeS2FeSFeS3H2CSH3FeS2C6H4C6H4C4SCHFeCSCHC2H6C4HCHCH2C3SH2CHC4HC4H2C6H5CFeH3CHC2HCHCHCSHCNSC2HSCH2CHSNC6H8CHNSC2HSHCH2C2FeHSH5C2SCFeHCSNH2CNHC2H2CH2C2SHNCSCH5CSH3CHCHCSFeCH2CNFeCHFeCSCSHSFeSHFeS2FeSFeSCSCFeS2FeS5FeS2FeS2FeSFeS4FeS2FeS2FeSFeS4FeHS2CSHC5H2C6H4C6HCH2C6H4C6H4C6H4C6H4C6H4CHC2H2C7SH2C4NCH4C7H5C2HC2HCH4FeSC3SC2HC4H2N2C6H8NC6H8NC6H2NFeH3NH3CHCH3C4H2SH6CH3FeCH4CH2CSHCNHNHC2FeHCHC2HCH4CSC2H5CFeCH3C2HCSNHCH3FeNH2C3HSNHCHC2HCHFeHNC4SHSHCH5CH2CHCHCH2CH2CH2C3HCH2SNH2CH2NCH3CH2CHSC2H3C2HC2H2CHSFe2S2FeS2FeCFeS3FeS2FeSNFeSFeS3FeS2FeS2FeSFeCS2FeS2FeS2FeSFeHS2C2NCHSC3HC7H4C6H4C6H5C8H6CH5C4NHC7H6CH2CHCHCH2CH2CNCSH2CH3C5NC6H10C2H2CH2NCNH3CH5CH2C3HCH2CHCH3CHC4H2CH3CSFeS2FeH2FeS2HSHFeS2FeS2FeSFeS3FeS2FeSHFeSFeS3FeS2FeS2FeSFeS3C7H4C6H4C6H4C6H4C6H5C2NH2CHC2HC6H4CH3C5H3NCH2C2HCH2CH2CHNC6H8NCHC2HSC5SH2CH6CHCH4C2HC2NHCH2CHC2H3CHNC2SH3SNC6H8CHCNH2CNHC2HCH2C2HC2HCHCH2CH6FeS2C2SHS2FeS2FeS2FeSFeS4CFeSCFeHFe2S3CFeSC2FeSCSCH2SFeS2FeS3CFeSFeS3HC6H4C6HCHNC3H2FeSCFeSC6H4C6H4C6H5C6H4C2HCHCNH3NH2CSC2NC6H8NC6H8NC6H7CNC2H6SCHC3SH2CH3CHNCHC2HCFeCH2CH3CH3SCNH2CH2SCH3FeHC2H3C3HCFeHC2H4CFeSCFeCSCFeSCSHSFeSCFeSFeHFeH2SH3CH2C2SFeCSFeHSHSNSHS2C4HCSFeCHC5H8FeH2CHC7H3CSHC2SC2H2C4HCSCSHNC4H5CNCHC3HCHCNC4HSHC2SH3NCH2SH3Fe3CFeH2CHCHCH4CH
_chemical_formula_sum              "H1296 Fe216 S432 C1296 N108"
_cell_length_a       51.8587
_cell_length_b       54.8354
_cell_length_c       106.727
_cell_angle_alpha    86.8777
_cell_angle_beta     90.2146
_cell_angle_gamma    109.78

_space_group_name_H-M_alt    "P 1"
_space_group_IT_number       1

loop_
  _space_group_symop_operation_xyz
  'x, y, z'

loop_
  _atom_site_type_symbol
  _atom_site_label
  _atom_site_symmetry_multiplicity
  _atom_site_fract_x
  _atom_site_fract_y
  _atom_site_fract_z
  _atom_site_occupancy
  H   H1        1.0  0.39950  0.37692  0.02640  1.0000
  Fe  Fe1       1.0  0.05630  0.36999  0.05036  1.0000
  S   S1        1.0  0.08067  0.40795  0.04044  1.0000
  S   S2        1.0  0.02322  0.33653  0.04119  1.0000
  Fe  Fe2       1.0  0.08724  0.38613  0.07551  1.0000
  S   S3        1.0  0.11291  0.42516  0.06706  1.0000
  S   S4        1.0  0.09784  0.37317  0.09503  1.0000
  Fe  Fe3       1.0  0.07397  0.42584  0.05807  1.0000
  S   S5        1.0  0.05785  0.45933  0.05760  1.0000
  Fe  Fe4       1.0  0.11741  0.40343  0.05043  1.0000
  S   S6        1.0  0.15839  0.41338  0.04022  1.0000
  S   S7        1.0  0.04753  0.38805  0.06767  1.0000
  S   S8        1.0  0.09376  0.36416  0.05918  1.0000
  Fe  Fe5       1.0  0.34300  0.37381  0.04512  1.0000
  S   S9        1.0  0.32349  0.40347  0.03928  1.0000
  S   S10       1.0  0.34274  0.34282  0.03149  1.0000
  Fe  Fe6       1.0  0.35465  0.39479  0.07175  1.0000
  S   S11       1.0  0.33707  0.42639  0.06742  1.0000
  S   S12       1.0  0.37473  0.39173  0.09053  1.0000
  Fe  Fe7       1.0  0.30279  0.39547  0.05831  1.0000
  S   S13       1.0  0.25800  0.38536  0.06449  1.0000
  Fe  Fe8       1.0  0.35949  0.43140  0.04890  1.0000
  H   H2        1.0  0.22443  0.46255  0.15082  1.0000
  S   S14       1.0  0.31968  0.36348  0.06360  1.0000
  S   S15       1.0  0.37974  0.40200  0.05381  1.0000
  Fe  Fe9       1.0  0.13855  0.44684  0.18345  1.0000
  S   S16       1.0  0.09286  0.43304  0.18236  1.0000
  C   C1        1.0  0.22048  0.42323  0.08053  1.0000
  Fe  Fe10      1.0  0.14054  0.39294  0.18265  1.0000
  S   S17       1.0  0.09476  0.37432  0.18142  1.0000
  S   S18       1.0  0.16980  0.37084  0.18314  1.0000
  Fe  Fe11      1.0  0.09837  0.40767  0.16730  1.0000
  S   S19       1.0  0.07572  0.40742  0.14882  1.0000
  Fe  Fe12      1.0  0.09391  0.40142  0.19653  1.0000
  S   S20       1.0  0.06767  0.39454  0.21432  1.0000
  S   S21       1.0  0.14426  0.42407  0.16757  1.0000
  S   S22       1.0  0.13934  0.41735  0.19860  1.0000
  Fe  Fe13      1.0  0.33396  0.39564  0.16110  1.0000
  S   S23       1.0  0.34101  0.43806  0.16226  1.0000
  S   S24       1.0  0.31257  0.37946  0.14315  1.0000
  Fe  Fe14      1.0  0.35399  0.39188  0.18856  1.0000
  S   S25       1.0  0.36327  0.43424  0.19099  1.0000
  S   S26       1.0  0.35896  0.36458  0.20447  1.0000
  Fe  Fe15      1.0  0.32272  0.42762  0.18166  1.0000
  H   H3        1.0  0.16029  0.42596  0.22525  1.0000
  Fe  Fe16      1.0  0.38035  0.43948  0.17130  1.0000
  C   C2        1.0  0.29663  0.34633  0.22452  1.0000
  S   S27       1.0  0.31270  0.38497  0.17996  1.0000
  S   S28       1.0  0.37436  0.39738  0.16938  1.0000
  C   C3        1.0  0.36280  0.36680  0.22102  1.0000
  H   H4        1.0  0.28365  0.40558  0.15737  1.0000
  H   H5        1.0  0.28601  0.40216  0.21471  1.0000
  C   C4        1.0  0.34520  0.32530  0.09002  1.0000
  C   C5        1.0  0.39589  0.34186  0.06324  1.0000
  C   C6        1.0  0.10617  0.35691  0.02683  1.0000
  N   N1        1.0  0.19575  0.42659  0.07865  1.0000
  H   H6        1.0  0.30008  0.32959  0.22085  1.0000
  S   S29       1.0  0.38583  0.46837  0.03837  1.0000
  H   H7        1.0  0.03483  0.29695  0.02632  1.0000
  H   H8        1.0  0.15340  0.41416  0.08401  1.0000
  H   H9        1.0  0.41525  0.45128  0.01610  1.0000
  H   H10       1.0  0.38683  0.45113  0.14105  1.0000
  C   C7        1.0  0.19937  0.38747  0.09553  1.0000
  C   C8        1.0  0.36084  0.38755  0.22775  1.0000
  C   C9        1.0  0.20288  0.39064  0.18705  1.0000
  C   C10       1.0  0.22389  0.38007  0.18790  1.0000
  C   C11       1.0  0.25109  0.39627  0.18926  1.0000
  C   C12       1.0  0.25748  0.42311  0.18960  1.0000
  C   C13       1.0  0.23624  0.43347  0.18964  1.0000
  C   C14       1.0  0.20897  0.41728  0.18828  1.0000
  H   H11       1.0  0.21923  0.35942  0.18715  1.0000
  H   H12       1.0  0.26695  0.38787  0.18992  1.0000
  H   H13       1.0  0.24095  0.45418  0.19015  1.0000
  H   H14       1.0  0.19289  0.42564  0.18767  1.0000
  H   H15       1.0  0.24200  0.40007  0.08985  1.0000
  C   C15       1.0  0.35689  0.38755  0.10506  1.0000
  C   C16       1.0  0.37127  0.38801  0.11629  1.0000
  C   C17       1.0  0.35807  0.38587  0.12802  1.0000
  C   C18       1.0  0.33011  0.38242  0.12863  1.0000
  C   C19       1.0  0.31559  0.38135  0.11739  1.0000
  C   C20       1.0  0.32897  0.38423  0.10566  1.0000
  H   H16       1.0  0.39284  0.39038  0.11593  1.0000
  H   H17       1.0  0.36941  0.38647  0.13660  1.0000
  H   H18       1.0  0.29391  0.37851  0.11778  1.0000
  H   H19       1.0  0.31762  0.38373  0.09708  1.0000
  C   C21       1.0  0.18566  0.40397  0.04637  1.0000
  C   C22       1.0  0.21235  0.41613  0.04145  1.0000
  C   C23       1.0  0.23471  0.41003  0.04655  1.0000
  C   C24       1.0  0.23047  0.39141  0.05653  1.0000
  C   C25       1.0  0.20361  0.37866  0.06116  1.0000
  C   C26       1.0  0.18136  0.38506  0.05620  1.0000
  H   H20       1.0  0.21587  0.43073  0.03380  1.0000
  H   H21       1.0  0.25525  0.42004  0.04291  1.0000
  H   H22       1.0  0.20009  0.36413  0.06883  1.0000
  H   H23       1.0  0.16093  0.37541  0.06003  1.0000
  S   S30       1.0  0.42016  0.46660  0.16314  1.0000
  C   C27       1.0  0.09552  0.38664  0.10961  1.0000
  C   C28       1.0  0.10655  0.37809  0.12036  1.0000
  C   C29       1.0  0.10235  0.38580  0.13237  1.0000
  C   C30       1.0  0.08661  0.40180  0.13378  1.0000
  C   C31       1.0  0.07643  0.41108  0.12297  1.0000
  C   C32       1.0  0.08110  0.40380  0.11093  1.0000
  H   H24       1.0  0.11766  0.36475  0.11947  1.0000
  H   H25       1.0  0.11009  0.37830  0.14060  1.0000
  H   H26       1.0  0.06427  0.42349  0.12396  1.0000
  H   H27       1.0  0.07266  0.41072  0.10276  1.0000
  C   C33       1.0  0.25754  0.42882  0.15864  1.0000
  C   C34       1.0  0.26286  0.40577  0.15715  1.0000
  H   H28       1.0  0.29225  0.36305  0.20627  1.0000
  H   H29       1.0  0.15608  0.37914  0.09885  1.0000
  H   H30       1.0  0.42217  0.98895  0.99373  1.0000
  H   H31       1.0  0.17418  0.44022  0.06445  1.0000
  C   C35       1.0  0.00993  0.35542  0.01797  1.0000
  C   C36       1.0  0.00349  0.33510  0.02724  1.0000
  S   S31       1.0  0.43034  0.34554  0.98897  1.0000
  C   C37       1.0  0.42142  0.45159  0.12997  1.0000
  H   H32       1.0  0.02646  0.37331  0.01948  1.0000
  C   C38       1.0  0.34963  0.44907  0.12348  1.0000
  C   C39       1.0  0.36665  0.34568  0.22771  1.0000
  H   H33       1.0  0.43327  0.37658  0.00999  1.0000
  H   H34       1.0  0.12459  0.39510  0.01794  1.0000
  C   C40       1.0  0.40683  0.34228  0.00161  1.0000
  C   C41       1.0  0.38119  0.32263  0.00252  1.0000
  C   C42       1.0  0.36212  0.32275  0.01192  1.0000
  C   C43       1.0  0.36830  0.34257  0.02045  1.0000
  C   C44       1.0  0.39428  0.36169  0.01984  1.0000
  C   C45       1.0  0.41341  0.36143  0.01051  1.0000
  H   H35       1.0  0.37582  0.30769  0.99579  1.0000
  H   H36       1.0  0.34220  0.30767  0.01238  1.0000
  C   C46       1.0  0.17298  0.41136  0.08533  1.0000
  C   C47       1.0  0.02016  0.36145  0.13433  1.0000
  H   H37       1.0  0.39595  0.35383  0.08205  1.0000
  C   C48       1.0  0.14939  0.42975  0.23316  1.0000
  C   C49       1.0  0.38408  0.34117  0.07508  1.0000
  H   H38       1.0  0.05212  0.34530  0.00083  1.0000
  H   H39       1.0  0.41653  0.35492  0.06107  1.0000
  N   N2        1.0  0.06547  0.32929  0.01725  1.0000
  C   C50       1.0  0.08452  0.33329  0.02652  1.0000
  C   C51       1.0  0.06729  0.34841  0.00816  1.0000
  H   H40       1.0  0.00097  0.36810  0.99943  1.0000
  N   N3        1.0  0.37782  0.44972  0.12151  1.0000
  C   C52       1.0  0.29056  0.39016  0.23404  1.0000
  H   H41       1.0  0.02687  0.37409  0.09684  1.0000
  H   H42       1.0  0.08289  0.31823  0.03381  1.0000
  C   C53       1.0  0.04383  0.30388  0.01679  1.0000
  H   H43       1.0  0.19712  0.36513  0.15524  1.0000
  N   N4        1.0  0.23118  0.42890  0.15874  1.0000
  H   H44       1.0  0.02668  0.30486  0.01072  1.0000
  C   C54       1.0  0.43138  0.45111  0.11789  1.0000
  H   H45       1.0  0.36624  0.42738  0.02054  1.0000
  C   C55       1.0  0.10803  0.37659  0.01768  1.0000
  N   N5        1.0  0.02705  0.35062  0.11337  1.0000
  C   C56       1.0  0.01631  0.36347  0.12138  1.0000
  C   C57       1.0  0.04107  0.33501  0.11795  1.0000
  H   H46       1.0  0.33620  0.43958  0.11573  1.0000
  C   C58       1.0  0.04517  0.33244  0.13086  1.0000
  C   C59       1.0  0.03479  0.34592  0.13907  1.0000
  C   C60       1.0  0.02305  0.35341  0.09982  1.0000
  H   H47       1.0  0.05716  0.32085  0.13444  1.0000
  N   N6        1.0  0.37568  0.39329  0.99649  1.0000
  H   H48       1.0  0.20653  0.44979  0.16554  1.0000
  H   H49       1.0  0.05004  0.32520  0.11159  1.0000
  C   C61       1.0  0.41748  0.42763  0.00081  1.0000
  H   H50       1.0  0.43430  0.45217  0.13808  1.0000
  C   C62       1.0  0.07807  0.38350  0.22876  1.0000
  C   C63       1.0  0.09918  0.37299  0.22930  1.0000
  C   C64       1.0  0.34260  0.30985  0.06880  1.0000
  C   C65       1.0  0.35385  0.30992  0.05691  1.0000
  H   H51       1.0  0.35782  0.40400  0.22272  1.0000
  H   H52       1.0  0.03892  0.34517  0.14904  1.0000
  H   H53       1.0  0.34933  0.46911  0.12410  1.0000
  S   S32       1.0  0.29173  0.44424  0.18885  1.0000
  C   C66       1.0  0.12789  0.43932  0.23114  1.0000
  H   H54       1.0  0.27458  0.44642  0.16015  1.0000
  H   H55       1.0  0.20063  0.37173  0.10184  1.0000
  H   H56       1.0  0.08959  0.38768  0.00119  1.0000
  H   H57       1.0  0.36089  0.33354  0.09720  1.0000
  C   C67       1.0  0.08843  0.37242  0.00829  1.0000
  H   H58       1.0  0.24512  0.36471  0.15492  1.0000
  H   H59       1.0  0.24241  0.46699  0.16558  1.0000
  H   H60       1.0  0.34159  0.29828  0.04969  1.0000
  N   N7        1.0  0.35781  0.32513  0.07776  1.0000
  H   H61       1.0  0.38927  0.32675  0.04480  1.0000
  H   H62       1.0  0.21035  0.45232  0.06243  1.0000
  C   C68       1.0  0.21432  0.38305  0.15580  1.0000
  H   H63       1.0  0.33189  0.33749  0.08923  1.0000
  H   H64       1.0  0.45209  0.45111  0.11650  1.0000
  C   C69       1.0  0.99542  0.35236  0.00657  1.0000
  H   H65       1.0  0.36826  0.32959  0.22270  1.0000
  H   H66       1.0  0.32146  0.29784  0.07074  1.0000
  H   H67       1.0  0.23850  0.43496  0.07511  1.0000
  C   C70       1.0  0.41444  0.45035  0.10761  1.0000
  C   C71       1.0  0.40274  0.40669  0.99378  1.0000
  C   C72       1.0  0.29245  0.36527  0.21631  1.0000
  H   H68       1.0  0.42170  0.44947  0.09817  1.0000
  C   C73       1.0  0.38066  0.32605  0.05413  1.0000
  H   H69       1.0  0.10911  0.37092  0.22071  1.0000
  H   H70       1.0  0.37445  0.44873  0.10155  1.0000
  H   H71       1.0  0.33273  0.30532  0.09349  1.0000
  C   C74       1.0  0.19369  0.44704  0.06966  1.0000
  C   C75       1.0  0.39446  0.45098  0.13161  1.0000
  H   H72       1.0  0.12173  0.44265  0.22164  1.0000
  C   C76       1.0  0.22262  0.40350  0.08891  1.0000
  C   C77       1.0  0.17440  0.39151  0.09381  1.0000
  H   H73       1.0  0.01296  0.37274  0.14063  1.0000
  H   H74       1.0  0.00548  0.37608  0.11775  1.0000
  C   C78       1.0  0.38763  0.44991  0.10959  1.0000
  H   H75       1.0  0.18877  0.40635  0.15750  1.0000
  C   C79       1.0  0.36252  0.40053  0.00595  1.0000
  H   H76       1.0  0.34498  0.35626  0.99474  1.0000
  C   C80       1.0  0.24112  0.38276  0.15577  1.0000
  C   C81       1.0  0.20972  0.40649  0.15716  1.0000
  C   C82       1.0  0.40424  0.43510  0.01050  1.0000
  C   C83       1.0  0.98186  0.31199  0.02499  1.0000
  H   H77       1.0  0.05231  0.28956  0.01313  1.0000
  H   H78       1.0  0.00184  0.34159  0.09737  1.0000
  H   H79       1.0  0.43316  0.46240  0.19202  1.0000
  C   C84       1.0  0.37659  0.42156  0.01305  1.0000
  C   C85       1.0  0.28920  0.38728  0.22106  1.0000
  H   H80       1.0  0.12136  0.36008  0.03415  1.0000
  H   H81       1.0  0.43906  0.43782  0.99882  1.0000
  C   C86       1.0  0.36034  0.37177  0.98888  1.0000
  H   H82       1.0  0.34115  0.38977  0.00821  1.0000
  H   H83       1.0  0.03768  0.34718  0.09431  1.0000
  C   C87       1.0  0.22592  0.45328  0.16017  1.0000
  H   H84       1.0  0.34067  0.43746  0.13227  1.0000
  H   H85       1.0  0.12456  0.47650  0.16550  1.0000
  H   H86       1.0  0.19461  0.46455  0.07464  1.0000
  H   H87       1.0  0.39978  0.47108  0.06479  1.0000
  H   H88       1.0  0.41328  0.40068  0.98640  1.0000
  H   H89       1.0  0.11745  0.48141  0.05762  1.0000
  C   C88       1.0  0.44126  0.48235  0.19474  1.0000
  H   H90       1.0  0.36699  0.35818  0.33549  1.0000
  S   S33       1.0  0.21004  0.01147  0.37121  1.0000
  Fe  Fe17      1.0  0.23021  0.20095  0.40279  1.0000
  S   S34       1.0  0.20372  0.16164  0.39712  1.0000
  S   S35       1.0  0.21647  0.20915  0.42203  1.0000
  Fe  Fe18      1.0  0.25936  0.21519  0.37644  1.0000
  S   S36       1.0  0.23482  0.17592  0.36953  1.0000
  S   S37       1.0  0.29207  0.24203  0.36240  1.0000
  Fe  Fe19      1.0  0.19901  0.18211  0.37899  1.0000
  S   S38       1.0  0.15884  0.17652  0.36927  1.0000
  Fe  Fe20      1.0  0.24169  0.15878  0.38837  1.0000
  S   S39       1.0  0.25406  0.12340  0.39371  1.0000
  S   S40       1.0  0.22284  0.22196  0.38498  1.0000
  S   S41       1.0  0.26902  0.19741  0.39491  1.0000
  Fe  Fe21      1.0  0.01932  0.16512  0.39635  1.0000
  S   S42       1.0  0.05467  0.15457  0.40434  1.0000
  S   S43       1.0  0.01443  0.20351  0.39897  1.0000
  Fe  Fe22      1.0  0.09952  0.37100  0.28567  1.0000
  S   S44       1.0  0.12653  0.41049  0.29072  1.0000
  S   S45       1.0  0.10594  0.35724  0.26661  1.0000
  Fe  Fe23      1.0  0.07180  0.35749  0.31202  1.0000
  S   S46       1.0  0.09626  0.39705  0.31869  1.0000
  S   S47       1.0  0.03711  0.32619  0.32334  1.0000
  Fe  Fe24      1.0  0.08898  0.41382  0.29974  1.0000
  S   S48       1.0  0.07673  0.44885  0.29332  1.0000
  Fe  Fe25      1.0  0.13185  0.39072  0.30895  1.0000
  S   S49       1.0  0.17344  0.39910  0.31766  1.0000
  S   S50       1.0  0.06133  0.37481  0.29371  1.0000
  S   S51       1.0  0.10799  0.35058  0.30330  1.0000
  Fe  Fe26      1.0  0.35451  0.37964  0.28063  1.0000
  S   S52       1.0  0.34918  0.41842  0.27844  1.0000
  S   S53       1.0  0.36804  0.36152  0.26432  1.0000
  Fe  Fe27      1.0  0.33182  0.36851  0.30817  1.0000
  S   S54       1.0  0.32603  0.40757  0.30742  1.0000
  S   S55       1.0  0.31037  0.34520  0.32628  1.0000
  Fe  Fe28      1.0  0.30882  0.39823  0.28836  1.0000
  S   S56       1.0  0.26861  0.39904  0.28051  1.0000
  Fe  Fe29      1.0  0.36748  0.42447  0.29772  1.0000
  C   C89       1.0  0.97990  0.19425  0.46201  1.0000
  S   S57       1.0  0.31285  0.35886  0.28927  1.0000
  S   S58       1.0  0.37483  0.38613  0.29970  1.0000
  C   C90       1.0  0.20008  0.40034  0.30717  1.0000
  C   C91       1.0  0.19462  0.39444  0.29463  1.0000
  C   C92       1.0  0.21589  0.39440  0.28653  1.0000
  C   C93       1.0  0.24268  0.39994  0.29093  1.0000
  C   C94       1.0  0.24814  0.40570  0.30348  1.0000
  C   C95       1.0  0.22690  0.40598  0.31156  1.0000
  H   H91       1.0  0.17397  0.38974  0.29119  1.0000
  H   H92       1.0  0.21151  0.38987  0.27684  1.0000
  H   H93       1.0  0.26875  0.41020  0.30693  1.0000
  H   H94       1.0  0.23120  0.41047  0.32126  1.0000
  H   H95       1.0  0.16975  0.20668  0.39815  1.0000
  C   C96       1.0  0.20856  0.13738  0.44087  1.0000
  H   H96       1.0  0.00096  0.20626  0.43117  1.0000
  H   H97       1.0  0.06992  0.30307  0.28132  1.0000
  H   H98       1.0  0.27680  0.36503  0.26013  1.0000
  C   C97       1.0  0.09418  0.48194  0.29625  1.0000
  H   H99       1.0  0.44410  0.45308  0.29685  1.0000
  H   H100      1.0  0.15358  0.20458  0.41303  1.0000
  C   C98       1.0  0.00677  0.26496  0.34932  1.0000
  C   C99       1.0  0.00943  0.28531  0.34010  1.0000
  C   C100      1.0  0.03527  0.30095  0.33514  1.0000
  C   C101      1.0  0.05848  0.29569  0.33948  1.0000
  C   C102      1.0  0.00385  0.09127  0.39444  1.0000
  H   H101      1.0  0.36409  0.44215  0.34299  1.0000
  H   H102      1.0  0.07853  0.30742  0.33583  1.0000
  C   C103      1.0  0.08326  0.16049  0.39442  1.0000
  C   C104      1.0  0.08336  0.17003  0.38200  1.0000
  C   C105      1.0  0.10642  0.17424  0.37423  1.0000
  C   C106      1.0  0.12964  0.16948  0.37894  1.0000
  C   C107      1.0  0.12937  0.15969  0.39132  1.0000
  C   C108      1.0  0.10621  0.15514  0.39904  1.0000
  H   H103      1.0  0.06578  0.17427  0.37837  1.0000
  H   H104      1.0  0.10652  0.18179  0.36464  1.0000
  H   H105      1.0  0.14697  0.15557  0.39497  1.0000
  H   H106      1.0  0.10613  0.14759  0.40863  1.0000
  C   C109      1.0  0.29571  0.27005  0.35203  1.0000
  C   C110      1.0  0.27946  0.28572  0.35315  1.0000
  C   C111      1.0  0.28419  0.30839  0.34517  1.0000
  C   C112      1.0  0.30484  0.31563  0.33575  1.0000
  C   C113      1.0  0.32078  0.29974  0.33447  1.0000
  C   C114      1.0  0.31641  0.27735  0.34262  1.0000
  H   H107      1.0  0.26362  0.28066  0.36035  1.0000
  H   H108      1.0  0.27179  0.32046  0.34641  1.0000
  H   H109      1.0  0.33677  0.30482  0.32735  1.0000
  H   H110      1.0  0.32922  0.26555  0.34164  1.0000
  C   C115      1.0  0.22020  0.04159  0.37851  1.0000
  C   C116      1.0  0.21058  0.06136  0.37379  1.0000
  C   C117      1.0  0.21999  0.08626  0.37863  1.0000
  C   C118      1.0  0.23941  0.09174  0.38815  1.0000
  C   C119      1.0  0.24876  0.07188  0.39297  1.0000
  C   C120      1.0  0.23916  0.04692  0.38822  1.0000
  H   H111      1.0  0.19594  0.05744  0.36628  1.0000
  H   H112      1.0  0.21262  0.10133  0.37482  1.0000
  H   H113      1.0  0.26386  0.07591  0.40029  1.0000
  H   H114      1.0  0.24689  0.03197  0.39188  1.0000
  C   C121      1.0  0.45005  0.47352  0.29851  1.0000
  H   H115      1.0  0.30961  0.12576  0.37756  1.0000
  C   C122      1.0  0.36604  0.36509  0.24767  1.0000
  H   H116      1.0  0.05704  0.09849  0.39513  1.0000
  H   H117      1.0  0.21450  0.12919  0.47245  1.0000
  C   C123      1.0  0.00071  0.31199  0.28805  1.0000
  C   C124      1.0  0.05014  0.30497  0.28320  1.0000
  C   C125      1.0  0.09488  0.36768  0.25220  1.0000
  C   C126      1.0  0.07371  0.37814  0.25169  1.0000
  H   H118      1.0  0.06364  0.38000  0.26026  1.0000
  C   C127      1.0  0.01468  0.10390  0.37208  1.0000
  H   H119      1.0  0.17662  0.23551  0.40681  1.0000
  C   C128      1.0  0.11342  0.44324  0.24144  1.0000
  C   C129      1.0  0.14122  0.42833  0.25547  1.0000
  C   C130      1.0  0.24491  0.19538  0.46213  1.0000
  C   C131      1.0  0.21880  0.19685  0.46005  1.0000
  C   C132      1.0  0.21055  0.20120  0.44774  1.0000
  C   C133      1.0  0.22808  0.20373  0.43733  1.0000
  C   C134      1.0  0.25420  0.20229  0.43942  1.0000
  C   C135      1.0  0.26258  0.19831  0.45174  1.0000
  H   H120      1.0  0.20503  0.19479  0.46793  1.0000
  H   H121      1.0  0.19043  0.20256  0.44627  1.0000
  H   H122      1.0  0.26818  0.20480  0.43157  1.0000
  H   H123      1.0  0.28291  0.19747  0.45325  1.0000
  H   H124      1.0  0.00206  0.29266  0.30595  1.0000
  H   H125      1.0  0.04949  0.32451  0.26513  1.0000
  S   S59       1.0  0.02817  0.23438  0.36544  1.0000
  Fe  Fe30      1.0  0.00026  0.20111  0.37879  1.0000
  C   C136      1.0  0.24597  0.13273  0.45866  1.0000
  H   H126      1.0  0.14243  0.21309  0.47186  1.0000
  C   C137      1.0  0.04821  0.17844  0.48264  1.0000
  H   H127      1.0  0.12348  0.35653  0.24123  1.0000
  H   H128      1.0  0.07397  0.27163  0.35198  1.0000
  C   C138      1.0  0.06519  0.38577  0.24001  1.0000
  N   N8        1.0  0.23423  0.13865  0.43716  1.0000
  C   C139      1.0  0.24174  0.14336  0.42378  1.0000
  H   H129      1.0  0.19417  0.14015  0.43400  1.0000
  N   N9        1.0  0.03666  0.29569  0.29439  1.0000
  H   H130      1.0  0.24203  0.16302  0.42048  1.0000
  H   H131      1.0  0.26228  0.14212  0.42180  1.0000
  N   N10       1.0  0.23114  0.34383  0.31533  1.0000
  C   C140      1.0  0.20547  0.33990  0.31072  1.0000
  C   C141      1.0  0.23641  0.34830  0.32772  1.0000
  C   C142      1.0  0.18439  0.34102  0.31856  1.0000
  C   C143      1.0  0.21585  0.34976  0.33579  1.0000
  C   C144      1.0  0.18975  0.34632  0.33113  1.0000
  C   C145      1.0  0.25335  0.34328  0.30705  1.0000
  H   H132      1.0  0.20141  0.33688  0.30085  1.0000
  H   H133      1.0  0.25679  0.35126  0.33133  1.0000
  H   H134      1.0  0.16442  0.33922  0.31478  1.0000
  H   H135      1.0  0.22028  0.35402  0.34553  1.0000
  H   H136      1.0  0.17386  0.34844  0.33712  1.0000
  H   H137      1.0  0.27182  0.36054  0.30837  1.0000
  H   H138      1.0  0.25866  0.32554  0.30931  1.0000
  H   H139      1.0  0.24799  0.34402  0.29697  1.0000
  N   N11       1.0  0.27004  0.08402  0.35728  1.0000
  C   C146      1.0  0.25785  0.09991  0.35131  1.0000
  C   C147      1.0  0.28889  0.09322  0.36642  1.0000
  C   C148      1.0  0.26400  0.12559  0.35465  1.0000
  C   C149      1.0  0.29559  0.11881  0.36994  1.0000
  C   C150      1.0  0.28295  0.13502  0.36405  1.0000
  C   C151      1.0  0.26368  0.05733  0.35350  1.0000
  H   H140      1.0  0.24285  0.09259  0.34410  1.0000
  H   H141      1.0  0.29827  0.08056  0.37128  1.0000
  H   H142      1.0  0.25379  0.13799  0.35016  1.0000
  H   H143      1.0  0.09238  0.42258  0.26868  1.0000
  H   H144      1.0  0.34845  0.39358  0.33814  1.0000
  H   H145      1.0  0.26657  0.04439  0.36138  1.0000
  H   H146      1.0  0.24179  0.04888  0.35084  1.0000
  H   H147      1.0  0.27696  0.05687  0.34546  1.0000
  H   H148      1.0  0.98172  0.31516  0.29022  1.0000
  C   C152      1.0  0.01234  0.29922  0.29691  1.0000
  H   H149      1.0  0.37153  0.32833  0.24570  1.0000
  C   C153      1.0  0.06920  0.10913  0.37583  1.0000
  C   C154      1.0  0.37980  0.37821  0.33329  1.0000
  C   C155      1.0  0.40644  0.38400  0.32865  1.0000
  H   H150      1.0  0.05233  0.14063  0.48315  1.0000
  C   C156      1.0  0.29708  0.37515  0.25554  1.0000
  S   S60       1.0  0.25600  0.18886  0.47739  1.0000
  H   H151      1.0  0.09062  0.11174  0.37748  1.0000
  H   H152      1.0  0.22673  0.12872  0.41816  1.0000
  H   H153      1.0  0.10305  0.15808  0.48256  1.0000
  N   N12       1.0  0.29540  0.37179  0.24199  1.0000
  C   C157      1.0  0.23526  0.01539  0.43831  1.0000
  H   H154      1.0  0.98675  0.25337  0.35306  1.0000
  H   H155      1.0  0.21837  0.99162  0.42295  1.0000
  H   H156      1.0  0.17216  0.41588  0.24707  1.0000
  H   H157      1.0  0.24915  0.03087  0.43234  1.0000
  C   C158      1.0  0.29797  0.34987  0.23742  1.0000
  H   H158      1.0  0.11761  0.47458  0.31178  1.0000
  H   H159      1.0  0.26107  0.13207  0.46562  1.0000
  C   C159      1.0  0.41140  0.42945  0.32727  1.0000
  C   C160      1.0  0.36942  0.39836  0.33479  1.0000
  C   C161      1.0  0.99731  0.20366  0.45145  1.0000
  C   C162      1.0  0.05011  0.10163  0.38577  1.0000
  H   H160      1.0  0.00025  0.07067  0.39743  1.0000
  H   H161      1.0  0.21797  0.99783  0.46895  1.0000
  H   H162      1.0  0.98379  0.09331  0.39201  1.0000
  H   H163      1.0  0.06529  0.29786  0.30885  1.0000
  C   C163      1.0  0.10730  0.36486  0.24095  1.0000
  H   H164      1.0  0.99126  0.28908  0.33689  1.0000
  C   C164      1.0  0.42235  0.40977  0.32556  1.0000
  H   H165      1.0  0.27357  0.13839  0.44299  1.0000
  C   C165      1.0  0.25292  0.13650  0.44586  1.0000
  C   C166      1.0  0.36234  0.38663  0.24109  1.0000
  N   N13       1.0  0.13777  0.22286  0.39803  1.0000
  C   C167      1.0  0.11431  0.22035  0.40460  1.0000
  C   C168      1.0  0.14052  0.23131  0.38564  1.0000
  C   C169      1.0  0.09263  0.22591  0.39871  1.0000
  C   C170      1.0  0.11920  0.23704  0.37945  1.0000
  C   C171      1.0  0.09507  0.23422  0.38604  1.0000
  C   C172      1.0  0.16048  0.21723  0.40433  1.0000
  H   H166      1.0  0.11191  0.21338  0.41438  1.0000
  H   H167      1.0  0.15896  0.23287  0.38038  1.0000
  H   H168      1.0  0.07383  0.22323  0.40389  1.0000
  H   H169      1.0  0.12110  0.24301  0.36955  1.0000
  H   H170      1.0  0.07810  0.23805  0.38130  1.0000
  H   H171      1.0  0.07557  0.12115  0.35621  1.0000
  S   S61       1.0  0.00683  0.16291  0.37630  1.0000
  C   C173      1.0  0.02998  0.25979  0.35373  1.0000
  H   H172      1.0  0.42377  0.44939  0.32465  1.0000
  N   N14       1.0  0.12036  0.43799  0.25343  1.0000
  H   H173      1.0  0.28733  0.15465  0.36700  1.0000
  C   C174      1.0  0.05582  0.27531  0.34868  1.0000
  H   H174      1.0  0.35837  0.44363  0.32624  1.0000
  C   C175      1.0  0.20088  0.13346  0.45358  1.0000
  H   H175      1.0  0.01199  0.10366  0.40245  1.0000
  C   C176      1.0  0.23527  0.01713  0.45131  1.0000
  H   H176      1.0  0.18079  0.13314  0.45655  1.0000
  H   H177      1.0  0.31248  0.36734  0.25983  1.0000
  C   C177      1.0  0.36844  0.34492  0.24082  1.0000
  H   H178      1.0  0.14614  0.42327  0.26492  1.0000
  H   H179      1.0  0.09069  0.45237  0.26148  1.0000
  H   H180      1.0  0.44290  0.41451  0.32168  1.0000
  C   C178      1.0  0.21976  0.13115  0.46251  1.0000
  H   H181      1.0  0.24901  0.03408  0.45561  1.0000
  C   C179      1.0  0.03330  0.11183  0.36197  1.0000
  S   S62       1.0  0.39452  0.46493  0.30345  1.0000
  C   C180      1.0  0.06075  0.11452  0.36389  1.0000
  C   C181      1.0  0.04905  0.28296  0.30390  1.0000
  C   C182      1.0  0.01402  0.32099  0.27651  1.0000
  N   N15       1.0  0.38532  0.42361  0.33194  1.0000
  H   H182      1.0  0.41452  0.36848  0.32724  1.0000
  H   H183      1.0  0.01846  0.21547  0.45274  1.0000
  H   H184      1.0  0.11891  0.45302  0.27131  1.0000
  H   H185      1.0  0.03372  0.27136  0.31112  1.0000
  C   C183      1.0  0.03882  0.31736  0.27403  1.0000
  S   S63       1.0  0.99271  0.20375  0.47715  1.0000
  H   H186      1.0  0.00538  0.33108  0.26956  1.0000
  H   H187      1.0  0.04067  0.47865  0.30996  1.0000
  N   N16       1.0  0.02331  0.09929  0.38383  1.0000
  C   C184      1.0  0.98742  0.19846  0.43919  1.0000
  C   C185      1.0  0.06303  0.16145  0.48263  1.0000
  H   H188      1.0  0.02649  0.11614  0.35275  1.0000
  H   H189      1.0  0.05805  0.26967  0.29956  1.0000
  C   C186      1.0  0.09169  0.17146  0.48239  1.0000
  H   H190      1.0  0.30222  0.33549  0.24371  1.0000
  C   C187      1.0  0.21781  0.99668  0.45884  1.0000
  C   C188      1.0  0.37383  0.44430  0.33356  1.0000
  C   C189      1.0  0.15608  0.42412  0.24540  1.0000
  C   C190      1.0  0.10483  0.44169  0.26419  1.0000
  H   H191      1.0  0.36080  0.40254  0.24625  1.0000
  H   H192      1.0  0.09611  0.44976  0.23974  1.0000
  H   H193      1.0  0.38983  0.46389  0.33254  1.0000
  H   H194      1.0  0.30363  0.39600  0.25764  1.0000
  C   C191      1.0  0.06210  0.20512  0.48248  1.0000
  C   C192      1.0  0.13522  0.20793  0.48174  1.0000
  H   H195      1.0  0.28813  0.40735  0.23769  1.0000
  H   H196      1.0  0.04871  0.39370  0.23967  1.0000
  H   H197      1.0  0.99340  0.10197  0.37050  1.0000
  H   H198      1.0  0.27813  0.98697  0.44477  1.0000
  C   C193      1.0  0.09078  0.21447  0.48232  1.0000
  N   N17       1.0  0.10518  0.19766  0.48236  1.0000
  H   H199      1.0  0.02597  0.17095  0.48287  1.0000
  C   C194      1.0  0.21776  0.99307  0.43303  1.0000
  H   H200      1.0  0.05062  0.21842  0.48252  1.0000
  H   H201      1.0  0.10143  0.23525  0.48223  1.0000
  Fe  Fe31      1.0  0.00725  0.17259  0.63514  1.0000
  S   S64       1.0  0.98163  0.16987  0.65269  1.0000
  S   S65       1.0  0.04871  0.16774  0.63135  1.0000
  H   H202      1.0  0.23323  0.98629  0.54273  1.0000
  H   H203      1.0  0.08669  0.12107  0.50916  1.0000
  C   C195      1.0  0.33000  0.07481  0.66837  1.0000
  C   C196      1.0  0.25642  0.05140  0.52144  1.0000
  H   H204      1.0  0.29233  0.11365  0.66113  1.0000
  Fe  Fe32      1.0  0.20594  0.19357  0.64291  1.0000
  S   S66       1.0  0.23461  0.22684  0.63115  1.0000
  S   S67       1.0  0.17058  0.20182  0.65238  1.0000
  Fe  Fe33      1.0  0.24144  0.16025  0.63879  1.0000
  S   S68       1.0  0.27152  0.19117  0.62633  1.0000
  S   S69       1.0  0.25573  0.12607  0.64275  1.0000
  Fe  Fe34      1.0  0.26902  0.21793  0.64129  1.0000
  S   S70       1.0  0.30725  0.24913  0.64862  1.0000
  Fe  Fe35      1.0  0.23421  0.19664  0.61749  1.0000
  S   S71       1.0  0.22034  0.20163  0.59735  1.0000
  S   S72       1.0  0.24037  0.18677  0.65398  1.0000
  S   S73       1.0  0.20416  0.16365  0.62901  1.0000
  S   S74       1.0  0.18253  0.00846  0.63794  1.0000
  Fe  Fe36      1.0  0.39091  0.04836  0.70501  1.0000
  S   S75       1.0  0.42867  0.06996  0.69341  1.0000
  S   S76       1.0  0.34841  0.02548  0.69724  1.0000
  H   H205      1.0  0.28941  0.06735  0.66099  1.0000
  S   S77       1.0  0.45628  0.09989  0.71898  1.0000
  Fe  Fe37      1.0  0.42875  0.10502  0.70351  1.0000
  S   S78       1.0  0.42483  0.14099  0.69360  1.0000
  Fe  Fe38      1.0  0.45280  0.06266  0.71007  1.0000
  S   S79       1.0  0.39038  0.08391  0.71445  1.0000
  S   S80       1.0  0.41480  0.03831  0.72122  1.0000
  C   C197      1.0  0.26466  0.09482  0.52882  1.0000
  H   H206      1.0  0.24154  0.08262  0.48764  1.0000
  Fe  Fe39      1.0  0.40118  0.28359  0.71289  1.0000
  S   S81       1.0  0.44465  0.30312  0.70539  1.0000
  S   S82       1.0  0.35925  0.26727  0.70329  1.0000
  Fe  Fe40      1.0  0.45460  0.27384  0.71841  1.0000
  C   C198      1.0  0.46718  0.17757  0.70514  1.0000
  H   H207      1.0  0.27331  0.98800  0.66786  1.0000
  S   S83       1.0  0.23548  0.02899  0.49087  1.0000
  C   C199      1.0  0.31212  0.99163  0.65942  1.0000
  S   S84       1.0  0.40758  0.31016  0.72906  1.0000
  C   C200      1.0  0.30673  0.00453  0.68056  1.0000
  Fe  Fe41      1.0  0.23069  0.18049  0.49566  1.0000
  S   S85       1.0  0.18497  0.16286  0.49498  1.0000
  Fe  Fe42      1.0  0.23067  0.17545  0.52511  1.0000
  S   S86       1.0  0.18503  0.15738  0.52612  1.0000
  S   S87       1.0  0.25483  0.17644  0.54319  1.0000
  Fe  Fe43      1.0  0.18935  0.13452  0.51002  1.0000
  S   S88       1.0  0.16431  0.09218  0.51039  1.0000
  Fe  Fe44      1.0  0.18539  0.18756  0.51110  1.0000
  S   S89       1.0  0.15479  0.20777  0.51276  1.0000
  S   S90       1.0  0.23521  0.15016  0.50986  1.0000
  S   S91       1.0  0.23103  0.20776  0.51092  1.0000
  Fe  Fe45      1.0  0.00152  0.14580  0.51197  1.0000
  S   S92       1.0  0.03437  0.12743  0.51254  1.0000
  S   S93       1.0  0.01200  0.18886  0.51009  1.0000
  C   C201      1.0  0.12164  0.18514  0.51287  1.0000
  C   C202      1.0  0.11706  0.15900  0.51086  1.0000
  C   C203      1.0  0.09021  0.14122  0.51088  1.0000
  C   C204      1.0  0.06798  0.14955  0.51302  1.0000
  C   C205      1.0  0.07287  0.17545  0.51553  1.0000
  C   C206      1.0  0.09953  0.19331  0.51524  1.0000
  H   H208      1.0  0.13410  0.15238  0.50926  1.0000
  C   C207      1.0  0.24958  0.05716  0.60417  1.0000
  H   H209      1.0  0.05636  0.18166  0.51820  1.0000
  H   H210      1.0  0.10303  0.21338  0.51710  1.0000
  C   C208      1.0  0.18227  0.07420  0.50365  1.0000
  C   C209      1.0  0.20657  0.08685  0.49688  1.0000
  C   C210      1.0  0.22242  0.07268  0.49263  1.0000
  C   C211      1.0  0.21397  0.04581  0.49515  1.0000
  C   C212      1.0  0.18916  0.03294  0.50153  1.0000
  C   C213      1.0  0.17320  0.04716  0.50571  1.0000
  H   H211      1.0  0.21325  0.10757  0.49497  1.0000
  H   H212      1.0  0.37408  0.01647  0.67402  1.0000
  H   H213      1.0  0.18240  0.01212  0.50335  1.0000
  H   H214      1.0  0.15424  0.03731  0.51084  1.0000
  C   C214      1.0  0.44114  0.17136  0.69989  1.0000
  C   C215      1.0  0.35217  0.01054  0.67273  1.0000
  H   H215      1.0  0.46141  0.17663  0.73271  1.0000
  H   H216      1.0  0.08595  0.23692  0.60659  1.0000
  C   C216      1.0  0.44067  0.21450  0.70398  1.0000
  C   C217      1.0  0.42801  0.18992  0.69928  1.0000
  H   H217      1.0  0.18756  0.07941  0.53547  1.0000
  C   C218      1.0  0.98906  0.20957  0.56841  1.0000
  H   H218      1.0  0.43036  0.22868  0.70342  1.0000
  H   H219      1.0  0.40797  0.18533  0.69512  1.0000
  H   H220      1.0  0.07219  0.20199  0.60954  1.0000
  H   H221      1.0  0.28630  0.09946  0.52672  1.0000
  C   C219      1.0  0.33525  0.01267  0.68251  1.0000
  H   H222      1.0  0.17288  0.24323  0.63002  1.0000
  H   H223      1.0  0.20448  0.04619  0.52732  1.0000
  H   H224      1.0  0.27016  0.13289  0.53544  1.0000
  C   C220      1.0  0.23435  0.09367  0.64180  1.0000
  C   C221      1.0  0.24670  0.07461  0.64167  1.0000
  C   C222      1.0  0.23076  0.04845  0.64089  1.0000
  C   C223      1.0  0.20231  0.04111  0.64002  1.0000
  C   C224      1.0  0.18977  0.06013  0.64030  1.0000
  C   C225      1.0  0.20581  0.08647  0.64116  1.0000
  H   H225      1.0  0.26876  0.08012  0.64207  1.0000
  H   H226      1.0  0.24055  0.03396  0.64113  1.0000
  H   H227      1.0  0.16771  0.05454  0.63973  1.0000
  H   H228      1.0  0.19614  0.10111  0.64138  1.0000
  C   C226      1.0  0.22993  0.19348  0.58253  1.0000
  C   C227      1.0  0.25237  0.18512  0.58098  1.0000
  C   C228      1.0  0.25961  0.17984  0.56892  1.0000
  C   C229      1.0  0.24444  0.18261  0.55828  1.0000
  C   C230      1.0  0.22173  0.19051  0.55988  1.0000
  C   C231      1.0  0.21465  0.19602  0.57190  1.0000
  H   H229      1.0  0.26453  0.18337  0.58901  1.0000
  H   H230      1.0  0.27732  0.17393  0.56779  1.0000
  H   H231      1.0  0.20997  0.19290  0.55180  1.0000
  H   H232      1.0  0.19740  0.20262  0.57295  1.0000
  C   C232      1.0  0.32358  0.25058  0.66352  1.0000
  C   C233      1.0  0.34953  0.26953  0.66507  1.0000
  C   C234      1.0  0.36163  0.27380  0.67703  1.0000
  C   C235      1.0  0.34772  0.25944  0.68770  1.0000
  C   C236      1.0  0.32210  0.24002  0.68609  1.0000
  C   C237      1.0  0.31030  0.23534  0.67409  1.0000
  H   H233      1.0  0.36008  0.28149  0.65699  1.0000
  H   H234      1.0  0.38120  0.28896  0.67804  1.0000
  H   H235      1.0  0.31107  0.22876  0.69423  1.0000
  H   H236      1.0  0.29039  0.22067  0.67312  1.0000
  H   H237      1.0  0.20748  0.21767  0.67547  1.0000
  S   S94       1.0  0.41148  0.25331  0.72500  1.0000
  C   C238      1.0  0.29526  0.99436  0.66909  1.0000
  C   C239      1.0  0.20382  0.05570  0.60927  1.0000
  C   C240      1.0  0.08178  0.17625  0.63808  1.0000
  C   C241      1.0  0.08965  0.19276  0.64800  1.0000
  C   C242      1.0  0.11676  0.20003  0.65243  1.0000
  C   C243      1.0  0.13628  0.19101  0.64698  1.0000
  C   C244      1.0  0.12834  0.17442  0.63711  1.0000
  C   C245      1.0  0.10128  0.16711  0.63270  1.0000
  H   H238      1.0  0.07490  0.19997  0.65222  1.0000
  H   H239      1.0  0.12266  0.21283  0.66010  1.0000
  H   H240      1.0  0.14306  0.16728  0.63283  1.0000
  H   H241      1.0  0.09541  0.15433  0.62503  1.0000
  Fe  Fe46      1.0  0.41756  0.07610  0.72939  1.0000
  Fe  Fe47      1.0  0.45185  0.32739  0.72246  1.0000
  N   N18       1.0  0.35319  0.09300  0.67256  1.0000
  H   H242      1.0  0.22265  0.24379  0.65553  1.0000
  C   C246      1.0  0.35478  0.11837  0.67300  1.0000
  H   H243      1.0  0.33440  0.14640  0.66903  1.0000
  S   S95       1.0  0.23756  0.99253  0.58842  1.0000
  C   C247      1.0  0.25572  0.11375  0.53377  1.0000
  C   C248      1.0  0.25145  0.12441  0.61014  1.0000
  H   H244      1.0  0.15763  0.19633  0.59810  1.0000
  C   C249      1.0  0.22182  0.04300  0.60605  1.0000
  S   S96       1.0  0.25028  0.00129  0.62426  1.0000
  C   C250      1.0  0.46694  0.22096  0.70898  1.0000
  C   C251      1.0  0.30778  0.08193  0.66423  1.0000
  C   C252      1.0  0.34065  0.99991  0.66135  1.0000
  H   H245      1.0  0.37297  0.13264  0.67663  1.0000
  H   H246      1.0  0.26743  0.05904  0.51237  1.0000
  C   C253      1.0  0.23518  0.24862  0.66379  1.0000
  N   N19       1.0  0.09085  0.16706  0.54465  1.0000
  C   C254      1.0  0.06987  0.14405  0.54358  1.0000
  C   C255      1.0  0.08536  0.18927  0.54667  1.0000
  C   C256      1.0  0.04256  0.14302  0.54422  1.0000
  C   C257      1.0  0.05826  0.18891  0.54740  1.0000
  C   C258      1.0  0.03680  0.16561  0.54616  1.0000
  C   C259      1.0  0.11937  0.16776  0.54406  1.0000
  H   H247      1.0  0.07411  0.12649  0.54176  1.0000
  H   H248      1.0  0.10198  0.20753  0.54747  1.0000
  H   H249      1.0  0.02600  0.12495  0.54284  1.0000
  H   H250      1.0  0.05377  0.20657  0.54872  1.0000
  H   H251      1.0  0.01575  0.16517  0.54655  1.0000
  H   H252      1.0  0.13312  0.18672  0.53986  1.0000
  H   H253      1.0  0.12658  0.16453  0.55361  1.0000
  H   H254      1.0  0.12152  0.15269  0.53798  1.0000
  H   H255      1.0  0.26363  0.04728  0.60164  1.0000
  C   C260      1.0  0.26013  0.26920  0.66322  1.0000
  C   C261      1.0  0.37574  0.08499  0.67737  1.0000
  H   H256      1.0  0.23740  0.13065  0.61601  1.0000
  H   H257      1.0  0.00129  0.22980  0.56661  1.0000
  C   C262      1.0  0.22662  0.23399  0.67505  1.0000
  H   H258      1.0  0.37268  0.08006  0.68760  1.0000
  C   C263      1.0  0.22787  0.10812  0.53629  1.0000
  C   C264      1.0  0.23551  0.98884  0.56287  1.0000
  C   C265      1.0  0.21906  0.06509  0.52915  1.0000
  H   H259      1.0  0.22063  0.12284  0.53988  1.0000
  H   H260      1.0  0.27044  0.04624  0.52815  1.0000
  H   H261      1.0  0.25366  0.13472  0.60074  1.0000
  H   H262      1.0  0.26705  0.27992  0.65430  1.0000
  H   H263      1.0  0.18233  0.04469  0.61109  1.0000
  H   H264      1.0  0.27154  0.13057  0.61493  1.0000
  S   S97       1.0  0.99449  0.20442  0.62542  1.0000
  H   H265      1.0  0.28066  0.09482  0.60429  1.0000
  H   H266      1.0  0.39586  0.10071  0.67574  1.0000
  N   N20       1.0  0.27600  0.27524  0.67363  1.0000
  C   C266      1.0  0.26753  0.26132  0.68480  1.0000
  C   C267      1.0  0.24288  0.24031  0.68565  1.0000
  C   C268      1.0  0.30160  0.29748  0.67293  1.0000
  H   H267      1.0  0.28024  0.26599  0.69304  1.0000
  H   H268      1.0  0.23655  0.22889  0.69442  1.0000
  H   H269      1.0  0.31182  0.29934  0.66360  1.0000
  H   H270      1.0  0.29738  0.31561  0.67452  1.0000
  H   H271      1.0  0.31645  0.29501  0.68002  1.0000
  H   H272      1.0  0.21433  0.02216  0.60511  1.0000
  H   H273      1.0  0.07890  0.22235  0.62240  1.0000
  C   C269      1.0  0.20937  0.08369  0.53392  1.0000
  C   C270      1.0  0.33302  0.12622  0.66880  1.0000
  C   C271      1.0  0.25902  0.08394  0.60567  1.0000
  H   H274      1.0  0.32856  0.05464  0.66822  1.0000
  C   C272      1.0  0.30940  0.10784  0.66438  1.0000
  H   H275      1.0  0.37675  0.06765  0.67274  1.0000
  C   C273      1.0  0.21389  0.08253  0.61057  1.0000
  H   H276      1.0  0.23944  0.03328  0.51947  1.0000
  H   H277      1.0  0.19978  0.09220  0.61321  1.0000
  H   H278      1.0  0.10957  0.19611  0.59782  1.0000
  N   N21       1.0  0.24124  0.09623  0.60893  1.0000
  H   H279      1.0  0.18926  0.22015  0.61412  1.0000
  N   N22       1.0  0.24638  0.07085  0.52658  1.0000
  N   N23       1.0  0.11465  0.21975  0.61349  1.0000
  C   C274      1.0  0.13218  0.23310  0.62234  1.0000
  C   C275      1.0  0.12349  0.20677  0.60480  1.0000
  C   C276      1.0  0.15927  0.23345  0.62272  1.0000
  C   C277      1.0  0.15049  0.20677  0.60489  1.0000
  C   C278      1.0  0.16840  0.22022  0.61391  1.0000
  C   C279      1.0  0.08664  0.22043  0.61292  1.0000
  H   H280      1.0  0.12507  0.24297  0.62939  1.0000
  H   H281      1.0  0.98435  0.21351  0.58829  1.0000
  H   H282      1.0  0.35397  0.99782  0.65402  1.0000
  H   H283      1.0  0.29334  0.00600  0.68801  1.0000
  H   H284      1.0  0.22731  0.00454  0.56288  1.0000
  S   S98       1.0  0.98998  0.20672  0.54273  1.0000
  H   H285      1.0  0.47758  0.16345  0.70548  1.0000
  H   H286      1.0  0.39915  0.14847  0.72021  1.0000
  S   S99       1.0  0.47584  0.36933  0.72698  1.0000
  S   S100      1.0  0.46517  0.29934  0.73469  1.0000
  H   H287      1.0  0.42704  0.13961  0.72650  1.0000
  Fe  Fe48      1.0  0.22247  0.98807  0.49908  1.0000
  C   C280      1.0  0.40968  0.14605  0.72904  1.0000
  C   C281      1.0  0.98149  0.19323  0.55833  1.0000
  Fe  Fe49      1.0  0.20771  0.98431  0.63222  1.0000
  Fe  Fe50      1.0  0.98037  0.18294  0.52532  1.0000
  H   H288      1.0  0.14332  0.22540  0.48734  1.0000
  C   C282      1.0  0.97965  0.20033  0.58075  1.0000
  H   H289      1.0  0.14422  0.19359  0.48585  1.0000
  H   H290      1.0  0.36142  0.26369  0.93177  1.0000
  S   S101      1.0  0.45448  0.34382  0.95544  1.0000
  Fe  Fe51      1.0  0.43553  0.26952  0.96182  1.0000
  S   S102      1.0  0.40432  0.29011  0.96178  1.0000
  H   H291      1.0  0.35372  0.03342  0.77194  1.0000
  Fe  Fe52      1.0  0.42702  0.31178  0.94441  1.0000
  S   S103      1.0  0.40495  0.32096  0.92740  1.0000
  Fe  Fe53      1.0  0.43464  0.32028  0.97303  1.0000
  S   S104      1.0  0.45623  0.28992  0.94381  1.0000
  H   H292      1.0  0.35199  0.25976  0.90895  1.0000
  C   C283      1.0  0.46348  0.20743  0.84378  1.0000
  S   S105      1.0  0.42497  0.02266  0.95003  1.0000
  Fe  Fe54      1.0  0.44696  0.09231  0.96256  1.0000
  S   S106      1.0  0.40317  0.06872  0.95867  1.0000
  S   S107      1.0  0.46453  0.29824  0.97431  1.0000
  Fe  Fe55      1.0  0.41212  0.03446  0.96831  1.0000
  S   S108      1.0  0.41597  0.22532  0.96275  1.0000
  Fe  Fe56      1.0  0.41986  0.05863  0.94087  1.0000
  S   S109      1.0  0.40087  0.06343  0.92193  1.0000
  S   S110      1.0  0.45493  0.05905  0.97349  1.0000
  S   S111      1.0  0.46280  0.08401  0.94430  1.0000
  Fe  Fe57      1.0  0.43363  0.29222  0.85746  1.0000
  C   C284      1.0  0.36795  0.99711  0.91973  1.0000
  S   S112      1.0  0.39856  0.28657  0.87116  1.0000
  Fe  Fe58      1.0  0.45729  0.30723  0.83027  1.0000
  N   N24       1.0  0.47317  0.35347  0.89473  1.0000
  H   H293      1.0  0.33303  0.00570  0.96565  1.0000
  H   H294      1.0  0.45551  0.31233  0.76467  1.0000
  N   N25       1.0  0.36657  0.07886  0.79949  1.0000
  C   C285      1.0  0.38880  0.24151  0.93174  1.0000
  Fe  Fe59      1.0  0.47460  0.27000  0.84757  1.0000
  S   S113      1.0  0.43346  0.26915  0.84046  1.0000
  S   S114      1.0  0.45289  0.33026  0.84654  1.0000
  Fe  Fe60      1.0  0.43463  0.05845  0.84979  1.0000
  S   S115      1.0  0.45209  0.10162  0.85000  1.0000
  S   S116      1.0  0.43411  0.03584  0.86838  1.0000
  Fe  Fe61      1.0  0.43301  0.06053  0.82058  1.0000
  S   S117      1.0  0.45095  0.10384  0.81912  1.0000
  S   S118      1.0  0.42537  0.03811  0.80279  1.0000
  H   H295      1.0  0.42058  0.35320  0.79619  1.0000
  Fe  Fe62      1.0  0.42198  0.10161  0.83501  1.0000
  S   S119      1.0  0.39917  0.12951  0.83593  1.0000
  C   C286      1.0  0.41997  0.21670  0.93083  1.0000
  S   S120      1.0  0.40180  0.05826  0.83574  1.0000
  S   S121      1.0  0.41305  0.08892  0.74905  1.0000
  S   S122      1.0  0.40808  0.26585  0.76056  1.0000
  H   H296      1.0  0.40812  0.20038  0.93743  1.0000
  C   C287      1.0  0.37071  0.25275  0.92622  1.0000
  C   C288      1.0  0.42552  0.35709  0.77597  1.0000
  C   C289      1.0  0.42570  0.05336  0.78764  1.0000
  C   C290      1.0  0.42798  0.07949  0.78605  1.0000
  C   C291      1.0  0.42528  0.09034  0.77406  1.0000
  C   C292      1.0  0.42054  0.07531  0.76349  1.0000
  C   C293      1.0  0.41938  0.04944  0.76496  1.0000
  C   C294      1.0  0.42183  0.03851  0.77700  1.0000
  H   H297      1.0  0.43082  0.09118  0.79409  1.0000
  H   H298      1.0  0.42617  0.11035  0.77303  1.0000
  H   H299      1.0  0.41550  0.03758  0.75692  1.0000
  H   H300      1.0  0.41995  0.01824  0.77811  1.0000
  C   C295      1.0  0.44634  0.30473  0.79664  1.0000
  C   C296      1.0  0.42508  0.28076  0.79727  1.0000
  C   C297      1.0  0.41431  0.26860  0.78615  1.0000
  C   C298      1.0  0.42483  0.28007  0.77430  1.0000
  C   C299      1.0  0.44700  0.30339  0.77369  1.0000
  C   C300      1.0  0.34644  0.01803  0.93434  1.0000
  H   H301      1.0  0.41616  0.27210  0.80629  1.0000
  H   H302      1.0  0.39722  0.25052  0.78675  1.0000
  H   H303      1.0  0.44367  0.36640  0.90362  1.0000
  H   H304      1.0  0.36826  0.04634  0.81100  1.0000
  C   C301      1.0  0.33747  0.02068  0.94636  1.0000
  C   C302      1.0  0.43587  0.20293  0.84664  1.0000
  C   C303      1.0  0.41586  0.17920  0.84394  1.0000
  C   C304      1.0  0.42359  0.15988  0.83861  1.0000
  C   C305      1.0  0.45119  0.16457  0.83572  1.0000
  H   H305      1.0  0.43555  0.23113  0.93633  1.0000
  H   H306      1.0  0.42998  0.21744  0.85116  1.0000
  H   H307      1.0  0.39454  0.17563  0.84623  1.0000
  H   H308      1.0  0.45737  0.15000  0.83147  1.0000
  H   H309      1.0  0.38788  0.31456  0.75585  1.0000
  C   C306      1.0  0.41264  0.05788  0.90709  1.0000
  C   C307      1.0  0.40178  0.06575  0.89612  1.0000
  C   C308      1.0  0.40900  0.06003  0.88417  1.0000
  C   C309      1.0  0.42671  0.04583  0.88309  1.0000
  C   C310      1.0  0.43775  0.03816  0.89406  1.0000
  C   C311      1.0  0.43108  0.04445  0.90599  1.0000
  H   H310      1.0  0.38740  0.07604  0.89686  1.0000
  H   H311      1.0  0.40016  0.06587  0.87583  1.0000
  H   H312      1.0  0.35756  0.07952  0.76802  1.0000
  H   H313      1.0  0.43963  0.03827  0.91434  1.0000
  C   C312      1.0  0.43102  0.20055  0.96389  1.0000
  C   C313      1.0  0.45873  0.20572  0.96656  1.0000
  H   H314      1.0  0.45139  0.02709  0.89334  1.0000
  C   C314      1.0  0.45263  0.15936  0.96614  1.0000
  C   C315      1.0  0.42508  0.15431  0.96316  1.0000
  C   C316      1.0  0.46198  0.35448  0.88215  1.0000
  C   C317      1.0  0.46937  0.11805  0.88104  1.0000
  N   N26       1.0  0.40147  0.22863  0.92470  1.0000
  S   S123      1.0  0.47282  0.28998  0.86515  1.0000
  C   C318      1.0  0.35871  0.07190  0.77754  1.0000
  C   C319      1.0  0.40558  0.31159  0.91181  1.0000
  C   C320      1.0  0.38628  0.31585  0.90359  1.0000
  C   C321      1.0  0.38489  0.30844  0.89119  1.0000
  C   C322      1.0  0.40339  0.29744  0.88660  1.0000
  C   C323      1.0  0.42341  0.29367  0.89467  1.0000
  C   C324      1.0  0.42427  0.30042  0.90735  1.0000
  H   H315      1.0  0.37179  0.32445  0.90691  1.0000
  H   H316      1.0  0.36923  0.31120  0.88511  1.0000
  H   H317      1.0  0.43756  0.28481  0.89126  1.0000
  H   H318      1.0  0.43930  0.29704  0.91362  1.0000
  H   H319      1.0  0.36361  0.01073  0.91260  1.0000
  H   H320      1.0  0.39295  0.21098  0.74978  1.0000
  S   S124      1.0  0.37900  0.00506  0.98124  1.0000
  N   N27       1.0  0.35724  0.99902  0.93220  1.0000
  C   C325      1.0  0.47200  0.35950  0.91684  1.0000
  H   H321      1.0  0.41191  0.13456  0.96195  1.0000
  S   S125      1.0  0.46365  0.05587  0.83463  1.0000
  C   C326      1.0  0.38089  0.31156  0.77576  1.0000
  H   H322      1.0  0.38072  0.31245  0.79594  1.0000
  C   C327      1.0  0.37339  0.09662  0.80973  1.0000
  C   C328      1.0  0.45752  0.31573  0.78480  1.0000
  H   H323      1.0  0.35919  0.01685  0.79361  1.0000
  C   C329      1.0  0.33922  0.00350  0.95618  1.0000
  H   H324      1.0  0.36733  0.08613  0.81906  1.0000
  C   C330      1.0  0.41433  0.17476  0.96216  1.0000
  H   H325      1.0  0.37514  0.23640  0.89624  1.0000
  C   C331      1.0  0.46369  0.14040  0.87714  1.0000
  H   H326      1.0  0.44445  0.34651  0.75043  1.0000
  C   C332      1.0  0.39013  0.32238  0.78717  1.0000
  C   C333      1.0  0.36545  0.25057  0.91342  1.0000
  C   C334      1.0  0.36479  0.05351  0.80169  1.0000
  H   H327      1.0  0.39581  0.10732  0.80974  1.0000
  H   H328      1.0  0.46214  0.36426  0.92486  1.0000
  H   H329      1.0  0.44356  0.37435  0.77622  1.0000
  C   C335      1.0  0.39652  0.22648  0.91212  1.0000
  H   H330      1.0  0.40665  0.21645  0.90648  1.0000
  N   N28       1.0  0.41632  0.34633  0.76481  1.0000
  C   C336      1.0  0.35659  0.04598  0.77973  1.0000
  H   H331      1.0  0.39550  0.13025  0.73522  1.0000
  H   H332      1.0  0.36260  0.11101  0.80881  1.0000
  H   H333      1.0  0.36630  0.10852  0.78576  1.0000
  H   H334      1.0  0.34549  0.03183  0.92681  1.0000
  H   H335      1.0  0.46231  0.33761  0.87690  1.0000
  C   C337      1.0  0.40802  0.20330  0.74615  1.0000
  H   H336      1.0  0.47181  0.22542  0.96796  1.0000
  C   C338      1.0  0.43588  0.21730  0.74715  1.0000
  C   C339      1.0  0.35956  0.03666  0.79188  1.0000
  S   S126      1.0  0.45661  0.32342  0.81005  1.0000
  H   H337      1.0  0.39283  0.17049  0.96018  1.0000
  H   H338      1.0  0.36431  0.29310  0.77557  1.0000
  H   H339      1.0  0.47686  0.21883  0.74257  1.0000
  H   H340      1.0  0.43107  0.20910  0.92402  1.0000
  C   C340      1.0  0.37848  0.23745  0.90629  1.0000
  C   C341      1.0  0.34997  0.98401  0.95389  1.0000
  C   C342      1.0  0.36384  0.08821  0.78758  1.0000
  C   C343      1.0  0.39439  0.32381  0.76461  1.0000
  S   S127      1.0  0.46674  0.13406  0.96834  1.0000
  H   H341      1.0  0.32989  0.03636  0.94812  1.0000
  C   C344      1.0  0.41250  0.34535  0.78730  1.0000
  H   H342      1.0  0.45590  0.10392  0.88775  1.0000
  C   C345      1.0  0.43124  0.35774  0.75309  1.0000
  C   C346      1.0  0.45516  0.20769  0.74222  1.0000
  H   H343      1.0  0.39279  0.24331  0.94170  1.0000
  H   H344      1.0  0.44561  0.14362  0.88070  1.0000
  H   H345      1.0  0.39060  0.00229  0.92009  1.0000
  H   H346      1.0  0.44453  0.37828  0.75390  1.0000
  H   H347      1.0  0.47398  0.33424  0.78420  1.0000
  Fe  Fe63      1.0  0.42125  0.28118  0.74044  1.0000
  H   H348      1.0  0.47448  0.37255  0.87681  1.0000
  H   H349      1.0  0.44245  0.23579  0.75153  1.0000
  C   C347      1.0  0.47098  0.18841  0.83813  1.0000
  H   H350      1.0  0.41684  0.35751  0.74532  1.0000
  Fe  Fe64      1.0  0.46711  0.04916  0.95478  1.0000
  C   C348      1.0  0.46163  0.36064  0.90478  1.0000
  H   H351      1.0  0.47731  0.02896  0.80654  1.0000
  N   N29       1.0  0.41889  0.17046  0.73544  1.0000
  C   C349      1.0  0.46938  0.18518  0.96779  1.0000
  H   H352      1.0  0.34970  0.37890  0.98123  1.0000
  C   C350      1.0  0.44627  0.18394  0.73650  1.0000
  H   H353      1.0  0.47632  0.17538  0.86520  1.0000
  C   C351      1.0  0.39982  0.17991  0.74010  1.0000
  H   H354      1.0  0.44025  0.35356  0.88254  1.0000
  H   H355      1.0  0.37813  0.16945  0.73907  1.0000
  H   H356      1.0  0.37415  0.36259  0.98465  1.0000
  Fe  Fe65      1.0  0.09104  0.63242  0.03839  1.0000
  S   S128      1.0  0.13608  0.63751  0.04054  1.0000
  S   S129      1.0  0.07325  0.62640  0.01853  1.0000
  Fe  Fe66      1.0  0.08377  0.63384  0.06675  1.0000
  S   S130      1.0  0.12705  0.63767  0.07078  1.0000
  S   S131      1.0  0.05293  0.63144  0.08203  1.0000
  Fe  Fe67      1.0  0.13813  0.66758  0.05450  1.0000
  S   S132      1.0  0.17227  0.70402  0.06062  1.0000
  Fe  Fe68      1.0  0.12133  0.60774  0.05661  1.0000
  S   S133      1.0  0.13853  0.57518  0.05968  1.0000
  S   S134      1.0  0.09422  0.66507  0.05114  1.0000
  S   S135      1.0  0.07674  0.60125  0.05378  1.0000
  Fe  Fe69      1.0  0.34634  0.88460  0.03776  1.0000
  S   S136      1.0  0.34604  0.84418  0.03433  1.0000
  S   S137      1.0  0.37541  0.91774  0.02487  1.0000
  Fe  Fe70      1.0  0.31608  0.86524  0.06352  1.0000
  S   S138      1.0  0.31461  0.82437  0.06160  1.0000
  S   S139      1.0  0.29351  0.86883  0.08116  1.0000
  Fe  Fe71      1.0  0.35793  0.84248  0.05449  1.0000
  S   S140      1.0  0.39165  0.83059  0.06343  1.0000
  Fe  Fe72      1.0  0.30232  0.82960  0.04181  1.0000
  S   S141      1.0  0.26651  0.79894  0.03281  1.0000
  S   S142      1.0  0.36033  0.88312  0.05784  1.0000
  S   S143      1.0  0.30160  0.87018  0.04381  1.0000
  Fe  Fe73      1.0  0.33345  0.80918  0.16501  1.0000
  S   S144      1.0  0.35465  0.85151  0.16682  1.0000
  S   S145      1.0  0.36102  0.78596  0.16246  1.0000
  Fe  Fe74      1.0  0.27840  0.81565  0.16532  1.0000
  S   S146      1.0  0.29570  0.85888  0.16715  1.0000
  S   S147      1.0  0.23321  0.79497  0.16415  1.0000
  Fe  Fe75      1.0  0.32580  0.85723  0.15225  1.0000
  S   S148      1.0  0.34688  0.88342  0.13541  1.0000
  Fe  Fe76      1.0  0.32273  0.84835  0.18160  1.0000
  S   S149      1.0  0.33874  0.86746  0.19987  1.0000
  S   S150      1.0  0.30648  0.81487  0.14955  1.0000
  S   S151      1.0  0.30334  0.80522  0.18064  1.0000
  Fe  Fe77      1.0  0.10331  0.64301  0.15218  1.0000
  S   S152      1.0  0.13389  0.62975  0.14268  1.0000
  S   S153      1.0  0.07333  0.65404  0.13974  1.0000
  Fe  Fe78      1.0  0.12563  0.63682  0.17876  1.0000
  S   S154      1.0  0.15745  0.62245  0.17064  1.0000
  S   S155      1.0  0.13476  0.64665  0.19920  1.0000
  Fe  Fe79      1.0  0.16373  0.65451  0.15583  1.0000
  S   S156      1.0  0.20566  0.67958  0.14898  1.0000
  Fe  Fe80      1.0  0.12392  0.59924  0.15837  1.0000
  S   S157      1.0  0.11245  0.55841  0.15246  1.0000
  S   S158      1.0  0.13386  0.67035  0.16441  1.0000
  S   S159      1.0  0.09125  0.61097  0.16743  1.0000
  C   C352      1.0  0.41692  0.53585  0.17298  1.0000
  H   H357      1.0  0.40356  0.54303  0.17831  1.0000
  C   C353      1.0  0.11908  0.63554  0.21420  1.0000
  C   C354      1.0  0.09270  0.61730  0.21576  1.0000
  H   H358      1.0  0.02552  0.53052  0.02976  1.0000
  C   C355      1.0  0.40028  0.73639  0.17033  1.0000
  H   H359      1.0  0.38152  0.91369  0.15900  1.0000
  H   H360      1.0  0.08085  0.60961  0.20763  1.0000
  C   C356      1.0  0.35325  0.96470  0.99858  1.0000
  C   C357      1.0  0.12937  0.53970  0.16052  1.0000
  C   C358      1.0  0.12044  0.51290  0.15917  1.0000
  H   H361      1.0  0.07609  0.55414  0.17881  1.0000
  C   C359      1.0  0.15230  0.50835  0.17506  1.0000
  C   C360      1.0  0.16212  0.53529  0.17600  1.0000
  C   C361      1.0  0.15056  0.55095  0.16877  1.0000
  H   H362      1.0  0.10419  0.50412  0.15274  1.0000
  H   H363      1.0  0.02375  0.67303  0.03480  1.0000
  H   H364      1.0  0.15785  0.57161  0.16970  1.0000
  C   C362      1.0  0.32428  0.85556  0.21508  1.0000
  C   C363      1.0  0.29915  0.83537  0.21674  1.0000
  C   C364      1.0  0.00470  0.64740  0.99654  1.0000
  C   C365      1.0  0.01315  0.58946  0.99430  1.0000
  H   H365      1.0  0.04362  0.66629  0.00485  1.0000
  H   H366      1.0  0.28812  0.82645  0.20863  1.0000
  C   C366      1.0  0.43564  0.78997  0.19811  1.0000
  H   H367      1.0  0.44153  0.77966  0.20626  1.0000
  C   C367      1.0  0.22602  0.76378  0.15881  1.0000
  C   C368      1.0  0.24702  0.75353  0.15719  1.0000
  C   C369      1.0  0.24074  0.72786  0.15375  1.0000
  C   C370      1.0  0.21344  0.71233  0.15211  1.0000
  C   C371      1.0  0.19259  0.72287  0.15335  1.0000
  C   C372      1.0  0.19883  0.74851  0.15678  1.0000
  H   H368      1.0  0.26803  0.76509  0.15889  1.0000
  H   H369      1.0  0.25696  0.71981  0.15272  1.0000
  H   H370      1.0  0.17168  0.71143  0.15161  1.0000
  H   H371      1.0  0.18258  0.75646  0.15796  1.0000
  C   C373      1.0  0.11421  0.56896  0.10491  1.0000
  H   H372      1.0  0.12861  0.58375  0.21728  1.0000
  C   C374      1.0  0.41702  0.80522  0.16048  1.0000
  C   C375      1.0  0.39370  0.80541  0.16696  1.0000
  C   C376      1.0  0.39650  0.82139  0.17701  1.0000
  C   C377      1.0  0.42246  0.83785  0.18031  1.0000
  H   H373      1.0  0.42952  0.51497  0.03010  1.0000
  H   H374      1.0  0.41493  0.79278  0.15274  1.0000
  H   H375      1.0  0.37863  0.82091  0.18236  1.0000
  C   C378      1.0  0.30902  0.87197  0.09611  1.0000
  C   C379      1.0  0.33724  0.88430  0.09748  1.0000
  C   C380      1.0  0.34859  0.88774  0.10956  1.0000
  C   C381      1.0  0.33199  0.87829  0.12036  1.0000
  C   C382      1.0  0.30393  0.86521  0.11896  1.0000
  C   C383      1.0  0.29246  0.86243  0.10691  1.0000
  H   H376      1.0  0.35018  0.89190  0.08925  1.0000
  H   H377      1.0  0.37029  0.89793  0.11053  1.0000
  H   H378      1.0  0.29089  0.85797  0.12720  1.0000
  H   H379      1.0  0.27061  0.85303  0.10597  1.0000
  H   H380      1.0  0.43390  0.89739  0.05899  1.0000
  C   C384      1.0  0.40250  0.97685  0.99764  1.0000
  C   C385      1.0  0.44384  0.83133  0.05949  1.0000
  C   C386      1.0  0.41894  0.82992  0.05388  1.0000
  C   C387      1.0  0.41644  0.82838  0.04086  1.0000
  C   C388      1.0  0.43888  0.82835  0.03350  1.0000
  H   H381      1.0  0.03460  0.48869  0.03270  1.0000
  H   H382      1.0  0.44588  0.83247  0.06955  1.0000
  H   H383      1.0  0.39720  0.82701  0.03649  1.0000
  H   H384      1.0  0.43691  0.82717  0.02344  1.0000
  C   C389      1.0  0.19963  0.72864  0.05245  1.0000
  C   C390      1.0  0.22083  0.74520  0.05946  1.0000
  C   C391      1.0  0.24194  0.76623  0.05357  1.0000
  C   C392      1.0  0.24197  0.77118  0.04057  1.0000
  C   C393      1.0  0.22097  0.75442  0.03354  1.0000
  C   C394      1.0  0.19999  0.73323  0.03942  1.0000
  H   H385      1.0  0.22086  0.74185  0.06954  1.0000
  H   H386      1.0  0.25792  0.77887  0.05911  1.0000
  H   H387      1.0  0.22080  0.75801  0.02347  1.0000
  H   H388      1.0  0.18386  0.72076  0.03388  1.0000
  C   C395      1.0  0.06091  0.63888  0.09781  1.0000
  C   C396      1.0  0.04058  0.64258  0.10526  1.0000
  C   C397      1.0  0.04497  0.64734  0.11799  1.0000
  C   C398      1.0  0.06944  0.64767  0.12362  1.0000
  C   C399      1.0  0.08992  0.64367  0.11625  1.0000
  C   C400      1.0  0.08586  0.63975  0.10329  1.0000
  H   H389      1.0  0.02123  0.64187  0.10116  1.0000
  H   H390      1.0  0.02906  0.65048  0.12354  1.0000
  H   H391      1.0  0.10896  0.64394  0.12044  1.0000
  H   H392      1.0  0.10165  0.63672  0.09764  1.0000
  C   C401      1.0  0.12448  0.53638  0.20230  1.0000
  H   H393      1.0  0.05348  0.55770  0.13273  1.0000
  C   C402      1.0  0.12669  0.52266  0.05901  1.0000
  C   C403      1.0  0.11600  0.54283  0.05999  1.0000
  C   C404      1.0  0.08765  0.53692  0.06101  1.0000
  C   C405      1.0  0.07008  0.51106  0.06078  1.0000
  H   H394      1.0  0.14864  0.52712  0.05828  1.0000
  H   H395      1.0  0.07917  0.55216  0.06199  1.0000
  H   H396      1.0  0.04812  0.50664  0.06139  1.0000
  H   H397      1.0  0.13335  0.56505  0.10461  1.0000
  H   H398      1.0  0.08233  0.48875  0.03171  1.0000
  C   C406      1.0  0.43483  0.50609  0.06614  1.0000
  C   C407      1.0  0.04157  0.60559  0.01261  1.0000
  C   C408      1.0  0.01881  0.59289  0.02041  1.0000
  H   H399      1.0  0.44529  0.89683  0.17913  1.0000
  C   C409      1.0  0.44307  0.82151  0.16388  1.0000
  H   H400      1.0  0.44202  0.74246  0.16469  1.0000
  C   C410      1.0  0.35176  0.94531  0.00815  1.0000
  C   C411      1.0  0.37568  0.94165  0.01263  1.0000
  C   C412      1.0  0.40102  0.95758  0.00727  1.0000
  N   N30       1.0  0.01190  0.65077  0.01874  1.0000
  H   H401      1.0  0.33210  0.93338  0.01214  1.0000
  H   H402      1.0  0.11071  0.59414  0.02174  1.0000
  H   H403      1.0  0.04590  0.58235  0.10624  1.0000
  H   H404      1.0  0.17810  0.54394  0.18258  1.0000
  C   C413      1.0  0.45199  0.51719  0.15966  1.0000
  C   C414      1.0  0.44258  0.55290  0.16875  1.0000
  H   H405      1.0  0.46197  0.77367  0.18084  1.0000
  C   C415      1.0  0.41215  0.49077  0.04667  1.0000
  C   C416      1.0  0.42160  0.88815  0.01653  1.0000
  C   C417      1.0  0.43636  0.90065  0.17034  1.0000
  H   H406      1.0  0.11247  0.56811  0.12507  1.0000
  H   H407      1.0  0.39129  0.72310  0.16308  1.0000
  H   H408      1.0  0.42832  0.87762  0.00933  1.0000
  C   C418      1.0  0.10759  0.51728  0.19487  1.0000
  C   C419      1.0  0.47237  0.56135  0.20384  1.0000
  H   H409      1.0  0.42446  0.85012  0.18811  1.0000
  C   C420      1.0  0.42868  0.74737  0.17117  1.0000
  C   C421      1.0  0.05135  0.50681  0.03073  1.0000
  C   C422      1.0  0.45372  0.52770  0.05965  1.0000
  C   C423      1.0  0.03866  0.60331  0.99955  1.0000
  H   H410      1.0  0.37714  0.90592  0.18089  1.0000
  C   C424      1.0  0.10623  0.56748  0.19325  1.0000
  C   C425      1.0  0.43111  0.51232  0.04015  1.0000
  H   H411      1.0  0.02059  0.59426  0.03047  1.0000
  H   H412      1.0  0.36138  0.73513  0.17794  1.0000
  C   C426      1.0  0.11769  0.57758  0.02458  1.0000
  C   C427      1.0  0.09979  0.53038  0.02820  1.0000
  C   C428      1.0  0.08930  0.54891  0.18557  1.0000
  H   H413      1.0  0.05304  0.58996  0.12822  1.0000
  H   H414      1.0  0.38218  0.76610  0.19413  1.0000
  H   H415      1.0  0.08213  0.58615  0.13592  1.0000
  C   C429      1.0  0.41403  0.91008  0.14772  1.0000
  H   H416      1.0  0.12951  0.58217  0.03336  1.0000
  N   N31       1.0  0.14800  0.69716  0.11622  1.0000
  C   C430      1.0  0.17212  0.69219  0.11701  1.0000
  C   C431      1.0  0.13594  0.69795  0.10483  1.0000
  C   C432      1.0  0.18462  0.68750  0.10624  1.0000
  C   C433      1.0  0.14788  0.69332  0.09387  1.0000
  C   C434      1.0  0.17237  0.68807  0.09460  1.0000
  C   C435      1.0  0.13562  0.70233  0.12766  1.0000
  H   H417      1.0  0.18180  0.69178  0.12603  1.0000
  H   H418      1.0  0.11670  0.70168  0.10419  1.0000
  H   H419      1.0  0.20369  0.68345  0.10693  1.0000
  H   H420      1.0  0.13820  0.69367  0.08485  1.0000
  H   H421      1.0  0.18180  0.68450  0.08613  1.0000
  H   H422      1.0  0.14779  0.72175  0.13088  1.0000
  H   H423      1.0  0.11410  0.70158  0.12620  1.0000
  H   H424      1.0  0.13482  0.68735  0.13524  1.0000
  N   N32       1.0  0.36749  0.82602  0.11887  1.0000
  C   C436      1.0  0.38868  0.83142  0.11037  1.0000
  C   C437      1.0  0.34139  0.82217  0.11486  1.0000
  C   C438      1.0  0.38387  0.83263  0.09747  1.0000
  C   C439      1.0  0.33586  0.82312  0.10204  1.0000
  C   C440      1.0  0.35728  0.82847  0.09332  1.0000
  C   C441      1.0  0.37269  0.82522  0.13238  1.0000
  H   H425      1.0  0.40946  0.83485  0.11351  1.0000
  H   H426      1.0  0.32475  0.81877  0.12159  1.0000
  H   H427      1.0  0.40059  0.83681  0.09069  1.0000
  H   H428      1.0  0.31522  0.82044  0.09886  1.0000
  H   H429      1.0  0.35337  0.82964  0.08335  1.0000
  H   H430      1.0  0.35708  0.80814  0.13721  1.0000
  H   H431      1.0  0.39301  0.82344  0.13445  1.0000
  H   H432      1.0  0.37172  0.84312  0.13645  1.0000
  N   N33       1.0  0.21051  0.75366  0.19181  1.0000
  C   C442      1.0  0.22856  0.74229  0.18780  1.0000
  C   C443      1.0  0.18318  0.73956  0.19307  1.0000
  C   C444      1.0  0.21930  0.71623  0.18481  1.0000
  C   C445      1.0  0.17327  0.71343  0.19023  1.0000
  C   C446      1.0  0.19149  0.70175  0.18605  1.0000
  C   C447      1.0  0.46476  0.89127  0.02699  1.0000
  H   H433      1.0  0.41008  0.92198  0.18758  1.0000
  H   H434      1.0  0.16887  0.74856  0.19623  1.0000
  C   C448      1.0  0.03017  0.65930  0.02937  1.0000
  H   H435      1.0  0.15158  0.70223  0.19123  1.0000
  H   H436      1.0  0.18400  0.68155  0.18370  1.0000
  H   H437      1.0  0.40667  0.89370  0.03972  1.0000
  H   H438      1.0  0.39571  0.88689  0.18796  1.0000
  C   C449      1.0  0.42752  0.89373  0.03910  1.0000
  C   C450      1.0  0.44298  0.89614  0.05001  1.0000
  H   H439      1.0  0.06072  0.59561  0.22907  1.0000
  C   C451      1.0  0.41426  0.48759  0.05969  1.0000
  C   C452      1.0  0.08070  0.49096  0.05948  1.0000
  H   H440      1.0  0.33459  0.96744  0.99534  1.0000
  H   H441      1.0  0.20821  0.79162  0.19002  1.0000
  C   C453      1.0  0.08129  0.60944  0.22793  1.0000
  C   C454      1.0  0.10909  0.49677  0.05871  1.0000
  H   H442      1.0  0.46546  0.72774  0.02923  1.0000
  H   H443      1.0  0.26831  0.81178  0.23006  1.0000
  H   H444      1.0  0.44900  0.90481  0.13892  1.0000
  H   H445      1.0  0.25014  0.75356  0.18654  1.0000
  H   H446      1.0  0.46091  0.82173  0.15867  1.0000
  C   C455      1.0  0.42363  0.49455  0.19905  1.0000
  H   H447      1.0  0.23349  0.70745  0.18126  1.0000
  N   N34       1.0  0.22169  0.81795  0.06698  1.0000
  C   C456      1.0  0.23563  0.83712  0.05830  1.0000
  C   C457      1.0  0.20102  0.79652  0.06334  1.0000
  C   C458      1.0  0.22898  0.83512  0.04559  1.0000
  C   C459      1.0  0.19374  0.79397  0.05072  1.0000
  C   C460      1.0  0.20801  0.81333  0.04180  1.0000
  C   C461      1.0  0.23024  0.81987  0.08010  1.0000
  H   H448      1.0  0.25237  0.85385  0.06117  1.0000
  H   H449      1.0  0.19062  0.78080  0.07010  1.0000
  H   H450      1.0  0.24067  0.84988  0.03865  1.0000
  H   H451      1.0  0.17813  0.77647  0.04780  1.0000
  H   H452      1.0  0.20362  0.81099  0.03190  1.0000
  H   H453      1.0  0.21451  0.80624  0.08653  1.0000
  H   H454      1.0  0.24970  0.81565  0.08107  1.0000
  H   H455      1.0  0.23400  0.83986  0.08315  1.0000
  N   N35       1.0  0.43828  0.89083  0.02782  1.0000
  C   C462      1.0  0.10124  0.57222  0.09377  1.0000
  C   C463      1.0  0.06505  0.57841  0.10596  1.0000
  H   H456      1.0  0.02971  0.64226  0.03562  1.0000
  C   C464      1.0  0.13187  0.49723  0.16645  1.0000
  C   C465      1.0  0.43868  0.90507  0.14771  1.0000
  C   C466      1.0  0.13397  0.64551  0.22492  1.0000
  C   C467      1.0  0.06603  0.57744  0.12899  1.0000
  H   H457      1.0  0.11036  0.57105  0.08476  1.0000
  C   C468      1.0  0.10232  0.57077  0.11643  1.0000
  N   N36       1.0  0.07828  0.57589  0.11683  1.0000
  N   N37       1.0  0.42331  0.77168  0.18845  1.0000
  C   C469      1.0  0.39542  0.76061  0.18786  1.0000
  C   C470      1.0  0.99319  0.57949  0.01514  1.0000
  C   C471      1.0  0.38350  0.74293  0.17875  1.0000
  C   C472      1.0  0.45196  0.53066  0.04660  1.0000
  S   S160      1.0  0.45468  0.58507  0.17327  1.0000
  C   C473      1.0  0.07822  0.50682  0.03013  1.0000
  C   C474      1.0  0.06836  0.55341  0.02718  1.0000
  H   H458      1.0  0.15440  0.65959  0.22384  1.0000
  C   C475      1.0  0.44998  0.90036  0.15908  1.0000
  C   C476      1.0  0.44579  0.83797  0.17374  1.0000
  C   C477      1.0  0.40093  0.91019  0.15915  1.0000
  C   C478      1.0  0.40912  0.50926  0.17082  1.0000
  S   S161      1.0  0.16379  0.48858  0.18545  1.0000
  C   C479      1.0  0.09005  0.52368  0.18640  1.0000
  H   H459      1.0  0.46583  0.51002  0.15466  1.0000
  H   H460      1.0  0.42278  0.90766  0.01253  1.0000
  H   H461      1.0  0.13156  0.57593  0.01702  1.0000
  H   H462      1.0  0.12070  0.53035  0.02826  1.0000
  H   H463      1.0  0.13851  0.53131  0.20863  1.0000
  H   H464      1.0  0.39971  0.87697  0.01879  1.0000
  C   C480      1.0  0.46641  0.83191  0.05212  1.0000
  C   C481      1.0  0.43990  0.76502  0.18036  1.0000
  H   H465      1.0  0.15001  0.59984  0.20391  1.0000
  C   C482      1.0  0.04631  0.53024  0.02922  1.0000
  N   N38       1.0  0.09465  0.55322  0.02659  1.0000
  C   C483      1.0  0.43423  0.52065  0.20191  1.0000
  N   N39       1.0  0.12376  0.56115  0.20136  1.0000
  H   H466      1.0  0.06432  0.57155  0.02615  1.0000
  C   C484      1.0  0.14106  0.58096  0.20937  1.0000
  H   H467      1.0  0.46337  0.54425  0.13220  1.0000
  C   C485      1.0  0.22029  0.78091  0.19505  1.0000
  H   H468      1.0  0.06628  0.57977  0.08569  1.0000
  H   H469      1.0  0.10554  0.58708  0.19261  1.0000
  H   H470      1.0  0.43606  0.50370  0.07622  1.0000
  N   N40       1.0  0.41202  0.90526  0.17026  1.0000
  H   H471      1.0  0.24203  0.79100  0.19210  1.0000
  C   C486      1.0  0.42715  0.49988  0.16452  1.0000
  H   H472      1.0  0.40486  0.91361  0.13894  1.0000
  H   H473      1.0  0.41974  0.95519  0.01065  1.0000
  C   C487      1.0  0.07646  0.57693  0.09428  1.0000
  H   H474      1.0  0.38968  0.49596  0.17443  1.0000
  C   C488      1.0  0.98999  0.57802  0.00205  1.0000
  H   H475      1.0  0.21851  0.78228  0.20533  1.0000
  H   H476      1.0  0.15844  0.57559  0.21324  1.0000
  H   H477      1.0  0.47331  0.88876  0.01809  1.0000
  C   C489      1.0  0.45950  0.54368  0.16162  1.0000
  H   H478      1.0  0.05609  0.61294  0.99339  1.0000
  C   C490      1.0  0.46983  0.89610  0.04929  1.0000
  H   H479      1.0  0.45420  0.80574  0.19433  1.0000
  H   H480      1.0  0.42131  0.79962  0.20130  1.0000
  C   C491      1.0  0.39814  0.90513  0.18223  1.0000
  C   C492      1.0  0.46400  0.83049  0.03911  1.0000
  C   C493      1.0  0.02195  0.65612  0.00668  1.0000
  C   C494      1.0  0.33821  0.86703  0.22577  1.0000
  H   H481      1.0  0.35759  0.88272  0.22462  1.0000
  C   C495      1.0  0.37860  0.98068  0.99324  1.0000
  H   H482      1.0  0.05187  0.66905  0.02626  1.0000
  C   C496      1.0  0.28795  0.82710  0.22892  1.0000
  H   H483      1.0  0.45758  0.57147  0.20134  1.0000
  H   H484      1.0  0.42029  0.53021  0.20491  1.0000
  H   H485      1.0  0.46627  0.54732  0.04153  1.0000
  H   H486      1.0  0.01290  0.65079  0.98702  1.0000
  N   N41       1.0  0.46169  0.53412  0.20065  1.0000
  H   H487      1.0  0.46908  0.89628  0.15923  1.0000
  H   H488      1.0  0.07764  0.50930  0.18024  1.0000
  C   C497      1.0  0.98477  0.63698  0.02103  1.0000
  C   C498      1.0  0.46931  0.49610  0.19372  1.0000
  H   H489      1.0  0.10888  0.49787  0.19531  1.0000
  H   H490      1.0  0.40178  0.48412  0.19980  1.0000
  S   S162      1.0  0.47855  0.55082  0.06830  1.0000
  H   H491      1.0  0.47707  0.56267  0.21399  1.0000
  S   S163      1.0  0.47806  0.85858  0.17817  1.0000
  H   H492      1.0  0.47866  0.55695  0.15779  1.0000
  S   S164      1.0  0.22599  0.91418  0.47391  1.0000
  C   C499      1.0  0.43933  0.82925  0.27048  1.0000
  Fe  Fe81      1.0  0.24242  0.95514  0.40194  1.0000
  S   S165      1.0  0.20198  0.96093  0.39939  1.0000
  H   H493      1.0  0.35585  0.93503  0.30096  1.0000
  Fe  Fe82      1.0  0.23929  0.93056  0.37603  1.0000
  S   S166      1.0  0.19846  0.93522  0.37196  1.0000
  S   S167      1.0  0.25597  0.90369  0.36516  1.0000
  C   C500      1.0  0.14800  0.83454  0.48048  1.0000
  Fe  Fe83      1.0  0.18755  0.92101  0.39203  1.0000
  S   S168      1.0  0.15072  0.88942  0.40077  1.0000
  S   S169      1.0  0.99474  0.71905  0.47397  1.0000
  S   S170      1.0  0.22719  0.91440  0.39591  1.0000
  Fe  Fe84      1.0  0.03522  0.73326  0.40128  1.0000
  S   S171      1.0  0.05147  0.72864  0.42089  1.0000
  C   C501      1.0  0.46621  0.52664  0.30292  1.0000
  Fe  Fe85      1.0  0.03247  0.71247  0.37435  1.0000
  S   S172      1.0  0.00937  0.73823  0.36702  1.0000
  S   S173      1.0  0.04077  0.68015  0.36391  1.0000
  Fe  Fe86      1.0  0.03969  0.76894  0.37811  1.0000
  S   S174      1.0  0.06198  0.80847  0.36868  1.0000
  S   S175      1.0  0.06403  0.74373  0.38447  1.0000
  Fe  Fe87      1.0  0.29952  0.80765  0.29943  1.0000
  S   S176      1.0  0.27473  0.82999  0.29047  1.0000
  S   S177      1.0  0.27538  0.76950  0.30958  1.0000
  Fe  Fe88      1.0  0.35374  0.84929  0.29181  1.0000
  S   S178      1.0  0.33208  0.87449  0.28222  1.0000
  S   S179      1.0  0.40038  0.86635  0.28980  1.0000
  Fe  Fe89      1.0  0.30421  0.86441  0.29941  1.0000
  S   S180      1.0  0.29065  0.89547  0.30828  1.0000
  Fe  Fe90      1.0  0.30461  0.83769  0.27417  1.0000
  S   S181      1.0  0.28618  0.82790  0.25470  1.0000
  S   S182      1.0  0.32766  0.84165  0.30943  1.0000
  S   S183      1.0  0.32774  0.81305  0.28278  1.0000
  Fe  Fe91      1.0  0.12259  0.60171  0.29578  1.0000
  S   S184      1.0  0.08245  0.60723  0.29110  1.0000
  S   S185      1.0  0.12858  0.56725  0.30680  1.0000
  Fe  Fe92      1.0  0.15604  0.65480  0.28383  1.0000
  S   S186      1.0  0.11856  0.66390  0.27814  1.0000
  S   S187      1.0  0.19747  0.68195  0.27689  1.0000
  Fe  Fe93      1.0  0.10222  0.64792  0.29764  1.0000
  S   S188      1.0  0.08354  0.67368  0.30812  1.0000
  Fe  Fe94      1.0  0.10251  0.62292  0.27213  1.0000
  S   S189      1.0  0.08074  0.60961  0.25381  1.0000
  S   S190      1.0  0.14122  0.64140  0.30356  1.0000
  S   S191      1.0  0.14116  0.61476  0.27660  1.0000
  H   H494      1.0  0.35933  0.91781  0.34981  1.0000
  C   C502      1.0  0.09904  0.52766  0.29180  1.0000
  C   C503      1.0  0.11658  0.53486  0.30196  1.0000
  C   C504      1.0  0.12357  0.51559  0.30899  1.0000
  C   C505      1.0  0.26397  0.96725  0.44566  1.0000
  H   H495      1.0  0.09348  0.54225  0.28630  1.0000
  H   H496      1.0  0.13717  0.52093  0.31685  1.0000
  C   C506      1.0  0.00620  0.66686  0.44351  1.0000
  C   C507      1.0  0.42995  0.48417  0.30146  1.0000
  H   H497      1.0  0.07355  0.49586  0.28139  1.0000
  C   C508      1.0  0.25305  0.74590  0.30037  1.0000
  C   C509      1.0  0.23021  0.72662  0.30601  1.0000
  C   C510      1.0  0.21252  0.70723  0.29885  1.0000
  C   C511      1.0  0.21811  0.70664  0.28609  1.0000
  C   C512      1.0  0.24099  0.72583  0.28047  1.0000
  C   C513      1.0  0.25817  0.74565  0.28754  1.0000
  H   H498      1.0  0.22618  0.72680  0.31594  1.0000
  H   H499      1.0  0.19488  0.69254  0.30326  1.0000
  H   H500      1.0  0.24542  0.72549  0.27060  1.0000
  H   H501      1.0  0.27573  0.76042  0.28311  1.0000
  C   C514      1.0  0.42612  0.85667  0.29739  1.0000
  C   C515      1.0  0.45362  0.86941  0.29368  1.0000
  H   H502      1.0  0.39782  0.88454  0.31570  1.0000
  H   H503      1.0  0.15957  0.71704  0.29227  1.0000
  C   C516      1.0  0.44108  0.82822  0.31169  1.0000
  C   C517      1.0  0.41995  0.83624  0.30656  1.0000
  H   H504      1.0  0.45861  0.88544  0.28670  1.0000
  N   N42       1.0  0.06115  0.54991  0.31922  1.0000
  H   H505      1.0  0.43613  0.81215  0.31865  1.0000
  H   H506      1.0  0.39890  0.82635  0.30955  1.0000
  C   C518      1.0  0.05400  0.67943  0.34852  1.0000
  C   C519      1.0  0.05702  0.69934  0.33927  1.0000
  C   C520      1.0  0.06615  0.69722  0.32704  1.0000
  C   C521      1.0  0.07281  0.67540  0.32388  1.0000
  C   C522      1.0  0.07007  0.65560  0.33317  1.0000
  C   C523      1.0  0.06054  0.65755  0.34535  1.0000
  H   H507      1.0  0.05218  0.71633  0.34151  1.0000
  H   H508      1.0  0.06818  0.71267  0.31996  1.0000
  H   H509      1.0  0.07502  0.63870  0.33094  1.0000
  H   H510      1.0  0.05825  0.64199  0.35240  1.0000
  C   C524      1.0  0.26420  0.90138  0.34913  1.0000
  C   C525      1.0  0.26524  0.92068  0.33981  1.0000
  C   C526      1.0  0.27295  0.91832  0.32736  1.0000
  C   C527      1.0  0.27956  0.89662  0.32400  1.0000
  C   C528      1.0  0.27825  0.87719  0.33328  1.0000
  C   C529      1.0  0.27070  0.87962  0.34575  1.0000
  H   H511      1.0  0.26035  0.93755  0.34222  1.0000
  H   H512      1.0  0.27383  0.93349  0.32028  1.0000
  H   H513      1.0  0.28322  0.86036  0.33088  1.0000
  H   H514      1.0  0.26996  0.86452  0.35284  1.0000
  C   C530      1.0  0.12627  0.86728  0.39162  1.0000
  C   C531      1.0  0.10947  0.84360  0.39735  1.0000
  C   C532      1.0  0.08960  0.82551  0.39041  1.0000
  C   C533      1.0  0.08597  0.83126  0.37775  1.0000
  C   C534      1.0  0.10257  0.85508  0.37204  1.0000
  C   C535      1.0  0.12295  0.87291  0.37890  1.0000
  H   H515      1.0  0.11188  0.83918  0.40720  1.0000
  H   H516      1.0  0.07696  0.80721  0.39490  1.0000
  H   H517      1.0  0.09985  0.85963  0.36224  1.0000
  H   H518      1.0  0.13565  0.89120  0.37444  1.0000
  C   C536      1.0  0.40837  0.79461  0.28365  1.0000
  H   H519      1.0  0.33802  0.86772  0.24607  1.0000
  S   S192      1.0  0.01308  0.76079  0.39557  1.0000
  C   C537      1.0  0.43075  0.78842  0.28827  1.0000
  C   C538      1.0  0.22359  0.78363  0.27123  1.0000
  C   C539      1.0  0.01410  0.72961  0.45979  1.0000
  C   C540      1.0  0.03996  0.72719  0.45858  1.0000
  C   C541      1.0  0.05192  0.72868  0.44660  1.0000
  C   C542      1.0  0.03830  0.73274  0.43569  1.0000
  C   C543      1.0  0.01341  0.73716  0.43694  1.0000
  C   C544      1.0  0.00128  0.73536  0.44893  1.0000
  H   H520      1.0  0.17923  0.74379  0.30099  1.0000
  H   H521      1.0  0.04991  0.72235  0.46680  1.0000
  H   H522      1.0  0.00283  0.74061  0.42863  1.0000
  C   C545      1.0  0.18109  0.73674  0.27024  1.0000
  C   C546      1.0  0.23708  0.92989  0.45896  1.0000
  C   C547      1.0  0.22800  0.91620  0.44811  1.0000
  C   C548      1.0  0.23640  0.92815  0.43608  1.0000
  C   C549      1.0  0.25443  0.95377  0.43479  1.0000
  H   H523      1.0  0.26249  0.96616  0.46595  1.0000
  C   C550      1.0  0.25505  0.95552  0.45767  1.0000
  H   H524      1.0  0.21436  0.89627  0.44901  1.0000
  H   H525      1.0  0.22911  0.91746  0.42780  1.0000
  C   C551      1.0  0.09610  0.61963  0.23866  1.0000
  C   C552      1.0  0.16668  0.85918  0.48253  1.0000
  C   C553      1.0  0.21939  0.77047  0.26020  1.0000
  C   C554      1.0  0.04507  0.54209  0.30898  1.0000
  C   C555      1.0  0.08778  0.50131  0.28902  1.0000
  N   N43       1.0  0.18586  0.74947  0.28115  1.0000
  C   C556      1.0  0.06969  0.57706  0.32261  1.0000
  H   H526      1.0  0.17815  0.93219  0.44141  1.0000
  H   H527      1.0  0.20831  0.64227  0.32724  1.0000
  C   C557      1.0  0.32717  0.85854  0.23796  1.0000
  S   S193      1.0  0.26477  0.96999  0.41986  1.0000
  H   H528      1.0  0.09108  0.58748  0.31929  1.0000
  C   C558      1.0  0.36132  0.92445  0.30882  1.0000
  H   H529      1.0  0.01121  0.67341  0.45319  1.0000
  N   N44       1.0  0.21481  0.62992  0.29226  1.0000
  C   C559      1.0  0.23140  0.65253  0.29698  1.0000
  C   C560      1.0  0.19651  0.61132  0.29994  1.0000
  H   H530      1.0  0.19467  0.73622  0.25119  1.0000
  C   C561      1.0  0.19392  0.61545  0.31263  1.0000
  C   C562      1.0  0.21037  0.63867  0.31746  1.0000
  C   C563      1.0  0.21776  0.62505  0.27906  1.0000
  C   C564      1.0  0.37260  0.89556  0.32887  1.0000
  H   H531      1.0  0.18355  0.59322  0.29628  1.0000
  C   C565      1.0  0.35005  0.92403  0.32075  1.0000
  H   H532      1.0  0.17899  0.60079  0.31861  1.0000
  Fe  Fe95      1.0  0.21703  0.97511  0.37978  1.0000
  H   H533      1.0  0.23414  0.61646  0.27803  1.0000
  H   H534      1.0  0.33195  0.88825  0.34630  1.0000
  H   H535      1.0  0.24214  0.67555  0.31323  1.0000
  H   H536      1.0  0.22297  0.64337  0.27307  1.0000
  C   C566      1.0  0.41263  0.81508  0.27466  1.0000
  N   N45       1.0  0.35550  0.90946  0.33055  1.0000
  H   H537      1.0  0.03857  0.55586  0.30326  1.0000
  C   C567      1.0  0.11102  0.85082  0.48091  1.0000
  C   C568      1.0  0.43829  0.51080  0.30368  1.0000
  N   N46       1.0  0.98393  0.67502  0.43841  1.0000
  H   H538      1.0  0.12154  0.89157  0.48433  1.0000
  H   H539      1.0  0.42302  0.51930  0.30604  1.0000
  C   C569      1.0  0.30182  0.83864  0.23961  1.0000
  N   N47       1.0  0.46119  0.82332  0.27522  1.0000
  N   N48       1.0  0.17534  0.84169  0.37676  1.0000
  C   C570      1.0  0.18003  0.85630  0.36566  1.0000
  C   C571      1.0  0.15255  0.81995  0.37838  1.0000
  C   C572      1.0  0.16200  0.84884  0.35567  1.0000
  C   C573      1.0  0.13428  0.81176  0.36855  1.0000
  C   C574      1.0  0.13901  0.82638  0.35715  1.0000
  C   C575      1.0  0.19398  0.85002  0.38725  1.0000
  H   H540      1.0  0.19769  0.87397  0.36450  1.0000
  H   H541      1.0  0.14808  0.80910  0.38738  1.0000
  H   H542      1.0  0.16565  0.86065  0.34694  1.0000
  H   H543      1.0  0.11585  0.79486  0.36994  1.0000
  H   H544      1.0  0.12433  0.82071  0.34966  1.0000
  H   H545      1.0  0.18548  0.86068  0.39373  1.0000
  H   H546      1.0  0.19673  0.83309  0.39254  1.0000
  H   H547      1.0  0.21466  0.86295  0.38391  1.0000
  H   H548      1.0  0.15039  0.74603  0.29195  1.0000
  H   H549      1.0  0.38735  0.91025  0.29776  1.0000
  H   H550      1.0  0.21052  0.78297  0.29034  1.0000
  H   H551      1.0  0.05632  0.58734  0.31836  1.0000
  C   C576      1.0  0.20664  0.77278  0.28171  1.0000
  H   H552      1.0  0.16469  0.71822  0.26978  1.0000
  H   H553      1.0  0.08925  0.84770  0.48046  1.0000
  H   H554      1.0  0.33605  0.93464  0.32195  1.0000
  H   H555      1.0  0.15560  0.81859  0.47948  1.0000
  H   H556      1.0  0.39548  0.82069  0.27136  1.0000
  C   C577      1.0  0.46846  0.84033  0.30762  1.0000
  H   H557      1.0  0.24585  0.66734  0.29088  1.0000
  H   H558      1.0  0.16390  0.95253  0.43168  1.0000
  H   H559      1.0  0.44244  0.84561  0.26378  1.0000
  C   C578      1.0  0.22937  0.65729  0.30962  1.0000
  H   H560      1.0  0.07123  0.72533  0.44575  1.0000
  C   C579      1.0  0.38458  0.89587  0.31710  1.0000
  S   S194      1.0  0.25873  0.97145  0.38250  1.0000
  C   C580      1.0  0.34320  0.90868  0.34299  1.0000
  C   C581      1.0  0.98295  0.68031  0.42577  1.0000
  Fe  Fe96      1.0  0.98479  0.72779  0.38511  1.0000
  H   H561      1.0  0.08422  0.53925  0.33378  1.0000
  C   C582      1.0  0.16785  0.73862  0.29211  1.0000
  H   H562      1.0  0.19336  0.94504  0.42652  1.0000
  H   H563      1.0  0.23294  0.77865  0.25215  1.0000
  C   C583      1.0  0.19798  0.74685  0.25966  1.0000
  H   H564      1.0  0.24012  0.80202  0.27164  1.0000
  H   H565      1.0  0.00025  0.64542  0.44367  1.0000
  H   H566      1.0  0.06868  0.57826  0.33294  1.0000
  H   H567      1.0  0.38786  0.78411  0.28729  1.0000
  H   H568      1.0  0.32809  0.91906  0.34286  1.0000
  H   H569      1.0  0.13426  0.64559  0.24521  1.0000
  H   H570      1.0  0.42781  0.77309  0.29556  1.0000
  H   H571      1.0  0.99969  0.70623  0.33133  1.0000
  C   C584      1.0  0.20077  0.97452  0.45326  1.0000
  H   H572      1.0  0.98125  0.73722  0.44974  1.0000
  C   C585      1.0  0.12914  0.87569  0.48301  1.0000
  H   H573      1.0  0.99911  0.67939  0.41956  1.0000
  H   H574      1.0  0.10801  0.78932  0.48209  1.0000
  C   C586      1.0  0.37875  0.91034  0.30701  1.0000
  H   H575      1.0  0.47215  0.54703  0.30471  1.0000
  H   H576      1.0  0.09998  0.80212  0.46710  1.0000
  H   H577      1.0  0.19828  0.61166  0.27544  1.0000
  S   S195      1.0  0.00579  0.69970  0.39178  1.0000
  H   H578      1.0  0.37682  0.88390  0.33662  1.0000
  C   C587      1.0  0.04593  0.49854  0.31271  1.0000
  H   H579      1.0  0.98008  0.65948  0.37012  1.0000
  H   H580      1.0  0.02532  0.67576  0.43777  1.0000
  H   H581      1.0  0.07061  0.49337  0.32821  1.0000
  C   C588      1.0  0.11254  0.48927  0.30612  1.0000
  C   C589      1.0  0.06275  0.50680  0.32297  1.0000
  H   H582      1.0  0.99474  0.67293  0.34852  1.0000
  C   C590      1.0  0.18313  0.94955  0.43478  1.0000
  H   H583      1.0  0.08059  0.80184  0.48122  1.0000
  C   C591      1.0  0.47468  0.86125  0.29872  1.0000
  H   H584      1.0  0.02475  0.51021  0.29738  1.0000
  C   C592      1.0  0.10136  0.80473  0.47736  1.0000
  C   C593      1.0  0.03709  0.51628  0.30562  1.0000
  C   C594      1.0  0.45717  0.80303  0.28391  1.0000
  C   C595      1.0  0.07037  0.53276  0.32606  1.0000
  H   H585      1.0  0.47455  0.79874  0.28791  1.0000
  C   C596      1.0  0.12262  0.63759  0.23707  1.0000
  N   N49       1.0  0.12053  0.83058  0.47982  1.0000
  H   H586      1.0  0.18782  0.95844  0.45923  1.0000
  N   N50       1.0  0.20118  0.97282  0.44052  1.0000
  C   C597      1.0  0.98391  0.70297  0.33850  1.0000
  C   C598      1.0  0.98114  0.68424  0.34832  1.0000
  C   C599      1.0  0.15710  0.87979  0.48385  1.0000
  H   H587      1.0  0.18850  0.86240  0.48310  1.0000
  C   C600      1.0  0.47804  0.48926  0.29801  1.0000
  S   S196      1.0  0.00044  0.70332  0.54001  1.0000
  S   S197      1.0  0.19231  0.96043  0.61579  1.0000
  H   H588      1.0  0.14321  0.95616  0.63408  1.0000
  C   C601      1.0  0.19803  0.89957  0.56544  1.0000
  S   S198      1.0  0.21460  0.95152  0.64372  1.0000
  H   H589      1.0  0.07705  0.73008  0.58150  1.0000
  Fe  Fe97      1.0  0.20250  0.92843  0.62634  1.0000
  S   S199      1.0  0.16890  0.89091  0.62105  1.0000
  C   C602      1.0  0.24265  0.97898  0.57430  1.0000
  S   S200      1.0  0.24569  0.94207  0.61821  1.0000
  H   H590      1.0  0.21097  0.88381  0.58240  1.0000
  Fe  Fe98      1.0  0.04543  0.76062  0.63926  1.0000
  S   S201      1.0  0.04503  0.72411  0.63036  1.0000
  S   S202      1.0  0.08353  0.78835  0.64830  1.0000
  H   H591      1.0  0.11273  0.74938  0.57885  1.0000
  C   C603      1.0  0.11531  0.89465  0.64585  1.0000
  Fe  Fe99      1.0  0.00469  0.70399  0.64082  1.0000
  H   H592      1.0  0.00158  0.69210  0.58613  1.0000
  Fe  Fe100     1.0  0.02010  0.73540  0.61510  1.0000
  C   C604      1.0  0.24970  0.95840  0.55127  1.0000
  S   S203      1.0  0.00713  0.73960  0.65086  1.0000
  S   S204      1.0  0.02235  0.77264  0.62377  1.0000
  Fe  Fe101     1.0  0.23456  0.95166  0.51863  1.0000
  S   S205      1.0  0.19218  0.95642  0.48897  1.0000
  S   S206      1.0  0.25364  0.94438  0.53711  1.0000
  Fe  Fe102     1.0  0.22378  0.93708  0.49075  1.0000
  H   H593      1.0  0.20450  0.88735  0.55942  1.0000
  C   C605      1.0  0.20180  0.89750  0.57841  1.0000
  Fe  Fe103     1.0  0.17755  0.93829  0.50812  1.0000
  H   H594      1.0  0.18715  0.93930  0.54328  1.0000
  H   H595      1.0  0.10518  0.89137  0.62212  1.0000
  S   S207      1.0  0.20708  0.91660  0.50933  1.0000
  Fe  Fe104     1.0  0.05101  0.77523  0.50799  1.0000
  S   S208      1.0  0.03994  0.73214  0.50672  1.0000
  S   S209      1.0  0.09592  0.79706  0.50945  1.0000
  N   N51       1.0  0.18706  0.91730  0.56038  1.0000
  N   N52       1.0  0.04799  0.67715  0.67318  1.0000
  Fe  Fe105     1.0  0.00975  0.73015  0.52226  1.0000
  H   H596      1.0  0.02069  0.61984  0.69792  1.0000
  C   C606      1.0  0.18301  0.93161  0.58096  1.0000
  S   S210      1.0  0.02259  0.77299  0.52404  1.0000
  H   H597      1.0  0.03662  0.77035  0.57068  1.0000
  C   C607      1.0  0.12128  0.88433  0.51330  1.0000
  C   C608      1.0  0.13977  0.87118  0.51571  1.0000
  C   C609      1.0  0.13160  0.84430  0.51476  1.0000
  C   C610      1.0  0.10459  0.83023  0.51177  1.0000
  C   C611      1.0  0.08545  0.84297  0.51013  1.0000
  C   C612      1.0  0.09386  0.87008  0.51085  1.0000
  H   H598      1.0  0.16039  0.88163  0.51835  1.0000
  H   H599      1.0  0.14636  0.83445  0.51622  1.0000
  H   H600      1.0  0.06444  0.83211  0.50794  1.0000
  H   H601      1.0  0.06183  0.70922  0.53961  1.0000
  C   C613      1.0  0.01962  0.73234  0.57996  1.0000
  C   C614      1.0  0.19422  0.91364  0.58620  1.0000
  H   H602      1.0  0.17792  0.94481  0.58691  1.0000
  C   C615      1.0  0.00632  0.71509  0.55537  1.0000
  C   C616      1.0  0.01899  0.74150  0.55725  1.0000
  C   C617      1.0  0.02580  0.74999  0.56943  1.0000
  C   C618      1.0  0.14766  0.94323  0.65303  1.0000
  C   C619      1.0  0.08126  0.75073  0.53730  1.0000
  H   H603      1.0  0.10565  0.79020  0.56116  1.0000
  N   N53       1.0  0.12237  0.91542  0.63729  1.0000
  H   H604      1.0  0.19742  0.91252  0.59626  1.0000
  S   S211      1.0  0.25517  0.96972  0.50010  1.0000
  C   C620      1.0  0.03122  0.63121  0.67843  1.0000
  S   S212      1.0  0.99058  0.66245  0.65015  1.0000
  H   H605      1.0  0.02432  0.61145  0.67546  1.0000
  C   C621      1.0  0.09137  0.74819  0.57679  1.0000
  C   C622      1.0  0.12496  0.89754  0.65813  1.0000
  H   H606      1.0  0.06758  0.70801  0.56262  1.0000
  C   C623      1.0  0.02921  0.63593  0.69104  1.0000
  H   H607      1.0  0.08703  0.76447  0.58108  1.0000
  C   C624      1.0  0.14603  0.86228  0.62892  1.0000
  C   C625      1.0  0.14861  0.85548  0.64159  1.0000
  C   C626      1.0  0.12938  0.83283  0.64737  1.0000
  C   C627      1.0  0.10733  0.81671  0.64061  1.0000
  C   C628      1.0  0.10480  0.82359  0.62796  1.0000
  C   C629      1.0  0.12408  0.84611  0.62217  1.0000
  H   H608      1.0  0.16547  0.86757  0.64690  1.0000
  H   H609      1.0  0.13167  0.82765  0.65713  1.0000
  H   H610      1.0  0.08806  0.81141  0.62261  1.0000
  H   H611      1.0  0.12187  0.85103  0.61237  1.0000
  Fe  Fe106     1.0  0.99177  0.77220  0.50915  1.0000
  H   H612      1.0  0.03434  0.66519  0.70437  1.0000
  C   C630      1.0  0.25722  0.94880  0.56268  1.0000
  Fe  Fe107     1.0  0.25727  0.96766  0.63499  1.0000
  Fe  Fe108     1.0  0.23537  0.97491  0.60842  1.0000
  C   C631      1.0  0.25350  0.95885  0.57416  1.0000
  H   H613      1.0  0.09573  0.92013  0.62296  1.0000
  H   H614      1.0  0.26590  0.93342  0.56265  1.0000
  H   H615      1.0  0.12971  0.92221  0.61765  1.0000
  H   H616      1.0  0.02462  0.75537  0.54933  1.0000
  C   C632      1.0  0.23879  0.97849  0.55143  1.0000
  H   H617      1.0  0.10031  0.79210  0.53802  1.0000
  H   H618      1.0  0.14925  0.92452  0.67115  1.0000
  H   H619      1.0  0.07886  0.75147  0.52721  1.0000
  C   C633      1.0  0.14135  0.92200  0.66170  1.0000
  C   C634      1.0  0.99949  0.69744  0.56591  1.0000
  C   C635      1.0  0.00601  0.70600  0.57816  1.0000
  Fe  Fe109     1.0  0.00872  0.73657  0.49281  1.0000
  H   H620      1.0  0.04067  0.64830  0.65969  1.0000
  H   H621      1.0  0.05101  0.70172  0.68834  1.0000
  H   H622      1.0  0.25936  0.95127  0.58287  1.0000
  H   H623      1.0  0.03772  0.70451  0.66130  1.0000
  H   H624      1.0  0.07932  0.88009  0.50917  1.0000
  S   S213      1.0  0.13249  0.91848  0.51254  1.0000
  C   C636      1.0  0.04058  0.65217  0.66956  1.0000
  H   H625      1.0  0.07226  0.71601  0.66716  1.0000
  S   S214      1.0  0.20416  0.97260  0.51818  1.0000
  C   C637      1.0  0.03673  0.66144  0.69464  1.0000
  C   C638      1.0  0.13795  0.93957  0.64079  1.0000
  S   S215      1.0  0.03437  0.74357  0.59452  1.0000
  H   H626      1.0  0.16091  0.90757  0.54466  1.0000
  S   S216      1.0  0.02198  0.77996  0.49316  1.0000
  C   C639      1.0  0.11261  0.91215  0.62438  1.0000
  C   C640      1.0  0.05586  0.69887  0.66370  1.0000
  C   C641      1.0  0.04603  0.68195  0.68553  1.0000
  H   H627      1.0  0.06367  0.69358  0.65493  1.0000
  N   N54       1.0  0.08724  0.74901  0.56320  1.0000
  C   C642      1.0  0.09629  0.77236  0.55645  1.0000
  C   C643      1.0  0.07534  0.72648  0.55726  1.0000
  C   C644      1.0  0.09337  0.77359  0.54341  1.0000
  C   C645      1.0  0.07209  0.72702  0.54424  1.0000
  C   C646      1.0  0.17942  0.93309  0.56796  1.0000
  C   C647      1.0  0.18251  0.91881  0.54682  1.0000
  H   H628      1.0  0.12002  0.88080  0.66474  1.0000
  H   H629      1.0  0.10274  0.87550  0.64314  1.0000
  H   H630      1.0  0.19632  0.91124  0.54150  1.0000
  H   H631      1.0  0.98972  0.67694  0.56460  1.0000
  H   H632      1.0  0.17110  0.94739  0.56395  1.0000
  H   H633      1.0  0.16037  0.96241  0.65568  1.0000
  S   S217      1.0  0.29880  0.97725  0.64499  1.0000
  S   S218      1.0  0.97991  0.71213  0.62465  1.0000
  Fe  Fe110     1.0  0.98414  0.74857  0.63436  1.0000
  H   H634      1.0  0.98617  0.68328  0.67476  1.0000
  H   H635      1.0  0.17135  0.89888  0.48561  1.0000
  H   H636      1.0  0.99206  0.49316  0.91328  1.0000
  H   H637      1.0  0.36838  0.96755  0.94019  1.0000
  H   H638      1.0  0.98612  0.52233  0.91764  1.0000
  H   H639      1.0  0.35215  0.97108  0.96159  1.0000
  H   H640      1.0  0.35874  0.97713  0.91652  1.0000
  C   C648      1.0  0.35913  0.98215  0.94179  1.0000
  H   H641      1.0  0.01111  0.58874  0.98422  1.0000
  C   C649      1.0  0.58344  0.99611  0.01300  1.0000
  C   C650      1.0  0.88480  0.36085  0.99709  1.0000
  H   H642      1.0  0.91049  0.33722  0.00027  1.0000
  H   H643      1.0  0.59891  0.03759  0.00882  1.0000
  C   C651      1.0  0.59485  0.01851  0.00523  1.0000
  S   S219      1.0  0.83106  0.22149  0.98710  1.0000
  H   H644      1.0  0.65443  0.00672  0.00722  1.0000
  H   H645      1.0  0.95064  0.29113  0.01214  1.0000
  H   H646      1.0  0.61049  0.03360  0.98673  1.0000
  S   S220      1.0  0.95683  0.32654  0.98952  1.0000
  H   H647      1.0  0.84222  0.15815  0.99360  1.0000
  C   C652      1.0  0.64790  0.98575  0.00789  1.0000
  H   H648      1.0  0.78811  0.17706  0.99802  1.0000
  H   H649      1.0  0.94770  0.41849  0.00606  1.0000
  N   N55       1.0  0.88330  0.38530  0.99701  1.0000
  H   H650      1.0  0.84771  0.37697  0.98573  1.0000
  C   C653      1.0  0.93189  0.37731  0.00359  1.0000
  H   H651      1.0  0.86143  0.40983  0.99001  1.0000
  C   C654      1.0  0.90534  0.40572  0.00050  1.0000
  C   C655      1.0  0.85765  0.38939  0.99350  1.0000
  C   C656      1.0  0.93004  0.40210  0.00371  1.0000
  C   C657      1.0  0.96707  0.30908  0.01367  1.0000
  H   H652      1.0  0.86734  0.34465  0.99434  1.0000
  H   H653      1.0  0.95096  0.37414  0.00588  1.0000
  H   H654      1.0  0.84341  0.38472  0.00171  1.0000
  H   H655      1.0  0.75690  0.13676  0.98920  1.0000
  C   C658      1.0  0.78760  0.17522  0.98798  1.0000
  C   C659      1.0  0.97389  0.32919  0.00429  1.0000
  C   C660      1.0  0.90911  0.35651  0.00038  1.0000
  H   H656      1.0  0.57880  0.99755  0.02278  1.0000
  H   H657      1.0  0.90422  0.42515  0.00040  1.0000
  H   H658      1.0  0.56860  0.14279  0.98628  1.0000
  H   H659      1.0  0.55892  0.07838  0.98582  1.0000
  H   H660      1.0  0.97662  0.29606  0.03204  1.0000
  H   H661      1.0  0.61021  0.43694  0.98996  1.0000
  C   C661      1.0  0.60137  0.01633  0.99279  1.0000
  C   C662      1.0  0.59645  0.99176  0.98825  1.0000
  H   H662      1.0  0.79782  0.01681  0.44642  1.0000
  C   C663      1.0  0.90035  0.11665  0.41211  1.0000
  H   H663      1.0  0.88306  0.14640  0.41511  1.0000
  Fe  Fe111     1.0  0.96360  0.14264  0.38360  1.0000
  S   S221      1.0  0.81176  0.03417  0.37908  1.0000
  H   H664      1.0  0.80469  0.06854  0.41477  1.0000
  H   H665      1.0  0.81092  0.07327  0.39795  1.0000
  H   H666      1.0  0.92092  0.16409  0.44657  1.0000
  S   S222      1.0  0.78351  0.00430  0.47263  1.0000
  C   C664      1.0  0.81837  0.06736  0.40702  1.0000
  C   C665      1.0  0.78179  0.99804  0.44714  1.0000
  C   C666      1.0  0.87876  0.12617  0.41315  1.0000
  S   S223      1.0  0.94566  0.18032  0.42202  1.0000
  S   S224      1.0  0.93988  0.10140  0.37783  1.0000
  S   S225      1.0  0.95536  0.18044  0.38463  1.0000
  C   C667      1.0  0.85187  0.10957  0.41149  1.0000
  C   C668      1.0  0.95248  0.17927  0.46018  1.0000
  C   C669      1.0  0.88152  0.03478  0.48133  1.0000
  H   H667      1.0  0.92125  0.12942  0.41326  1.0000
  C   C670      1.0  0.84753  0.05235  0.37867  1.0000
  C   C671      1.0  0.85601  0.07968  0.37780  1.0000
  C   C672      1.0  0.88407  0.09500  0.37785  1.0000
  C   C673      1.0  0.90412  0.08316  0.37846  1.0000
  C   C674      1.0  0.89565  0.05584  0.37921  1.0000
  C   C675      1.0  0.86757  0.04051  0.37946  1.0000
  H   H668      1.0  0.84075  0.08909  0.37705  1.0000
  H   H669      1.0  0.89018  0.11595  0.37711  1.0000
  H   H670      1.0  0.91092  0.04642  0.37956  1.0000
  H   H671      1.0  0.86144  0.01956  0.38007  1.0000
  C   C676      1.0  0.95974  0.18445  0.43733  1.0000
  H   H672      1.0  0.93875  0.17223  0.46819  1.0000
  H   H673      1.0  0.86386  0.05474  0.40559  1.0000
  C   C677      1.0  0.89495  0.09080  0.40944  1.0000
  H   H674      1.0  0.92466  0.09706  0.48234  1.0000
  N   N56       1.0  0.84669  0.08412  0.40902  1.0000
  H   H675      1.0  0.81657  0.04663  0.40651  1.0000
  H   H676      1.0  0.91174  0.08352  0.40818  1.0000
  C   C678      1.0  0.94239  0.17475  0.44790  1.0000
  C   C679      1.0  0.86782  0.07466  0.40797  1.0000
  H   H677      1.0  0.83518  0.11719  0.41210  1.0000
  H   H678      1.0  0.88151  0.01524  0.48016  1.0000
  Fe  Fe112     1.0  0.78795  0.99049  0.38235  1.0000
  C   C680      1.0  0.77114  0.98696  0.45904  1.0000
  Fe  Fe113     1.0  0.97091  0.18021  0.40456  1.0000
  C   C681      1.0  0.90571  0.08064  0.48264  1.0000
  H   H679      1.0  0.78004  0.99370  0.42705  1.0000
  C   C682      1.0  0.90593  0.05586  0.48043  1.0000
  H   H680      1.0  0.92509  0.05287  0.47841  1.0000
  C   C683      1.0  0.77170  0.98503  0.43615  1.0000
  C   C684      1.0  0.85712  0.03885  0.48432  1.0000
  H   H681      1.0  0.83831  0.02230  0.48503  1.0000
  H   H682      1.0  0.49339  0.48065  0.29598  1.0000
  S   S226      1.0  0.97730  0.14210  0.40348  1.0000
  H   H683      1.0  0.86278  0.20974  0.68026  1.0000
  S   S227      1.0  0.77994  0.00076  0.61868  1.0000
  S   S228      1.0  0.85581  0.00522  0.62472  1.0000
  C   C685      1.0  0.84260  0.36592  0.69605  1.0000
  Fe  Fe114     1.0  0.94780  0.14041  0.64272  1.0000
  S   S229      1.0  0.93177  0.16951  0.63322  1.0000
  S   S230      1.0  0.91494  0.10748  0.65324  1.0000
  S   S231      1.0  0.74364  0.01788  0.64644  1.0000
  Fe  Fe115     1.0  0.90668  0.27711  0.71730  1.0000
  S   S232      1.0  0.88069  0.29974  0.70905  1.0000
  C   C686      1.0  0.56364  0.37767  0.72852  1.0000
  Fe  Fe116     1.0  0.88895  0.32115  0.72701  1.0000
  C   C687      1.0  0.61991  0.05314  0.68448  1.0000
  H   H684      1.0  0.91867  0.25736  0.66158  1.0000
  C   C688      1.0  0.78923  0.21843  0.71360  1.0000
  S   S233      1.0  0.67494  0.10907  0.72735  1.0000
  H   H685      1.0  0.76270  0.02019  0.56180  1.0000
  C   C689      1.0  0.90263  0.19148  0.70149  1.0000
  Fe  Fe117     1.0  0.67863  0.05038  0.70911  1.0000
  S   S234      1.0  0.68645  0.08995  0.69984  1.0000
  S   S235      1.0  0.68020  0.01600  0.69820  1.0000
  Fe  Fe118     1.0  0.64966  0.09035  0.71103  1.0000
  S   S236      1.0  0.61652  0.10554  0.70342  1.0000
  Fe  Fe119     1.0  0.71055  0.10427  0.71714  1.0000
  S   S237      1.0  0.75520  0.12972  0.71692  1.0000
  S   S238      1.0  0.63997  0.04976  0.71913  1.0000
  S   S239      1.0  0.70424  0.06447  0.72609  1.0000
  H   H686      1.0  0.69429  0.00054  0.56598  1.0000
  H   H687      1.0  0.87771  0.11712  0.56624  1.0000
  C   C690      1.0  0.90644  0.42223  0.70603  1.0000
  S   S240      1.0  0.80384  0.00675  0.50722  1.0000
  H   H688      1.0  0.59892  0.41062  0.72257  1.0000
  H   H689      1.0  0.92476  0.17533  0.66276  1.0000
  H   H690      1.0  0.64490  0.00854  0.67431  1.0000
  Fe  Fe120     1.0  0.94103  0.13775  0.51279  1.0000
  S   S241      1.0  0.89772  0.11152  0.51616  1.0000
  S   S242      1.0  0.94788  0.18056  0.51085  1.0000
  C   C691      1.0  0.88143  0.02494  0.51502  1.0000
  C   C692      1.0  0.86285  0.03408  0.52098  1.0000
  C   C693      1.0  0.86849  0.06076  0.52174  1.0000
  C   C694      1.0  0.89336  0.07836  0.51709  1.0000
  C   C695      1.0  0.91333  0.06919  0.51240  1.0000
  C   C696      1.0  0.90724  0.04239  0.51126  1.0000
  H   H691      1.0  0.84386  0.02055  0.52484  1.0000
  H   H692      1.0  0.85329  0.06770  0.52573  1.0000
  H   H693      1.0  0.60590  0.05550  0.69142  1.0000
  H   H694      1.0  0.50210  0.37709  0.70199  1.0000
  C   C697      1.0  0.58075  0.08874  0.70534  1.0000
  C   C698      1.0  0.56225  0.10180  0.70223  1.0000
  C   C699      1.0  0.53372  0.08918  0.70377  1.0000
  C   C700      1.0  0.52339  0.06314  0.70817  1.0000
  C   C701      1.0  0.54189  0.05007  0.71123  1.0000
  C   C702      1.0  0.57039  0.06285  0.70998  1.0000
  H   H695      1.0  0.94291  0.13802  0.57485  1.0000
  H   H696      1.0  0.51971  0.09944  0.70133  1.0000
  H   H697      1.0  0.91401  0.42679  0.69644  1.0000
  H   H698      1.0  0.58427  0.05259  0.71258  1.0000
  C   C703      1.0  0.55368  0.43207  0.71004  1.0000
  C   C704      1.0  0.53778  0.41188  0.70273  1.0000
  C   C705      1.0  0.51408  0.39240  0.70776  1.0000
  C   C706      1.0  0.50565  0.39317  0.72012  1.0000
  S   S243      1.0  0.89118  0.36176  0.73238  1.0000
  C   C707      1.0  0.54525  0.43283  0.72240  1.0000
  H   H699      1.0  0.54398  0.41122  0.69312  1.0000
  Fe  Fe121     1.0  0.97863  0.18089  0.49583  1.0000
  C   C708      1.0  0.89097  0.13406  0.54767  1.0000
  S   S244      1.0  0.80271  0.25260  0.71341  1.0000
  C   C709      1.0  0.89406  0.39169  0.72424  1.0000
  H   H700      1.0  0.66551  0.08875  0.66204  1.0000
  C   C710      1.0  0.81995  0.32294  0.71244  1.0000
  C   C711      1.0  0.90023  0.44117  0.71261  1.0000
  H   H701      1.0  0.52999  0.31402  0.70151  1.0000
  H   H702      1.0  0.63236  0.09336  0.67782  1.0000
  H   H703      1.0  0.95675  0.39920  0.73323  1.0000
  H   H704      1.0  0.90875  0.38343  0.70670  1.0000
  H   H705      1.0  0.76269  0.46982  0.71776  1.0000
  H   H706      1.0  0.67151  0.04584  0.66030  1.0000
  C   C712      1.0  0.74982  0.17831  0.71398  1.0000
  C   C713      1.0  0.80666  0.20380  0.71417  1.0000
  C   C714      1.0  0.79581  0.17663  0.71483  1.0000
  C   C715      1.0  0.76741  0.16379  0.71487  1.0000
  H   H707      1.0  0.88125  0.10298  0.48826  1.0000
  C   C716      1.0  0.58417  0.39224  0.72002  1.0000
  H   H708      1.0  0.96186  0.44319  0.72425  1.0000
  C   C717      1.0  0.95487  0.43791  0.73391  1.0000
  H   H709      1.0  0.84175  0.38812  0.71188  1.0000
  H   H710      1.0  0.93283  0.08273  0.50903  1.0000
  C   C718      1.0  0.92986  0.25229  0.66928  1.0000
  C   C719      1.0  0.92623  0.25954  0.68149  1.0000
  C   C720      1.0  0.94079  0.25347  0.69156  1.0000
  S   S245      1.0  0.58444  0.45490  0.70340  1.0000
  H   H711      1.0  0.91233  0.27001  0.68310  1.0000
  H   H712      1.0  0.93951  0.21923  0.56032  1.0000
  C   C721      1.0  0.64144  0.02692  0.67482  1.0000
  H   H713      1.0  0.92452  0.19814  0.54080  1.0000
  C   C722      1.0  0.88351  0.20224  0.69677  1.0000
  C   C723      1.0  0.52280  0.32357  0.70902  1.0000
  C   C724      1.0  0.72748  0.01686  0.66131  1.0000
  C   C725      1.0  0.76172  0.98520  0.55324  1.0000
  H   H714      1.0  0.93044  0.17164  0.69708  1.0000
  C   C726      1.0  0.69990  0.01710  0.68434  1.0000
  C   C727      1.0  0.71420  0.04047  0.67766  1.0000
  C   C728      1.0  0.72763  0.04030  0.66618  1.0000
  C   C729      1.0  0.76076  0.20563  0.71334  1.0000
  H   H715      1.0  0.71452  0.05865  0.68123  1.0000
  H   H716      1.0  0.73817  0.05847  0.66102  1.0000
  C   C730      1.0  0.87250  0.03290  0.63312  1.0000
  C   C731      1.0  0.89787  0.05020  0.62866  1.0000
  C   C732      1.0  0.91135  0.07287  0.63490  1.0000
  C   C733      1.0  0.89975  0.07816  0.64578  1.0000
  C   C734      1.0  0.87482  0.06038  0.65049  1.0000
  C   C735      1.0  0.86103  0.03796  0.64410  1.0000
  H   H717      1.0  0.90698  0.04627  0.62023  1.0000
  H   H718      1.0  0.93068  0.08628  0.63126  1.0000
  H   H719      1.0  0.86582  0.06424  0.65896  1.0000
  H   H720      1.0  0.84159  0.02464  0.64767  1.0000
  H   H721      1.0  0.81341  0.05198  0.48660  1.0000
  C   C736      1.0  0.90344  0.39762  0.71180  1.0000
  Fe  Fe122     1.0  0.96641  0.19936  0.64249  1.0000
  H   H722      1.0  0.57002  0.12182  0.69863  1.0000
  H   H723      1.0  0.95974  0.15422  0.55323  1.0000
  H   H724      1.0  0.83144  0.37054  0.73261  1.0000
  C   C737      1.0  0.89722  0.15880  0.56616  1.0000
  H   H725      1.0  0.58920  0.00950  0.69568  1.0000
  C   C738      1.0  0.83693  0.36871  0.70860  1.0000
  C   C739      1.0  0.82505  0.31942  0.69992  1.0000
  H   H726      1.0  0.90453  0.21545  0.56458  1.0000
  C   C740      1.0  0.88751  0.13490  0.56058  1.0000
  H   H727      1.0  0.95263  0.48212  0.72510  1.0000
  C   C741      1.0  0.65671  0.04804  0.66692  1.0000
  H   H728      1.0  0.92197  0.03532  0.50692  1.0000
  C   C742      1.0  0.63484  0.07468  0.67675  1.0000
  S   S246      1.0  0.96959  0.13784  0.49701  1.0000
  H   H729      1.0  0.50068  0.20748  0.71323  1.0000
  C   C743      1.0  0.91375  0.18050  0.54641  1.0000
  N   N57       1.0  0.90936  0.17886  0.68087  1.0000
  S   S247      1.0  0.93671  0.26151  0.70729  1.0000
  C   C744      1.0  0.52122  0.41365  0.72735  1.0000
  C   C745      1.0  0.92040  0.20603  0.56505  1.0000
  H   H730      1.0  0.52709  0.34438  0.73123  1.0000
  S   S248      1.0  0.87154  0.24615  0.72730  1.0000
  C   C746      1.0  0.96576  0.16711  0.56084  1.0000
  H   H731      1.0  0.50523  0.32905  0.70550  1.0000
  H   H732      1.0  0.85180  0.38297  0.68980  1.0000
  C   C747      1.0  0.83670  0.34108  0.69172  1.0000
  H   H733      1.0  0.88377  0.11568  0.54316  1.0000
  S   S249      1.0  0.94351  0.16433  0.59743  1.0000
  N   N58       1.0  0.85490  0.09550  0.62789  1.0000
  C   C748      1.0  0.85499  0.10865  0.63844  1.0000
  C   C749      1.0  0.83339  0.07349  0.62568  1.0000
  C   C750      1.0  0.83355  0.09939  0.64730  1.0000
  C   C751      1.0  0.81149  0.06389  0.63428  1.0000
  C   C752      1.0  0.81168  0.07681  0.64518  1.0000
  C   C753      1.0  0.87749  0.10565  0.61869  1.0000
  H   H734      1.0  0.87219  0.12593  0.64025  1.0000
  H   H735      1.0  0.83334  0.06283  0.61740  1.0000
  H   H736      1.0  0.83413  0.10938  0.65584  1.0000
  H   H737      1.0  0.79458  0.04632  0.63266  1.0000
  H   H738      1.0  0.79494  0.06908  0.65199  1.0000
  H   H739      1.0  0.88059  0.08973  0.61354  1.0000
  H   H740      1.0  0.87336  0.11986  0.61189  1.0000
  H   H741      1.0  0.89720  0.11544  0.62340  1.0000
  C   C754      1.0  0.89041  0.43501  0.72498  1.0000
  H   H742      1.0  0.72787  0.16851  0.71391  1.0000
  N   N59       1.0  0.62320  0.02961  0.68340  1.0000
  S   S250      1.0  0.48321  0.25179  0.71484  1.0000
  C   C755      1.0  0.95620  0.15794  0.57314  1.0000
  C   C756      1.0  0.88743  0.41047  0.73075  1.0000
  H   H743      1.0  0.91138  0.14538  0.67234  1.0000
  S   S251      1.0  0.71166  0.47944  0.71975  1.0000
  H   H744      1.0  0.82028  0.29995  0.69668  1.0000
  C   C757      1.0  0.65341  0.07208  0.66793  1.0000
  H   H745      1.0  0.92557  0.20335  0.57505  1.0000
  H   H746      1.0  0.59971  0.39592  0.70110  1.0000
  C   C758      1.0  0.91524  0.17955  0.69339  1.0000
  C   C759      1.0  0.76139  0.00017  0.56348  1.0000
  Fe  Fe123     1.0  0.84635  0.26959  0.71996  1.0000
  H   H747      1.0  0.83006  0.06546  0.50083  1.0000
  S   S252      1.0  0.95078  0.22932  0.65132  1.0000
  H   H748      1.0  0.87434  0.21235  0.70288  1.0000
  H   H749      1.0  0.80949  0.16547  0.71543  1.0000
  H   H750      1.0  0.74714  0.21686  0.71275  1.0000
  H   H751      1.0  0.89502  0.15926  0.57625  1.0000
  H   H752      1.0  0.84117  0.33859  0.68205  1.0000
  C   C760      1.0  0.60836  0.00752  0.69198  1.0000
  C   C761      1.0  0.54376  0.35493  0.72478  1.0000
  S   S253      1.0  0.90529  0.47218  0.70510  1.0000
  C   C762      1.0  0.90397  0.15699  0.54052  1.0000
  Fe  Fe124     1.0  0.96072  0.17175  0.61722  1.0000
  H   H753      1.0  0.90839  0.19330  0.71128  1.0000
  C   C763      1.0  0.56446  0.36107  0.70450  1.0000
  S   S254      1.0  0.97170  0.14022  0.52788  1.0000
  N   N60       1.0  0.54460  0.34672  0.71295  1.0000
  H   H754      1.0  0.94426  0.16928  0.67555  1.0000
  H   H755      1.0  0.90664  0.15645  0.53049  1.0000
  C   C764      1.0  0.92298  0.16651  0.67250  1.0000
  N   N61       1.0  0.91049  0.18114  0.55909  1.0000
  H   H756      1.0  0.54919  0.11055  0.73075  1.0000
  C   C765      1.0  0.87714  0.20088  0.68406  1.0000
  C   C766      1.0  0.58459  0.38398  0.70792  1.0000
  H   H757      1.0  0.56443  0.35521  0.69496  1.0000
  H   H758      1.0  0.97057  0.23541  0.69683  1.0000
  C   C767      1.0  0.48027  0.20252  0.70945  1.0000
  H   H759      1.0  0.53408  0.02996  0.71469  1.0000
  H   H760      1.0  0.97630  0.22208  0.67538  1.0000
  C   C768      1.0  0.89037  0.18908  0.67618  1.0000
  C   C769      1.0  0.96243  0.17462  0.58311  1.0000
  S   S255      1.0  0.76018  0.99816  0.53773  1.0000
  H   H761      1.0  0.82854  0.21337  0.71399  1.0000
  N   N62       1.0  0.82629  0.34735  0.71667  1.0000
  C   C770      1.0  0.95897  0.24003  0.68917  1.0000
  S   S256      1.0  0.48778  0.04613  0.71030  1.0000
  C   C771      1.0  0.94767  0.23844  0.66694  1.0000
  H   H762      1.0  0.60264  0.98905  0.68713  1.0000
  H   H763      1.0  0.62165  0.00619  0.70000  1.0000
  H   H764      1.0  0.81109  0.30598  0.71877  1.0000
  H   H765      1.0  0.88612  0.18897  0.66622  1.0000
  H   H766      1.0  0.79843  0.34524  0.73152  1.0000
  C   C772      1.0  0.96222  0.23235  0.67700  1.0000
  S   S257      1.0  0.97416  0.14028  0.62623  1.0000
  H   H767      1.0  0.75678  0.00057  0.58363  1.0000
  H   H768      1.0  0.55713  0.44828  0.72812  1.0000
  H   H769      1.0  0.69951  0.99278  0.54369  1.0000
  C   C773      1.0  0.82080  0.35037  0.72985  1.0000
  H   H770      1.0  0.88527  0.44925  0.73012  1.0000
  C   C774      1.0  0.83167  0.06690  0.49041  1.0000
  H   H771      1.0  0.51556  0.30877  0.71695  1.0000
  C   C775      1.0  0.75819  0.98912  0.57588  1.0000
  S   S258      1.0  0.87097  0.99250  0.51084  1.0000
  Fe  Fe125     1.0  0.78080  0.98294  0.49174  1.0000
  C   C776      1.0  0.88102  0.08390  0.48590  1.0000
  H   H772      1.0  0.59946  0.12054  0.73072  1.0000
  H   H773      1.0  0.50441  0.07907  0.73239  1.0000
  C   C777      1.0  0.71364  0.99354  0.66812  1.0000
  N   N63       1.0  0.85710  0.06319  0.48653  1.0000
  Fe  Fe126     1.0  0.81031  0.98439  0.62745  1.0000
  C   C778      1.0  0.69978  0.99369  0.67948  1.0000
  H   H774      1.0  0.83116  0.08618  0.48692  1.0000
  Fe  Fe127     1.0  0.75620  0.98672  0.63703  1.0000
  C   C779      1.0  0.55750  0.09629  0.73484  1.0000
  S   S259      1.0  0.91753  0.30074  0.73470  1.0000
  C   C780      1.0  0.58595  0.10215  0.73487  1.0000
  S   S260      1.0  0.57628  0.45530  0.96968  1.0000
  H   H775      1.0  0.50363  0.07023  0.74899  1.0000
  S   S261      1.0  0.50379  0.03808  0.94997  1.0000
  Fe  Fe128     1.0  0.64954  0.07337  0.97126  1.0000
  S   S262      1.0  0.63941  0.03518  0.96255  1.0000
  H   H776      1.0  0.50836  0.11644  0.95786  1.0000
  Fe  Fe129     1.0  0.71093  0.08735  0.96642  1.0000
  S   S263      1.0  0.70433  0.04886  0.95768  1.0000
  S   S264      1.0  0.75397  0.11809  0.96377  1.0000
  Fe  Fe130     1.0  0.66982  0.05680  0.94737  1.0000
  S   S265      1.0  0.65472  0.05219  0.92717  1.0000
  Fe  Fe131     1.0  0.67417  0.03039  0.97378  1.0000
  S   S266      1.0  0.67732  0.09551  0.95542  1.0000
  C   C781      1.0  0.70641  0.42713  0.84922  1.0000
  S   S267      1.0  0.90650  0.25824  0.97319  1.0000
  C   C782      1.0  0.80748  0.20745  0.74743  1.0000
  Fe  Fe132     1.0  0.87368  0.31017  0.96383  1.0000
  S   S268      1.0  0.91703  0.31508  0.95878  1.0000
  S   S269      1.0  0.85491  0.34019  0.95717  1.0000
  Fe  Fe133     1.0  0.90006  0.27349  0.95372  1.0000
  S   S270      1.0  0.90445  0.25371  0.93608  1.0000
  S   S271      1.0  0.87952  0.48000  0.83028  1.0000
  S   S272      1.0  0.85632  0.26964  0.95738  1.0000
  S   S273      1.0  0.91614  0.45235  0.97541  1.0000
  S   S274      1.0  0.63862  0.41365  0.83948  1.0000
  Fe  Fe134     1.0  0.69291  0.07590  0.85581  1.0000
  S   S275      1.0  0.66558  0.09939  0.85777  1.0000
  S   S276      1.0  0.71204  0.06541  0.87369  1.0000
  Fe  Fe135     1.0  0.68838  0.07817  0.82641  1.0000
  S   S277      1.0  0.66061  0.10181  0.82695  1.0000
  S   S278      1.0  0.70760  0.07370  0.80788  1.0000
  Fe  Fe136     1.0  0.68925  0.12396  0.84148  1.0000
  S   S279      1.0  0.70523  0.16756  0.84201  1.0000
  Fe  Fe137     1.0  0.64046  0.07434  0.84327  1.0000
  S   S280      1.0  0.59578  0.05437  0.84745  1.0000
  S   S281      1.0  0.71825  0.10183  0.84009  1.0000
  S   S282      1.0  0.66639  0.04899  0.84201  1.0000
  S   S283      1.0  0.52383  0.12369  0.83397  1.0000
  Fe  Fe138     1.0  0.89424  0.28545  0.83470  1.0000
  S   S284      1.0  0.84842  0.27230  0.83614  1.0000
  S   S285      1.0  0.91628  0.29726  0.81573  1.0000
  Fe  Fe139     1.0  0.90031  0.28962  0.86387  1.0000
  S   S286      1.0  0.85491  0.27646  0.86692  1.0000
  S   S287      1.0  0.92656  0.30622  0.88057  1.0000
  Fe  Fe140     1.0  0.85383  0.24754  0.85272  1.0000
  S   S288      1.0  0.82992  0.20534  0.85647  1.0000
  Fe  Fe141     1.0  0.85497  0.30288  0.85017  1.0000
  S   S289      1.0  0.83225  0.33134  0.85012  1.0000
  S   S290      1.0  0.89959  0.25872  0.85061  1.0000
  S   S291      1.0  0.90048  0.31769  0.84771  1.0000
  S   S292      1.0  0.91760  0.44390  0.85265  1.0000
  Fe  Fe142     1.0  0.87998  0.27129  0.74385  1.0000
  H   H777      1.0  0.84704  0.20287  0.74873  1.0000
  S   S293      1.0  0.86933  0.25097  0.76335  1.0000
  S   S294      1.0  0.60847  0.46905  0.83752  1.0000
  C   C783      1.0  0.86237  0.35618  0.81829  1.0000
  S   S295      1.0  0.64774  0.05930  0.75490  1.0000
  H   H778      1.0  0.92450  0.34962  0.82277  1.0000
  C   C784      1.0  0.90197  0.28488  0.80125  1.0000
  C   C785      1.0  0.52163  0.17273  0.85443  1.0000
  C   C786      1.0  0.88173  0.26509  0.77777  1.0000
  C   C787      1.0  0.86881  0.25266  0.78910  1.0000
  C   C788      1.0  0.87869  0.26262  0.80077  1.0000
  H   H779      1.0  0.85121  0.23511  0.78884  1.0000
  H   H780      1.0  0.86873  0.25273  0.80940  1.0000
  C   C789      1.0  0.85411  0.36282  0.85299  1.0000
  C   C790      1.0  0.84636  0.38434  0.84953  1.0000
  C   C791      1.0  0.86536  0.40958  0.85008  1.0000
  C   C792      1.0  0.89209  0.41322  0.85410  1.0000
  C   C793      1.0  0.89919  0.39181  0.85833  1.0000
  C   C794      1.0  0.88010  0.36673  0.85794  1.0000
  H   H781      1.0  0.82608  0.38146  0.84591  1.0000
  H   H782      1.0  0.85966  0.42607  0.84686  1.0000
  H   H783      1.0  0.91967  0.39457  0.86166  1.0000
  H   H784      1.0  0.88562  0.35042  0.86139  1.0000
  C   C795      1.0  0.69087  0.07102  0.79316  1.0000
  C   C796      1.0  0.70621  0.07313  0.78205  1.0000
  C   C797      1.0  0.69351  0.07027  0.77023  1.0000
  C   C798      1.0  0.66519  0.06485  0.76942  1.0000
  C   C799      1.0  0.64991  0.06299  0.78053  1.0000
  C   C800      1.0  0.66267  0.06627  0.79232  1.0000
  H   H785      1.0  0.90056  0.41558  0.82765  1.0000
  C   C801      1.0  0.90457  0.28773  0.77824  1.0000
  H   H786      1.0  0.62801  0.05872  0.78002  1.0000
  H   H787      1.0  0.65060  0.06448  0.80078  1.0000
  C   C802      1.0  0.73933  0.17897  0.84696  1.0000
  C   C803      1.0  0.75143  0.16147  0.85191  1.0000
  C   C804      1.0  0.77938  0.16974  0.85446  1.0000
  C   C805      1.0  0.79516  0.19596  0.85282  1.0000
  C   C806      1.0  0.78295  0.21397  0.84851  1.0000
  C   C807      1.0  0.75499  0.20541  0.84548  1.0000
  H   H788      1.0  0.73920  0.14160  0.85407  1.0000
  H   H789      1.0  0.78867  0.15581  0.85796  1.0000
  H   H790      1.0  0.79501  0.23438  0.84741  1.0000
  H   H791      1.0  0.74562  0.21917  0.84184  1.0000
  C   C808      1.0  0.57680  0.07521  0.84531  1.0000
  C   C809      1.0  0.58901  0.10051  0.84011  1.0000
  C   C810      1.0  0.57281  0.11592  0.83716  1.0000
  C   C811      1.0  0.54449  0.10600  0.83942  1.0000
  C   C812      1.0  0.53269  0.08135  0.84534  1.0000
  C   C813      1.0  0.54875  0.06582  0.84814  1.0000
  H   H792      1.0  0.61077  0.10800  0.83809  1.0000
  H   H793      1.0  0.58210  0.13517  0.83275  1.0000
  H   H794      1.0  0.51117  0.07412  0.84775  1.0000
  H   H795      1.0  0.53931  0.04640  0.85234  1.0000
  C   C814      1.0  0.60662  0.39788  0.84677  1.0000
  C   C815      1.0  0.59597  0.41128  0.85493  1.0000
  C   C816      1.0  0.56946  0.39973  0.85995  1.0000
  C   C817      1.0  0.55348  0.37473  0.85682  1.0000
  C   C818      1.0  0.56440  0.36091  0.84898  1.0000
  C   C819      1.0  0.59108  0.37247  0.84399  1.0000
  H   H796      1.0  0.60811  0.43064  0.85738  1.0000
  H   H797      1.0  0.56116  0.41040  0.86609  1.0000
  H   H798      1.0  0.55228  0.34141  0.84672  1.0000
  H   H799      1.0  0.59939  0.36197  0.83776  1.0000
  C   C820      1.0  0.87345  0.37227  0.96074  1.0000
  C   C821      1.0  0.86210  0.39195  0.95836  1.0000
  C   C822      1.0  0.87569  0.41722  0.96220  1.0000
  C   C823      1.0  0.90070  0.42276  0.96835  1.0000
  C   C824      1.0  0.91258  0.40339  0.97015  1.0000
  C   C825      1.0  0.89895  0.37819  0.96643  1.0000
  H   H800      1.0  0.51736  0.01659  0.81305  1.0000
  H   H801      1.0  0.86622  0.43198  0.96093  1.0000
  H   H802      1.0  0.93203  0.40764  0.97483  1.0000
  H   H803      1.0  0.90793  0.36321  0.96825  1.0000
  C   C826      1.0  0.90912  0.26915  0.92080  1.0000
  C   C827      1.0  0.92415  0.29557  0.91868  1.0000
  C   C828      1.0  0.92946  0.30662  0.90631  1.0000
  C   C829      1.0  0.91910  0.29161  0.89597  1.0000
  C   C830      1.0  0.90325  0.26542  0.89811  1.0000
  C   C831      1.0  0.89868  0.25418  0.91046  1.0000
  H   H804      1.0  0.93256  0.30723  0.92654  1.0000
  H   H805      1.0  0.94185  0.32686  0.90474  1.0000
  H   H806      1.0  0.89533  0.25363  0.89024  1.0000
  H   H807      1.0  0.88726  0.23369  0.91199  1.0000
  C   C832      1.0  0.76979  0.14905  0.97007  1.0000
  H   H808      1.0  0.57439  0.03853  0.80883  1.0000
  C   C833      1.0  0.80471  0.19245  0.96718  1.0000
  C   C834      1.0  0.78710  0.16946  0.96220  1.0000
  H   H809      1.0  0.81823  0.20764  0.96101  1.0000
  H   H810      1.0  0.78757  0.16706  0.95222  1.0000
  C   C835      1.0  0.67444  0.06171  0.91309  1.0000
  C   C836      1.0  0.69948  0.05767  0.91163  1.0000
  C   C837      1.0  0.71137  0.05983  0.89955  1.0000
  C   C838      1.0  0.69839  0.06609  0.88887  1.0000
  C   C839      1.0  0.67424  0.07162  0.89047  1.0000
  C   C840      1.0  0.66236  0.06941  0.90249  1.0000
  C   C841      1.0  0.65335  0.99932  0.90153  1.0000
  S   S296      1.0  0.52713  0.34131  0.95102  1.0000
  H   H811      1.0  0.66390  0.07642  0.88241  1.0000
  H   H812      1.0  0.64298  0.07254  0.90351  1.0000
  C   C842      1.0  0.53383  0.04964  0.95872  1.0000
  C   C843      1.0  0.55830  0.04868  0.95366  1.0000
  C   C844      1.0  0.58300  0.05883  0.96001  1.0000
  C   C845      1.0  0.58338  0.06961  0.97161  1.0000
  N   N64       1.0  0.61143  0.38664  0.97322  1.0000
  C   C846      1.0  0.53403  0.06024  0.97038  1.0000
  H   H813      1.0  0.55827  0.04062  0.94463  1.0000
  H   H814      1.0  0.60185  0.05927  0.95562  1.0000
  H   H815      1.0  0.60407  0.42355  0.81927  1.0000
  H   H816      1.0  0.67589  0.46640  0.75874  1.0000
  C   C847      1.0  0.56209  0.42453  0.96353  1.0000
  C   C848      1.0  0.53748  0.40733  0.96878  1.0000
  C   C849      1.0  0.52632  0.38202  0.96473  1.0000
  C   C850      1.0  0.53969  0.37371  0.95539  1.0000
  C   C851      1.0  0.56417  0.39100  0.95000  1.0000
  C   C852      1.0  0.57540  0.41640  0.95407  1.0000
  C   C853      1.0  0.52533  0.08893  0.80777  1.0000
  H   H817      1.0  0.50764  0.36875  0.96907  1.0000
  H   H818      1.0  0.57458  0.38468  0.94275  1.0000
  H   H819      1.0  0.59441  0.42956  0.94998  1.0000
  H   H820      1.0  0.55321  0.37182  0.82132  1.0000
  H   H821      1.0  0.67459  0.00666  0.89759  1.0000
  C   C854      1.0  0.91475  0.29741  0.78992  1.0000
  C   C855      1.0  0.82665  0.13317  0.96500  1.0000
  H   H822      1.0  0.54334  0.17407  0.85560  1.0000
  C   C856      1.0  0.71619  0.47464  0.87419  1.0000
  C   C857      1.0  0.63771  0.39657  0.96856  1.0000
  H   H823      1.0  0.85343  0.39108  0.82124  1.0000
  C   C858      1.0  0.52775  0.42827  0.82812  1.0000
  H   H824      1.0  0.49069  0.18930  0.97013  1.0000
  H   H825      1.0  0.70089  0.43677  0.84070  1.0000
  H   H826      1.0  0.69371  0.40620  0.84944  1.0000
  H   H827      1.0  0.52107  0.44435  0.83022  1.0000
  Fe  Fe143     1.0  0.49228  0.32661  0.85339  1.0000
  S   S297      1.0  0.48928  0.23592  0.84781  1.0000
  C   C859      1.0  0.92797  0.46747  0.93869  1.0000
  C   C860      1.0  0.93824  0.44802  0.75297  1.0000
  C   C861      1.0  0.67717  0.42925  0.86688  1.0000
  S   S298      1.0  0.65149  0.47961  0.95120  1.0000
  C   C862      1.0  0.94245  0.39781  0.83049  1.0000
  C   C863      1.0  0.50903  0.13183  0.86721  1.0000
  H   H828      1.0  0.72827  0.42855  0.84845  1.0000
  C   C864      1.0  0.55203  0.43274  0.82127  1.0000
  C   C865      1.0  0.75667  0.47647  0.83167  1.0000
  C   C866      1.0  0.61428  0.01495  0.89994  1.0000
  C   C867      1.0  0.82514  0.19310  0.74775  1.0000
  H   H829      1.0  0.84303  0.15366  0.94754  1.0000
  H   H830      1.0  0.73014  0.05560  0.89845  1.0000
  N   N65       1.0  0.54039  0.07258  0.73947  1.0000
  N   N66       1.0  0.74428  0.14894  0.88255  1.0000
  C   C868      1.0  0.75997  0.13348  0.88460  1.0000
  C   C869      1.0  0.75595  0.17540  0.88236  1.0000
  C   C870      1.0  0.78833  0.14450  0.88604  1.0000
  C   C871      1.0  0.78425  0.18706  0.88377  1.0000
  C   C872      1.0  0.80052  0.17147  0.88550  1.0000
  C   C873      1.0  0.71471  0.13701  0.88080  1.0000
  H   H831      1.0  0.75065  0.11248  0.88486  1.0000
  H   H832      1.0  0.74356  0.18765  0.88061  1.0000
  H   H833      1.0  0.80081  0.13220  0.88730  1.0000
  H   H834      1.0  0.79370  0.20803  0.88296  1.0000
  H   H835      1.0  0.82263  0.18036  0.88607  1.0000
  H   H836      1.0  0.70387  0.13258  0.89004  1.0000
  H   H837      1.0  0.70650  0.14985  0.87479  1.0000
  H   H838      1.0  0.71015  0.11868  0.87591  1.0000
  N   N67       1.0  0.87646  0.33050  0.90193  1.0000
  C   C874      1.0  0.88256  0.34795  0.91111  1.0000
  C   C875      1.0  0.86425  0.30452  0.90494  1.0000
  C   C876      1.0  0.87611  0.33958  0.92370  1.0000
  C   C877      1.0  0.85772  0.29547  0.91744  1.0000
  C   C878      1.0  0.86359  0.31318  0.92684  1.0000
  C   C879      1.0  0.88374  0.33993  0.88886  1.0000
  H   H839      1.0  0.89256  0.36847  0.90872  1.0000
  H   H840      1.0  0.86015  0.29058  0.89771  1.0000
  H   H841      1.0  0.88083  0.35334  0.93103  1.0000
  H   H842      1.0  0.84879  0.27482  0.91988  1.0000
  H   H843      1.0  0.85863  0.30653  0.93656  1.0000
  H   H844      1.0  0.87647  0.32407  0.88227  1.0000
  H   H845      1.0  0.87447  0.35488  0.88600  1.0000
  H   H846      1.0  0.90640  0.34829  0.88769  1.0000
  N   N68       1.0  0.79525  0.17556  0.82042  1.0000
  C   C880      1.0  0.77419  0.18519  0.81903  1.0000
  C   C881      1.0  0.79109  0.15006  0.81845  1.0000
  C   C882      1.0  0.74800  0.16900  0.81587  1.0000
  C   C883      1.0  0.76523  0.13341  0.81512  1.0000
  C   C884      1.0  0.74358  0.14299  0.81386  1.0000
  C   C885      1.0  0.82271  0.19271  0.82360  1.0000
  H   H847      1.0  0.77737  0.20536  0.82061  1.0000
  H   H848      1.0  0.80778  0.14243  0.81950  1.0000
  N   N69       1.0  0.63537  0.01001  0.89414  1.0000
  Fe  Fe144     1.0  0.48242  0.32045  0.95617  1.0000
  H   H849      1.0  0.82227  0.21114  0.82730  1.0000
  H   H850      1.0  0.83159  0.18328  0.83113  1.0000
  H   H851      1.0  0.61149  0.01201  0.91006  1.0000
  N   N70       1.0  0.50378  0.15408  0.86375  1.0000
  H   H852      1.0  0.93286  0.31454  0.79018  1.0000
  H   H853      1.0  0.58757  0.10313  0.94300  1.0000
  H   H854      1.0  0.52715  0.41346  0.97614  1.0000
  C   C886      1.0  0.62204  0.02408  0.87418  1.0000
  H   H855      1.0  0.65226  0.43353  0.88223  1.0000
  C   C887      1.0  0.92801  0.47765  0.91295  1.0000
  H   H856      1.0  0.58047  0.02934  0.89766  1.0000
  H   H857      1.0  0.83832  0.47012  0.78852  1.0000
  H   H858      1.0  0.73107  0.17643  0.81529  1.0000
  C   C888      1.0  0.76969  0.15238  0.98298  1.0000
  C   C889      1.0  0.89570  0.39567  0.82504  1.0000
  C   C890      1.0  0.90901  0.35889  0.82237  1.0000
  C   C891      1.0  0.90371  0.46235  0.91914  1.0000
  H   H859      1.0  0.77807  0.13319  0.74489  1.0000
  H   H860      1.0  0.74963  0.45772  0.82761  1.0000
  S   S299      1.0  0.61472  0.08439  0.97908  1.0000
  H   H861      1.0  0.72799  0.07662  0.78260  1.0000
  H   H862      1.0  0.70549  0.07150  0.76180  1.0000
  H   H863      1.0  0.52059  0.13298  0.97891  1.0000
  H   H864      1.0  0.84229  0.38739  0.95398  1.0000
  H   H865      1.0  0.68745  0.47399  0.88891  1.0000
  H   H866      1.0  0.60342  0.13603  0.97236  1.0000
  C   C892      1.0  0.58266  0.13209  0.96905  1.0000
  H   H867      1.0  0.65835  0.45475  0.98196  1.0000
  H   H868      1.0  0.94251  0.41454  0.83598  1.0000
  H   H869      1.0  0.52612  0.12787  0.86300  1.0000
  Fe  Fe145     1.0  0.47920  0.09927  0.83429  1.0000
  C   C893      1.0  0.86905  0.38200  0.82131  1.0000
  H   H870      1.0  0.83642  0.19752  0.81518  1.0000
  H   H871      1.0  0.72925  0.16666  0.73946  1.0000
  H   H872      1.0  0.49969  0.04639  0.73734  1.0000
  H   H873      1.0  0.52755  0.10935  0.80675  1.0000
  C   C894      1.0  0.60077  0.02954  0.88003  1.0000
  H   H874      1.0  0.53739  0.03562  0.74802  1.0000
  H   H875      1.0  0.91485  0.29738  0.76962  1.0000
  C   C895      1.0  0.54599  0.38778  0.82298  1.0000
  S   S300      1.0  0.68344  0.06821  0.98326  1.0000
  H   H876      1.0  0.56236  0.38460  0.73774  1.0000
  C   C896      1.0  0.88258  0.34466  0.81859  1.0000
  N   N71       1.0  0.54466  0.05568  0.81320  1.0000
  H   H877      1.0  0.58753  0.03749  0.87449  1.0000
  N   N72       1.0  0.91499  0.38376  0.82595  1.0000
  H   H878      1.0  0.59088  0.43410  0.80507  1.0000
  C   C897      1.0  0.50671  0.34482  0.90820  1.0000
  C   C898      1.0  0.61829  0.42547  0.98416  1.0000
  Fe  Fe146     1.0  0.91969  0.30001  0.97884  1.0000
  H   H879      1.0  0.73047  0.15167  0.75494  1.0000
  C   C899      1.0  0.63922  0.01420  0.88141  1.0000
  H   H880      1.0  0.73401  0.13595  0.74096  1.0000
  C   C900      1.0  0.52143  0.38260  0.82968  1.0000
  C   C901      1.0  0.53617  0.13024  0.97291  1.0000
  H   H881      1.0  0.94963  0.38486  0.83691  1.0000
  C   C902      1.0  0.51242  0.40299  0.83237  1.0000
  H   H882      1.0  0.57232  0.35616  0.97296  1.0000
  H   H883      1.0  0.84153  0.34499  0.81589  1.0000
  H   H884      1.0  0.70888  0.05146  0.91969  1.0000
  H   H885      1.0  0.76176  0.11308  0.81367  1.0000
  C   C903      1.0  0.52922  0.12089  0.96104  1.0000
  S   S301      1.0  0.66584  0.48124  0.82150  1.0000
  C   C904      1.0  0.77927  0.19464  0.74633  1.0000
  C   C905      1.0  0.49998  0.06997  0.80591  1.0000
  H   H886      1.0  0.49374  0.39913  0.83785  1.0000
  H   H887      1.0  0.52441  0.33868  0.90943  1.0000
  H   H888      1.0  0.62534  0.02779  0.86412  1.0000
  H   H889      1.0  0.51517  0.06095  0.97437  1.0000
  H   H890      1.0  0.64546  0.38546  0.96240  1.0000
  C   C906      1.0  0.55093  0.05441  0.74437  1.0000
  Fe  Fe147     1.0  0.89959  0.47521  0.84844  1.0000
  C   C907      1.0  0.78619  0.15405  0.74576  1.0000
  H   H891      1.0  0.50978  0.36295  0.83305  1.0000
  H   H892      1.0  0.60152  0.34572  0.97515  1.0000
  H   H893      1.0  0.56393  0.45247  0.81804  1.0000
  C   C908      1.0  0.93515  0.42325  0.75828  1.0000
  C   C909      1.0  0.58728  0.41797  0.81236  1.0000
  H   H894      1.0  0.60224  0.47127  0.77841  1.0000
  C   C910      1.0  0.90378  0.45717  0.93209  1.0000
  S   S302      1.0  0.49856  0.30663  0.83650  1.0000
  N   N73       1.0  0.56088  0.41261  0.81881  1.0000
  H   H895      1.0  0.50517  0.34084  0.88824  1.0000
  C   C911      1.0  0.81452  0.16625  0.74682  1.0000
  H   H896      1.0  0.92765  0.48187  0.90290  1.0000
  H   H897      1.0  0.87769  0.32463  0.81617  1.0000
  H   H898      1.0  0.58779  0.04524  0.74834  1.0000
  Fe  Fe148     1.0  0.64495  0.45620  0.83823  1.0000
  N   N74       1.0  0.86036  0.17599  0.96318  1.0000
  H   H899      1.0  0.75861  0.47189  0.98019  1.0000
  H   H900      1.0  0.61882  0.08782  0.73973  1.0000
  C   C912      1.0  0.51063  0.06686  0.73964  1.0000
  C   C913      1.0  0.94194  0.40562  0.75115  1.0000
  C   C914      1.0  0.51979  0.03697  0.81149  1.0000
  H   H901      1.0  0.67578  0.42934  0.96789  1.0000
  S   S303      1.0  0.66483  0.98881  0.98270  1.0000
  N   N75       1.0  0.76897  0.16825  0.74556  1.0000
  H   H902      1.0  0.81253  0.11652  0.96061  1.0000
  C   C915      1.0  0.73922  0.15503  0.74526  1.0000
  H   H903      1.0  0.60581  0.13774  0.94310  1.0000
  C   C916      1.0  0.59678  0.02493  0.89299  1.0000
  C   C917      1.0  0.87693  0.19873  0.95541  1.0000
  H   H904      1.0  0.56725  0.09631  0.81280  1.0000
  C   C918      1.0  0.54921  0.11712  0.95338  1.0000
  H   H905      1.0  0.95704  0.40508  0.82245  1.0000
  Fe  Fe149     1.0  0.86300  0.25643  0.97688  1.0000
  H   H906      1.0  0.82513  0.47071  0.81094  1.0000
  N   N76       1.0  0.57554  0.12265  0.95744  1.0000
  C   C919      1.0  0.72085  0.46197  0.86385  1.0000
  C   C920      1.0  0.49464  0.35147  0.91854  1.0000
  C   C921      1.0  0.82633  0.13436  0.97801  1.0000
  C   C922      1.0  0.69151  0.46423  0.88095  1.0000
  S   S304      1.0  0.86479  0.47585  0.86055  1.0000
  H   H907      1.0  0.49211  0.19231  0.83544  1.0000
  S   S305      1.0  0.51966  0.36181  0.86254  1.0000
  H   H908      1.0  0.56295  0.03400  0.82509  1.0000
  C   C923      1.0  0.54766  0.08140  0.81133  1.0000
  H   H909      1.0  0.72331  0.13013  0.81150  1.0000
  H   H910      1.0  0.58818  0.40072  0.80763  1.0000
  H   H911      1.0  0.93880  0.38603  0.75495  1.0000
  H   H912      1.0  0.87950  0.19396  0.94560  1.0000
  H   H913      1.0  0.65474  0.00536  0.91138  1.0000
  C   C924      1.0  0.55878  0.07004  0.97685  1.0000
  H   H914      1.0  0.51527  0.16634  0.84486  1.0000
  H   H915      1.0  0.86701  0.21382  0.95508  1.0000
  C   C925      1.0  0.49571  0.34603  0.89627  1.0000
  H   H916      1.0  0.54335  0.10928  0.94427  1.0000
  C   C926      1.0  0.59683  0.08368  0.73977  1.0000
  H   H917      1.0  0.88490  0.45487  0.91394  1.0000
  C   C927      1.0  0.59416  0.36039  0.97020  1.0000
  H   H918      1.0  0.61298  0.11537  0.95453  1.0000
  H   H919      1.0  0.73989  0.47040  0.85852  1.0000
  C   C928      1.0  0.56820  0.04784  0.81672  1.0000
  H   H920      1.0  0.76570  0.20597  0.74600  1.0000
  H   H921      1.0  0.89780  0.20717  0.95928  1.0000
  C   C929      1.0  0.59652  0.11968  0.94908  1.0000
  H   H922      1.0  0.65613  0.01061  0.87681  1.0000
  H   H923      1.0  0.81570  0.22838  0.74803  1.0000
  C   C930      1.0  0.49201  0.11356  0.87597  1.0000
  C   C931      1.0  0.80570  0.19515  0.98015  1.0000
  C   C932      1.0  0.65495  0.42122  0.97163  1.0000
  H   H924      1.0  0.66151  0.41181  0.86393  1.0000
  C   C933      1.0  0.84380  0.15435  0.95766  1.0000
  H   H925      1.0  0.92717  0.41764  0.76777  1.0000
  H   H926      1.0  0.88507  0.44548  0.93705  1.0000
  S   S306      1.0  0.80316  0.46572  0.83711  1.0000
  N   N77       1.0  0.94757  0.45485  0.74088  1.0000
  H   H927      1.0  0.60208  0.99031  0.97861  1.0000
  H   H928      1.0  0.59442  0.35814  0.95992  1.0000
  C   C934      1.0  0.57930  0.05967  0.74457  1.0000
  H   H929      1.0  0.58622  0.06462  0.81928  1.0000
  H   H930      1.0  0.67492  0.47761  0.78091  1.0000
  N   N78       1.0  0.70155  0.43943  0.86040  1.0000
  C   C935      1.0  0.95215  0.41305  0.73894  1.0000
  H   H931      1.0  0.88023  0.40612  0.74039  1.0000
  H   H932      1.0  0.82812  0.15496  0.74688  1.0000
  H   H933      1.0  0.49583  0.09566  0.87854  1.0000
  C   C936      1.0  0.67180  0.44145  0.87725  1.0000
  H   H934      1.0  0.52055  0.19254  0.85519  1.0000
  H   H935      1.0  0.50275  0.35036  0.92787  1.0000
  C   C937      1.0  0.60165  0.40074  0.98095  1.0000
  H   H936      1.0  0.93272  0.46169  0.75847  1.0000
  S   S307      1.0  0.85222  0.29248  0.73703  1.0000
  C   C938      1.0  0.64515  0.43563  0.97953  1.0000
  C   C939      1.0  0.49712  0.04381  0.80778  1.0000
  H   H937      1.0  0.92821  0.46387  0.94878  1.0000
  H   H938      1.0  0.48243  0.07551  0.80321  1.0000
  H   H939      1.0  0.82875  0.33765  0.73606  1.0000
  C   C940      1.0  0.56305  0.13585  0.97699  1.0000
  C   C941      1.0  0.48115  0.15827  0.86838  1.0000
  H   H940      1.0  0.51476  0.41462  0.73688  1.0000
  C   C942      1.0  0.86020  0.17729  0.97594  1.0000
  C   C943      1.0  0.94966  0.48056  0.73547  1.0000
  H   H941      1.0  0.58065  0.39320  0.98445  1.0000
  H   H942      1.0  0.87222  0.19495  0.98027  1.0000
  C   C944      1.0  0.84326  0.15649  0.98355  1.0000
  H   H943      1.0  0.81202  0.11862  0.98372  1.0000
  S   S308      1.0  0.87645  0.29701  0.98392  1.0000
  Fe  Fe150     1.0  0.66676  0.06825  0.73517  1.0000
  Fe  Fe151     1.0  0.56849  0.59748  0.04393  1.0000
  S   S309      1.0  0.52682  0.60042  0.03978  1.0000
  S   S310      1.0  0.58935  0.57460  0.03247  1.0000
  Fe  Fe152     1.0  0.56838  0.61776  0.07056  1.0000
  S   S311      1.0  0.52734  0.62182  0.06787  1.0000
  S   S312      1.0  0.58896  0.63155  0.08898  1.0000
  Fe  Fe153     1.0  0.51512  0.58298  0.05943  1.0000
  C   C945      1.0  0.56786  0.71924  0.19573  1.0000
  Fe  Fe154     1.0  0.54310  0.63938  0.04876  1.0000
  S   S313      1.0  0.53218  0.67545  0.04278  1.0000
  S   S314      1.0  0.55566  0.57804  0.06325  1.0000
  S   S315      1.0  0.58544  0.63743  0.05174  1.0000
  Fe  Fe155     1.0  0.58005  0.82796  0.04845  1.0000
  S   S316      1.0  0.59931  0.86425  0.05908  1.0000
  S   S317      1.0  0.59845  0.79560  0.04811  1.0000
  Fe  Fe156     1.0  0.53165  0.84391  0.04076  1.0000
  S   S318      1.0  0.54621  0.88040  0.05104  1.0000
  N   N79       1.0  0.56126  0.52542  0.99039  1.0000
  Fe  Fe157     1.0  0.58771  0.88598  0.04241  1.0000
  S   S319      1.0  0.61039  0.92807  0.03463  1.0000
  Fe  Fe158     1.0  0.55654  0.85613  0.06668  1.0000
  S   S320      1.0  0.53852  0.85362  0.08641  1.0000
  S   S321      1.0  0.57216  0.85027  0.03127  1.0000
  S   S322      1.0  0.53830  0.81899  0.05685  1.0000
  Fe  Fe159     1.0  0.55964  0.84063  0.15945  1.0000
  S   S323      1.0  0.51437  0.81991  0.15836  1.0000
  S   S324      1.0  0.58627  0.85329  0.14167  1.0000
  Fe  Fe160     1.0  0.55931  0.83267  0.18867  1.0000
  S   S325      1.0  0.51412  0.81155  0.18924  1.0000
  S   S326      1.0  0.58316  0.83121  0.20658  1.0000
  Fe  Fe161     1.0  0.52117  0.79140  0.17262  1.0000
  S   S327      1.0  0.49789  0.74870  0.17219  1.0000
  Fe  Fe162     1.0  0.51172  0.84222  0.17502  1.0000
  C   C946      1.0  0.53347  0.73743  0.20137  1.0000
  S   S328      1.0  0.56672  0.81030  0.17279  1.0000
  S   S329      1.0  0.55684  0.86535  0.17540  1.0000
  Fe  Fe163     1.0  0.54740  0.59469  0.18911  1.0000
  S   S330      1.0  0.52594  0.62394  0.18755  1.0000
  S   S331      1.0  0.54526  0.57422  0.20849  1.0000
  Fe  Fe164     1.0  0.54991  0.59263  0.15975  1.0000
  S   S332      1.0  0.52803  0.62127  0.15677  1.0000
  S   S333      1.0  0.55529  0.57175  0.14260  1.0000
  Fe  Fe165     1.0  0.55579  0.64233  0.17175  1.0000
  S   S334      1.0  0.57771  0.68515  0.16886  1.0000
  Fe  Fe166     1.0  0.50080  0.59939  0.17279  1.0000
  H   H944      1.0  0.61053  0.64089  0.23288  1.0000
  S   S335      1.0  0.57955  0.61483  0.17412  1.0000
  S   S336      1.0  0.52078  0.56925  0.17496  1.0000
  C   C947      1.0  0.55662  0.59182  0.22209  1.0000
  C   C948      1.0  0.61398  0.74689  0.18876  1.0000
  N   N80       1.0  0.54111  0.76721  0.02083  1.0000
  C   C949      1.0  0.57407  0.83879  0.22157  1.0000
  H   H945      1.0  0.48184  0.89721  0.05773  1.0000
  S   S337      1.0  0.95615  0.56541  0.99595  1.0000
  C   C950      1.0  0.55556  0.85206  0.22293  1.0000
  C   C951      1.0  0.54106  0.71575  0.19962  1.0000
  C   C952      1.0  0.48090  0.89388  0.03769  1.0000
  H   H946      1.0  0.54599  0.85748  0.21472  1.0000
  C   C953      1.0  0.54284  0.52190  0.01131  1.0000
  C   C954      1.0  0.55429  0.70177  0.16756  1.0000
  C   C955      1.0  0.56379  0.72842  0.16437  1.0000
  C   C956      1.0  0.54605  0.74270  0.16510  1.0000
  C   C957      1.0  0.51895  0.73046  0.16922  1.0000
  C   C958      1.0  0.50903  0.70355  0.17173  1.0000
  C   C959      1.0  0.52669  0.68917  0.17086  1.0000
  H   H947      1.0  0.58500  0.73811  0.16157  1.0000
  H   H948      1.0  0.55343  0.76315  0.16252  1.0000
  H   H949      1.0  0.49721  0.58543  0.08828  1.0000
  H   H950      1.0  0.51913  0.66852  0.17315  1.0000
  C   C960      1.0  0.55285  0.85543  0.10163  1.0000
  C   C961      1.0  0.53502  0.84969  0.11211  1.0000
  C   C962      1.0  0.54499  0.84943  0.12440  1.0000
  C   C963      1.0  0.57305  0.85513  0.12638  1.0000
  C   C964      1.0  0.59100  0.86143  0.11590  1.0000
  C   C965      1.0  0.58098  0.86145  0.10358  1.0000
  H   H951      1.0  0.51326  0.84513  0.11071  1.0000
  H   H952      1.0  0.53095  0.84475  0.13233  1.0000
  H   H953      1.0  0.61276  0.86604  0.11733  1.0000
  H   H954      1.0  0.59499  0.86617  0.09562  1.0000
  C   C966      1.0  0.55126  0.70770  0.04666  1.0000
  C   C967      1.0  0.57984  0.71763  0.04540  1.0000
  C   C968      1.0  0.59401  0.74443  0.04629  1.0000
  C   C969      1.0  0.57986  0.76167  0.04844  1.0000
  C   C970      1.0  0.55140  0.75161  0.05023  1.0000
  C   C971      1.0  0.53724  0.72478  0.04937  1.0000
  H   H955      1.0  0.59093  0.70483  0.04320  1.0000
  H   H956      1.0  0.61603  0.75195  0.04494  1.0000
  H   H957      1.0  0.54017  0.76451  0.05197  1.0000
  H   H958      1.0  0.51516  0.71732  0.05043  1.0000
  H   H959      1.0  0.56447  0.79032  0.07751  1.0000
  C   C972      1.0  0.54126  0.79009  0.11361  1.0000
  C   C973      1.0  0.51144  0.61244  0.10283  1.0000
  C   C974      1.0  0.57850  0.61459  0.10374  1.0000
  C   C975      1.0  0.58399  0.62851  0.11469  1.0000
  C   C976      1.0  0.57667  0.61568  0.12662  1.0000
  C   C977      1.0  0.56459  0.58865  0.12775  1.0000
  C   C978      1.0  0.55939  0.57467  0.11680  1.0000
  C   C979      1.0  0.56594  0.58759  0.10484  1.0000
  H   H960      1.0  0.59386  0.64937  0.11395  1.0000
  H   H961      1.0  0.58087  0.62667  0.13496  1.0000
  H   H962      1.0  0.55012  0.55376  0.11759  1.0000
  H   H963      1.0  0.56176  0.57662  0.09650  1.0000
  H   H964      1.0  0.96375  0.62503  0.99108  1.0000
  H   H965      1.0  0.53187  0.55441  0.01680  1.0000
  C   C980      1.0  0.56247  0.79330  0.12213  1.0000
  H   H966      1.0  0.51940  0.62930  0.09635  1.0000
  H   H967      1.0  0.97692  0.63229  0.03059  1.0000
  H   H968      1.0  0.57232  0.78675  0.00739  1.0000
  H   H969      1.0  0.52610  0.69635  0.20082  1.0000
  H   H970      1.0  0.51253  0.73507  0.20396  1.0000
  C   C981      1.0  0.62698  0.94446  0.02032  1.0000
  C   C982      1.0  0.63066  0.93124  0.00998  1.0000
  C   C983      1.0  0.64297  0.94518  0.99874  1.0000
  C   C984      1.0  0.57962  0.80520  0.08296  1.0000
  N   N81       1.0  0.58634  0.74366  0.19335  1.0000
  H   H971      1.0  0.62413  0.91027  0.01065  1.0000
  C   C985      1.0  0.65127  0.97252  0.99751  1.0000
  C   C986      1.0  0.62503  0.57375  0.99278  1.0000
  C   C987      1.0  0.62256  0.55372  0.00189  1.0000
  C   C988      1.0  0.61217  0.55470  0.01401  1.0000
  C   C989      1.0  0.60380  0.57551  0.01720  1.0000
  C   C990      1.0  0.60654  0.59571  0.00814  1.0000
  C   C991      1.0  0.61717  0.59484  0.99604  1.0000
  H   H972      1.0  0.62871  0.53748  0.99962  1.0000
  H   H973      1.0  0.61033  0.53901  0.02093  1.0000
  H   H974      1.0  0.60034  0.61193  0.01040  1.0000
  H   H975      1.0  0.59422  0.78446  0.19404  1.0000
  H   H976      1.0  0.58351  0.77118  0.02075  1.0000
  H   H977      1.0  0.57979  0.92948  0.99842  1.0000
  C   C992      1.0  0.57940  0.76502  0.19556  1.0000
  H   H978      1.0  0.61578  0.80956  0.10141  1.0000
  H   H979      1.0  0.59163  0.62066  0.21308  1.0000
  C   C993      1.0  0.58646  0.83208  0.23236  1.0000
  H   H980      1.0  0.50150  0.89316  0.03706  1.0000
  C   C994      1.0  0.49588  0.76588  0.02663  1.0000
  H   H981      1.0  0.57342  0.70227  0.19410  1.0000
  C   C995      1.0  0.55371  0.51177  0.00168  1.0000
  H   H982      1.0  0.54450  0.57838  0.99602  1.0000
  H   H983      1.0  0.50119  0.53244  0.19635  1.0000
  C   C996      1.0  0.63614  0.97183  0.01922  1.0000
  H   H984      1.0  0.54614  0.73060  0.01857  1.0000
  H   H985      1.0  0.52369  0.63411  0.11940  1.0000
  C   C997      1.0  0.48376  0.54615  0.12821  1.0000
  N   N82       1.0  0.49324  0.56894  0.11939  1.0000
  C   C998      1.0  0.48659  0.73883  0.02668  1.0000
  S   S338      1.0  0.49267  0.83288  0.02973  1.0000
  H   H986      1.0  0.53790  0.51162  0.02044  1.0000
  H   H987      1.0  0.62778  0.74753  0.19681  1.0000
  C   C999      1.0  0.51383  0.61514  0.11575  1.0000
  H   H988      1.0  0.48318  0.48684  0.19031  1.0000
  H   H989      1.0  0.49843  0.54807  0.13605  1.0000
  H   H990      1.0  0.62239  0.76499  0.18267  1.0000
  C   C1000     1.0  0.47930  0.52200  0.19695  1.0000
  C   C1001     1.0  0.49929  0.58783  0.09829  1.0000
  C   C1002     1.0  0.96700  0.62783  0.01111  1.0000
  C   C1003     1.0  0.50435  0.59306  0.12394  1.0000
  C   C1004     1.0  0.50470  0.72612  0.02357  1.0000
  N   N83       1.0  0.64532  0.63072  0.06991  1.0000
  C   C1005     1.0  0.64918  0.63074  0.05723  1.0000
  C   C1006     1.0  0.63390  0.60781  0.07684  1.0000
  C   C1007     1.0  0.64174  0.60740  0.05119  1.0000
  C   C1008     1.0  0.62605  0.58412  0.07109  1.0000
  C   C1009     1.0  0.63004  0.58398  0.05818  1.0000
  C   C1010     1.0  0.65222  0.65557  0.07586  1.0000
  H   H991      1.0  0.65751  0.64890  0.05167  1.0000
  H   H992      1.0  0.63015  0.60775  0.08685  1.0000
  H   H993      1.0  0.64421  0.60742  0.04108  1.0000
  H   H994      1.0  0.61636  0.56607  0.07657  1.0000
  H   H995      1.0  0.62343  0.56582  0.05351  1.0000
  H   H996      1.0  0.63693  0.66503  0.07321  1.0000
  H   H997      1.0  0.65170  0.65293  0.08627  1.0000
  H   H998      1.0  0.67305  0.66864  0.07291  1.0000
  H   H999      1.0  0.53094  0.79259  0.09418  1.0000
  H   H1000     1.0  0.52042  0.78589  0.11698  1.0000
  C   C1011     1.0  0.53931  0.54590  0.00925  1.0000
  C   C1012     1.0  0.54733  0.79379  0.10073  1.0000
  H   H1001     1.0  0.57862  0.82460  0.08005  1.0000
  H   H1002     1.0  0.55675  0.49325  0.00338  1.0000
  C   C1013     1.0  0.55285  0.76222  0.19955  1.0000
  H   H1003     1.0  0.50684  0.59520  0.13395  1.0000
  H   H1004     1.0  0.60024  0.80480  0.08040  1.0000
  N   N84       1.0  0.57375  0.80011  0.09646  1.0000
  C   C1014     1.0  0.56981  0.78213  0.01766  1.0000
  N   N85       1.0  0.58546  0.96990  0.99594  1.0000
  H   H1005     1.0  0.48202  0.77607  0.02902  1.0000
  H   H1006     1.0  0.55823  0.79165  0.13217  1.0000
  H   H1007     1.0  0.49145  0.57204  0.19844  1.0000
  C   C1015     1.0  0.58065  0.61342  0.22187  1.0000
  H   H1008     1.0  0.64575  0.93466  0.99086  1.0000
  H   H1009     1.0  0.53027  0.80087  0.02357  1.0000
  H   H1010     1.0  0.63379  0.98238  0.02717  1.0000
  H   H1011     1.0  0.60607  0.80367  0.12430  1.0000
  H   H1012     1.0  0.57694  0.80049  0.02262  1.0000
  C   C1016     1.0  0.59472  0.80351  0.10476  1.0000
  H   H1013     1.0  0.54731  0.77924  0.20103  1.0000
  H   H1014     1.0  0.61368  0.73058  0.18290  1.0000
  C   C1017     1.0  0.58939  0.80008  0.11770  1.0000
  C   C1018     1.0  0.57869  0.97178  0.00815  1.0000
  C   C1019     1.0  0.52332  0.77986  0.02358  1.0000
  H   H1015     1.0  0.49798  0.70505  0.02390  1.0000
  C   C1020     1.0  0.53203  0.74072  0.02058  1.0000
  H   H1016     1.0  0.48794  0.69392  0.17473  1.0000
  H   H1017     1.0  0.60087  0.82189  0.23141  1.0000
  C   C1021     1.0  0.49021  0.56616  0.10674  1.0000
  H   H1018     1.0  0.94577  0.61585  0.01293  1.0000
  C   C1022     1.0  0.59138  0.62478  0.23313  1.0000
  H   H1019     1.0  0.57050  0.95447  0.01434  1.0000
  H   H1020     1.0  0.61910  0.61053  0.98911  1.0000
  H   H1021     1.0  0.52411  0.56587  0.23387  1.0000
  C   C1023     1.0  0.54280  0.58247  0.23362  1.0000
  H   H1022     1.0  0.55993  0.93837  0.98609  1.0000
  C   C1024     1.0  0.97710  0.63305  0.99880  1.0000
  C   C1025     1.0  0.55748  0.54879  0.98821  1.0000
  C   C1026     1.0  0.54647  0.55939  0.99760  1.0000
  C   C1027     1.0  0.57997  0.94435  0.99087  1.0000
  H   H1023     1.0  0.48110  0.54715  0.10303  1.0000
  H   H1024     1.0  0.48570  0.83363  0.05654  1.0000
  C   C1028     1.0  0.55011  0.85912  0.23489  1.0000
  H   H1025     1.0  0.48249  0.52809  0.12364  1.0000
  H   H1026     1.0  0.97546  0.57081  0.02125  1.0000
  H   H1027     1.0  0.58437  0.93826  0.27955  1.0000
  C   C1029     1.0  0.75929  0.89540  0.43989  1.0000
  S   S339      1.0  0.73807  0.73708  0.47410  1.0000
  Fe  Fe167     1.0  0.73529  0.94593  0.37541  1.0000
  S   S340      1.0  0.77950  0.95827  0.36873  1.0000
  S   S341      1.0  0.69438  0.92563  0.36553  1.0000
  Fe  Fe168     1.0  0.75302  0.95455  0.40345  1.0000
  H   H1028     1.0  0.79669  0.91989  0.41363  1.0000
  H   H1029     1.0  0.82431  0.95118  0.42846  1.0000
  Fe  Fe169     1.0  0.78574  0.93441  0.38564  1.0000
  S   S342      1.0  0.80708  0.90468  0.38785  1.0000
  S   S343      1.0  0.74176  0.92030  0.39143  1.0000
  H   H1030     1.0  0.56691  0.75177  0.27526  1.0000
  S   S344      1.0  0.93858  0.71043  0.38873  1.0000
  H   H1031     1.0  0.49045  0.85759  0.26640  1.0000
  Fe  Fe170     1.0  0.76463  0.72086  0.40065  1.0000
  S   S345      1.0  0.79135  0.75800  0.39067  1.0000
  S   S346      1.0  0.77411  0.71186  0.42098  1.0000
  Fe  Fe171     1.0  0.73521  0.69930  0.37603  1.0000
  S   S347      1.0  0.76105  0.73461  0.36460  1.0000
  S   S348      1.0  0.69771  0.66684  0.36891  1.0000
  Fe  Fe172     1.0  0.79710  0.73233  0.37601  1.0000
  S   S349      1.0  0.83979  0.74413  0.36697  1.0000
  Fe  Fe173     1.0  0.75334  0.75707  0.38028  1.0000
  S   S350      1.0  0.73820  0.79004  0.37428  1.0000
  S   S351      1.0  0.77197  0.69494  0.38629  1.0000
  S   S352      1.0  0.72588  0.72198  0.39139  1.0000
  Fe  Fe174     1.0  0.57938  0.81356  0.29875  1.0000
  S   S353      1.0  0.60642  0.84990  0.28832  1.0000
  S   S354      1.0  0.59692  0.78109  0.30109  1.0000
  Fe  Fe175     1.0  0.53680  0.83822  0.30490  1.0000
  S   S355      1.0  0.56169  0.87660  0.29548  1.0000
  H   H1032     1.0  0.60000  0.90533  0.24202  1.0000
  Fe  Fe176     1.0  0.56754  0.85247  0.27996  1.0000
  S   S356      1.0  0.55711  0.86434  0.26025  1.0000
  Fe  Fe177     1.0  0.59852  0.87046  0.30488  1.0000
  S   S357      1.0  0.63774  0.90117  0.31176  1.0000
  S   S358      1.0  0.54114  0.81437  0.28907  1.0000
  S   S359      1.0  0.57302  0.83383  0.31557  1.0000
  Fe  Fe178     1.0  0.57715  0.61764  0.27864  1.0000
  S   S360      1.0  0.53276  0.60372  0.28419  1.0000
  S   S361      1.0  0.59397  0.62847  0.25865  1.0000
  Fe  Fe179     1.0  0.59686  0.62363  0.30654  1.0000
  S   S362      1.0  0.55311  0.60890  0.31394  1.0000
  S   S363      1.0  0.63785  0.64609  0.31571  1.0000
  Fe  Fe180     1.0  0.54425  0.57886  0.29913  1.0000
  S   S364      1.0  0.52214  0.53464  0.29984  1.0000
  Fe  Fe181     1.0  0.54511  0.63462  0.29829  1.0000
  S   S365      1.0  0.52240  0.66306  0.29989  1.0000
  S   S366      1.0  0.58895  0.59179  0.29291  1.0000
  S   S367      1.0  0.58849  0.65030  0.29155  1.0000
  C   C1030     1.0  0.57416  0.73612  0.27299  1.0000
  C   C1031     1.0  0.57509  0.74850  0.30253  1.0000
  C   C1032     1.0  0.58678  0.72902  0.30451  1.0000
  C   C1033     1.0  0.57054  0.70275  0.30424  1.0000
  C   C1034     1.0  0.54252  0.69572  0.30186  1.0000
  C   C1035     1.0  0.53058  0.71517  0.30038  1.0000
  C   C1036     1.0  0.54682  0.74153  0.30074  1.0000
  H   H1033     1.0  0.60859  0.73429  0.30597  1.0000
  H   H1034     1.0  0.57979  0.68798  0.30584  1.0000
  H   H1035     1.0  0.50883  0.70983  0.29871  1.0000
  H   H1036     1.0  0.53760  0.75643  0.29930  1.0000
  C   C1037     1.0  0.65464  0.65033  0.33053  1.0000
  C   C1038     1.0  0.68048  0.66986  0.33133  1.0000
  C   C1039     1.0  0.69415  0.67496  0.34290  1.0000
  C   C1040     1.0  0.68224  0.66041  0.35387  1.0000
  C   C1041     1.0  0.65666  0.64052  0.35303  1.0000
  C   C1042     1.0  0.64287  0.63557  0.34147  1.0000
  H   H1037     1.0  0.68996  0.68126  0.32294  1.0000
  H   H1038     1.0  0.71394  0.69007  0.34330  1.0000
  H   H1039     1.0  0.64728  0.62896  0.36141  1.0000
  H   H1040     1.0  0.62315  0.62037  0.34105  1.0000
  C   C1043     1.0  0.91189  0.72134  0.38296  1.0000
  C   C1044     1.0  0.88525  0.70945  0.38798  1.0000
  C   C1045     1.0  0.86314  0.71659  0.38337  1.0000
  C   C1046     1.0  0.86732  0.73542  0.37350  1.0000
  C   C1047     1.0  0.89399  0.74734  0.36845  1.0000
  C   C1048     1.0  0.91622  0.74051  0.37322  1.0000
  H   H1041     1.0  0.88161  0.69453  0.39547  1.0000
  H   H1042     1.0  0.84276  0.70719  0.38732  1.0000
  H   H1043     1.0  0.89746  0.76196  0.36083  1.0000
  H   H1044     1.0  0.93661  0.74991  0.36929  1.0000
  C   C1049     1.0  0.78644  0.87273  0.38488  1.0000
  C   C1050     1.0  0.79303  0.85172  0.39028  1.0000
  C   C1051     1.0  0.77812  0.82619  0.38725  1.0000
  C   C1052     1.0  0.75645  0.82157  0.37885  1.0000
  C   C1053     1.0  0.74945  0.84254  0.37370  1.0000
  C   C1054     1.0  0.76433  0.86806  0.37674  1.0000
  H   H1045     1.0  0.80995  0.85521  0.39669  1.0000
  H   H1046     1.0  0.78347  0.81013  0.39138  1.0000
  H   H1047     1.0  0.73277  0.83906  0.36717  1.0000
  H   H1048     1.0  0.75917  0.88418  0.37252  1.0000
  C   C1055     1.0  0.67890  0.92032  0.35044  1.0000
  C   C1056     1.0  0.65114  0.90453  0.34976  1.0000
  C   C1057     1.0  0.63819  0.89848  0.33808  1.0000
  C   C1058     1.0  0.65275  0.90841  0.32685  1.0000
  C   C1059     1.0  0.68039  0.92452  0.32753  1.0000
  C   C1060     1.0  0.69345  0.93029  0.33922  1.0000
  H   H1049     1.0  0.63955  0.89684  0.35835  1.0000
  H   H1050     1.0  0.61689  0.88630  0.33779  1.0000
  H   H1051     1.0  0.69191  0.93252  0.31896  1.0000
  H   H1052     1.0  0.71473  0.94253  0.33953  1.0000
  H   H1053     1.0  0.63299  0.72237  0.27038  1.0000
  C   C1061     1.0  0.55330  0.59413  0.24487  1.0000
  C   C1062     1.0  0.57803  0.61498  0.24469  1.0000
  N   N86       1.0  0.76734  0.89801  0.42755  1.0000
  H   H1054     1.0  0.70440  0.87474  0.36650  1.0000
  H   H1055     1.0  0.54269  0.58652  0.25370  1.0000
  C   C1063     1.0  0.61128  0.71966  0.27031  1.0000
  H   H1056     1.0  0.96142  0.69294  0.41077  1.0000
  C   C1064     1.0  0.58061  0.83871  0.24437  1.0000
  C   C1065     1.0  0.56265  0.85259  0.24566  1.0000
  H   H1057     1.0  0.59056  0.83371  0.25255  1.0000
  C   C1066     1.0  0.75152  0.73510  0.45905  1.0000
  C   C1067     1.0  0.77485  0.72810  0.45769  1.0000
  C   C1068     1.0  0.78236  0.72245  0.44580  1.0000
  C   C1069     1.0  0.76705  0.72431  0.43510  1.0000
  C   C1070     1.0  0.74468  0.73284  0.43633  1.0000
  C   C1071     1.0  0.73682  0.73797  0.44829  1.0000
  H   H1058     1.0  0.78645  0.72594  0.46586  1.0000
  H   H1059     1.0  0.79968  0.71585  0.44493  1.0000
  H   H1060     1.0  0.73261  0.73420  0.42821  1.0000
  H   H1061     1.0  0.71875  0.74341  0.44924  1.0000
  C   C1072     1.0  0.62095  0.92966  0.28421  1.0000
  H   H1062     1.0  0.81851  0.78438  0.35790  1.0000
  H   H1063     1.0  0.61441  0.82192  0.33915  1.0000
  H   H1064     1.0  0.51617  0.51532  0.27506  1.0000
  C   C1073     1.0  0.88352  0.78272  0.47947  1.0000
  C   C1074     1.0  0.96183  0.68810  0.42074  1.0000
  C   C1075     1.0  0.54459  0.66628  0.26566  1.0000
  C   C1076     1.0  0.80642  0.93523  0.43182  1.0000
  C   C1077     1.0  0.77493  0.91239  0.44855  1.0000
  H   H1065     1.0  0.74032  0.88052  0.44303  1.0000
  H   H1066     1.0  0.76817  0.91064  0.45829  1.0000
  H   H1067     1.0  0.81000  0.94660  0.45098  1.0000
  N   N87       1.0  0.96196  0.68059  0.35765  1.0000
  C   C1078     1.0  0.67919  0.86121  0.33145  1.0000
  H   H1068     1.0  0.58376  0.92511  0.25770  1.0000
  H   H1069     1.0  0.49570  0.87107  0.29569  1.0000
  C   C1079     1.0  0.64639  0.83907  0.35235  1.0000
  C   C1080     1.0  0.55554  0.71157  0.27073  1.0000
  H   H1070     1.0  0.73097  0.65224  0.48150  1.0000
  C   C1081     1.0  0.73857  0.66035  0.44294  1.0000
  H   H1071     1.0  0.94536  0.64204  0.36547  1.0000
  H   H1072     1.0  0.56283  0.54591  0.27803  1.0000
  C   C1082     1.0  0.74986  0.88079  0.41855  1.0000
  H   H1073     1.0  0.92535  0.69670  0.42485  1.0000
  H   H1074     1.0  0.53504  0.66730  0.25642  1.0000
  C   C1083     1.0  0.55671  0.53946  0.26870  1.0000
  H   H1075     1.0  0.74168  0.95417  0.46893  1.0000
  N   N88       1.0  0.65879  0.71123  0.35263  1.0000
  C   C1084     1.0  0.63641  0.69106  0.35709  1.0000
  C   C1085     1.0  0.66043  0.71984  0.34028  1.0000
  C   C1086     1.0  0.61500  0.67890  0.34909  1.0000
  C   C1087     1.0  0.63946  0.70801  0.33201  1.0000
  C   C1088     1.0  0.61665  0.68738  0.33646  1.0000
  C   C1089     1.0  0.68146  0.72360  0.36097  1.0000
  H   H1076     1.0  0.63550  0.68361  0.36677  1.0000
  H   H1077     1.0  0.67843  0.73543  0.33670  1.0000
  H   H1078     1.0  0.59776  0.66233  0.35254  1.0000
  H   H1079     1.0  0.64121  0.71414  0.32212  1.0000
  H   H1080     1.0  0.60075  0.67743  0.33003  1.0000
  H   H1081     1.0  0.68339  0.74416  0.36212  1.0000
  H   H1082     1.0  0.67871  0.71340  0.37043  1.0000
  H   H1083     1.0  0.70100  0.72289  0.35706  1.0000
  N   N89       1.0  0.72744  0.66965  0.46359  1.0000
  C   C1090     1.0  0.74373  0.66188  0.45581  1.0000
  H   H1084     1.0  0.96489  0.67293  0.45633  1.0000
  C   C1091     1.0  0.61994  0.90769  0.24660  1.0000
  C   C1092     1.0  0.69975  0.67422  0.44611  1.0000
  H   H1085     1.0  0.60249  0.57955  0.26810  1.0000
  S   S368      1.0  0.79773  0.96734  0.39857  1.0000
  C   C1093     1.0  0.70560  0.67570  0.45891  1.0000
  C   C1094     1.0  0.75024  0.96278  0.45985  1.0000
  C   C1095     1.0  0.56676  0.53957  0.24700  1.0000
  C   C1096     1.0  0.52208  0.51332  0.25520  1.0000
  C   C1097     1.0  0.94421  0.69425  0.35715  1.0000
  S   S369      1.0  0.49392  0.82787  0.31337  1.0000
  H   H1086     1.0  0.62117  0.93501  0.29388  1.0000
  H   H1087     1.0  0.76143  0.65771  0.45946  1.0000
  C   C1098     1.0  0.54045  0.52206  0.24506  1.0000
  H   H1088     1.0  0.68308  0.67998  0.44235  1.0000
  H   H1089     1.0  0.52840  0.66004  0.27313  1.0000
  H   H1090     1.0  0.68384  0.84206  0.37160  1.0000
  H   H1091     1.0  0.65569  0.90563  0.26418  1.0000
  H   H1092     1.0  0.50337  0.84254  0.27894  1.0000
  H   H1093     1.0  0.76119  0.88103  0.40968  1.0000
  C   C1099     1.0  0.95971  0.66121  0.36798  1.0000
  H   H1094     1.0  0.89738  0.77149  0.47787  1.0000
  C   C1100     1.0  0.63561  0.83400  0.34034  1.0000
  H   H1095     1.0  0.73219  0.88730  0.41625  1.0000
  H   H1096     1.0  0.59944  0.67986  0.26561  1.0000
  H   H1097     1.0  0.67021  0.86851  0.37188  1.0000
  H   H1098     1.0  0.71309  0.66667  0.42803  1.0000
  C   C1101     1.0  0.75033  0.96113  0.43696  1.0000
  C   C1102     1.0  0.73959  0.95019  0.44885  1.0000
  H   H1099     1.0  0.53374  0.70832  0.27134  1.0000
  C   C1103     1.0  0.94244  0.68441  0.44154  1.0000
  C   C1104     1.0  0.60017  0.92410  0.26382  1.0000
  N   N90       1.0  0.56464  0.69165  0.26820  1.0000
  H   H1100     1.0  0.55418  0.65101  0.26553  1.0000
  C   C1105     1.0  0.53025  0.52200  0.26710  1.0000
  H   H1101     1.0  0.69186  0.87077  0.32334  1.0000
  H   H1102     1.0  0.63328  0.83071  0.36049  1.0000
  C   C1106     1.0  0.68336  0.86016  0.36657  1.0000
  H   H1103     1.0  0.71002  0.87912  0.34476  1.0000
  C   C1107     1.0  0.68930  0.86588  0.34359  1.0000
  C   C1108     1.0  0.79060  0.91756  0.42346  1.0000
  H   H1104     1.0  0.72075  0.68052  0.48200  1.0000
  H   H1105     1.0  0.64377  0.84213  0.32047  1.0000
  H   H1106     1.0  0.61661  0.75868  0.27537  1.0000
  C   C1109     1.0  0.60215  0.74003  0.27301  1.0000
  H   H1107     1.0  0.92849  0.69088  0.36436  1.0000
  N   N91       1.0  0.57444  0.54833  0.25867  1.0000
  C   C1110     1.0  0.59214  0.69555  0.26773  1.0000
  C   C1111     1.0  0.71648  0.66664  0.43808  1.0000
  S   S370      1.0  0.74310  0.97952  0.38805  1.0000
  H   H1108     1.0  0.75540  0.68457  0.47814  1.0000
  H   H1109     1.0  0.69325  0.68275  0.46499  1.0000
  H   H1110     1.0  0.74213  0.86042  0.42250  1.0000
  S   S371      1.0  0.73661  0.94388  0.42351  1.0000
  N   N92       1.0  0.83039  0.82049  0.36680  1.0000
  C   C1112     1.0  0.82968  0.84525  0.36616  1.0000
  C   C1113     1.0  0.84796  0.81381  0.37477  1.0000
  C   C1114     1.0  0.84742  0.86429  0.37336  1.0000
  C   C1115     1.0  0.86590  0.83232  0.38214  1.0000
  C   C1116     1.0  0.86559  0.85772  0.38141  1.0000
  C   C1117     1.0  0.81095  0.80070  0.35951  1.0000
  H   H1111     1.0  0.81482  0.85025  0.36032  1.0000
  H   H1112     1.0  0.84807  0.79402  0.37554  1.0000
  H   H1113     1.0  0.84631  0.88376  0.37304  1.0000
  H   H1114     1.0  0.87972  0.82685  0.38846  1.0000
  H   H1115     1.0  0.87909  0.87221  0.38720  1.0000
  H   H1116     1.0  0.79103  0.79282  0.36465  1.0000
  H   H1117     1.0  0.80762  0.80894  0.35016  1.0000
  H   H1118     1.0  0.61009  0.57928  0.25194  1.0000
  C   C1118     1.0  0.79846  0.93260  0.44445  1.0000
  H   H1119     1.0  0.63639  0.92281  0.24110  1.0000
  C   C1119     1.0  0.65214  0.84522  0.32983  1.0000
  N   N93       1.0  0.67288  0.85490  0.35385  1.0000
  H   H1120     1.0  0.72294  0.93182  0.44957  1.0000
  H   H1121     1.0  0.96867  0.73247  0.33069  1.0000
  C   C1120     1.0  0.73387  0.67170  0.47697  1.0000
  N   N94       1.0  0.61984  0.91485  0.25964  1.0000
  H   H1122     1.0  0.92706  0.68645  0.44787  1.0000
  C   C1121     1.0  0.94636  0.71313  0.34748  1.0000
  C   C1122     1.0  0.48914  0.83844  0.27090  1.0000
  H   H1123     1.0  0.93262  0.72432  0.34732  1.0000
  C   C1123     1.0  0.48637  0.51593  0.30021  1.0000
  H   H1124     1.0  0.61625  0.55551  0.26297  1.0000
  H   H1125     1.0  0.62321  0.88872  0.24624  1.0000
  C   C1124     1.0  0.60222  0.56641  0.26051  1.0000
  C   C1125     1.0  0.64014  0.91301  0.26746  1.0000
  H   H1126     1.0  0.65685  0.91854  0.28613  1.0000
  C   C1126     1.0  0.94153  0.69024  0.42869  1.0000
  C   C1127     1.0  0.60036  0.93153  0.27616  1.0000
  H   H1127     1.0  0.75233  0.65555  0.43665  1.0000
  C   C1128     1.0  0.96384  0.67663  0.44627  1.0000
  H   H1128     1.0  0.49650  0.82760  0.26407  1.0000
  C   C1129     1.0  0.64100  0.92037  0.27985  1.0000
  H   H1129     1.0  0.50153  0.49986  0.25386  1.0000
  H   H1130     1.0  0.53634  0.87001  0.23575  1.0000
  C   C1130     1.0  0.96651  0.71763  0.33815  1.0000
  H   H1131     1.0  0.58074  0.54667  0.23902  1.0000
  H   H1132     1.0  0.53430  0.51569  0.23572  1.0000
  H   H1133     1.0  0.87695  0.78885  0.47027  1.0000
  H   H1134     1.0  0.95219  0.66692  0.37674  1.0000
  H   H1135     1.0  0.86529  0.76917  0.48466  1.0000
  H   H1136     1.0  0.93723  0.80474  0.48370  1.0000
  Fe  Fe182     1.0  0.76606  0.93434  0.63703  1.0000
  S   S372      1.0  0.73222  0.94786  0.62946  1.0000
  S   S373      1.0  0.75595  0.89452  0.64726  1.0000
  C   C1131     1.0  0.65672  0.63469  0.64617  1.0000
  C   C1132     1.0  0.75468  0.96279  0.57812  1.0000
  S   S374      1.0  0.74267  0.94636  0.59287  1.0000
  H   H1137     1.0  0.97159  0.74063  0.53915  1.0000
  S   S375      1.0  0.79145  0.94539  0.61940  1.0000
  S   S376      1.0  0.94968  0.76397  0.63797  1.0000
  Fe  Fe183     1.0  0.79452  0.71167  0.62788  1.0000
  S   S377      1.0  0.75162  0.68339  0.62637  1.0000
  S   S378      1.0  0.82868  0.69532  0.62600  1.0000
  Fe  Fe184     1.0  0.77554  0.75805  0.63101  1.0000
  S   S379      1.0  0.73136  0.73280  0.63015  1.0000
  S   S380      1.0  0.79198  0.80235  0.62831  1.0000
  Fe  Fe185     1.0  0.74234  0.70319  0.64274  1.0000
  S   S381      1.0  0.71296  0.68096  0.65887  1.0000
  Fe  Fe186     1.0  0.74454  0.71495  0.61394  1.0000
  S   S382      1.0  0.71637  0.70808  0.59717  1.0000
  S   S383      1.0  0.78595  0.73020  0.64493  1.0000
  S   S384      1.0  0.78798  0.74132  0.61413  1.0000
  S   S385      1.0  0.95703  0.60774  0.70522  1.0000
  C   C1133     1.0  0.95917  0.60785  0.67894  1.0000
  Fe  Fe187     1.0  0.93017  0.56788  0.71437  1.0000
  S   S386      1.0  0.89245  0.54098  0.70561  1.0000
  C   C1134     1.0  0.95344  0.74558  0.54194  1.0000
  Fe  Fe188     1.0  0.76257  0.74066  0.49212  1.0000
  H   H1138     1.0  0.66516  0.57679  0.65349  1.0000
  Fe  Fe189     1.0  0.90416  0.50799  0.71484  1.0000
  Fe  Fe190     1.0  0.87165  0.54073  0.72411  1.0000
  S   S387      1.0  0.94353  0.53496  0.72236  1.0000
  S   S388      1.0  0.80370  0.95496  0.49333  1.0000
  S   S389      1.0  0.62374  0.53081  0.71307  1.0000
  C   C1135     1.0  0.97842  0.66231  0.67578  1.0000
  Fe  Fe191     1.0  0.67937  0.49863  0.71815  1.0000
  S   S390      1.0  0.68778  0.54082  0.72049  1.0000
  C   C1136     1.0  0.75179  0.52465  0.72586  1.0000
  C   C1137     1.0  0.92161  0.84847  0.50065  1.0000
  Fe  Fe192     1.0  0.66458  0.54116  0.70269  1.0000
  S   S391      1.0  0.68864  0.56753  0.68589  1.0000
  C   C1138     1.0  0.82562  0.93028  0.65621  1.0000
  S   S392      1.0  0.65797  0.49896  0.70000  1.0000
  C   C1139     1.0  0.96152  0.62236  0.68956  1.0000
  H   H1139     1.0  0.69447  0.59062  0.63418  1.0000
  H   H1140     1.0  0.84612  0.96561  0.64526  1.0000
  S   S393      1.0  0.97700  0.72901  0.50829  1.0000
  Fe  Fe193     1.0  0.77120  0.93341  0.50757  1.0000
  S   S394      1.0  0.74867  0.89081  0.50669  1.0000
  S   S395      1.0  0.74657  0.96006  0.50518  1.0000
  Fe  Fe194     1.0  0.75956  0.73203  0.52122  1.0000
  S   S396      1.0  0.80472  0.75180  0.52323  1.0000
  S   S397      1.0  0.72842  0.71715  0.53728  1.0000
  S   S398      1.0  0.83431  0.55253  0.72649  1.0000
  C   C1140     1.0  0.66688  0.59487  0.64828  1.0000
  Fe  Fe195     1.0  0.80853  0.73018  0.50649  1.0000
  S   S399      1.0  0.84154  0.71301  0.50407  1.0000
  Fe  Fe196     1.0  0.80007  0.78103  0.50868  1.0000
  S   S400      1.0  0.82467  0.82295  0.51082  1.0000
  S   S401      1.0  0.76351  0.70762  0.50541  1.0000
  S   S402      1.0  0.75437  0.76309  0.50782  1.0000
  H   H1141     1.0  0.97290  0.66118  0.69592  1.0000
  C   C1141     1.0  0.87423  0.73627  0.50531  1.0000
  C   C1142     1.0  0.87815  0.75866  0.51187  1.0000
  C   C1143     1.0  0.90476  0.77588  0.51371  1.0000
  C   C1144     1.0  0.92739  0.77113  0.50867  1.0000
  C   C1145     1.0  0.92319  0.74981  0.50134  1.0000
  C   C1146     1.0  0.89677  0.73205  0.49994  1.0000
  H   H1142     1.0  0.86084  0.76229  0.51590  1.0000
  H   H1143     1.0  0.90782  0.79272  0.51914  1.0000
  H   H1144     1.0  0.86080  0.71998  0.53439  1.0000
  H   H1145     1.0  0.82989  0.87141  0.65052  1.0000
  C   C1147     1.0  0.77158  0.87376  0.50597  1.0000
  C   C1148     1.0  0.79815  0.88415  0.51057  1.0000
  C   C1149     1.0  0.81500  0.86882  0.51153  1.0000
  C   C1150     1.0  0.80534  0.84326  0.50777  1.0000
  C   C1151     1.0  0.77948  0.83357  0.50243  1.0000
  C   C1152     1.0  0.76249  0.84869  0.50164  1.0000
  H   H1146     1.0  0.80533  0.90363  0.51382  1.0000
  C   C1153     1.0  0.68345  0.60272  0.63750  1.0000
  H   H1147     1.0  0.77241  0.81436  0.49898  1.0000
  N   N95       1.0  0.92792  0.72704  0.53748  1.0000
  C   C1154     1.0  0.77903  0.54040  0.72749  1.0000
  C   C1155     1.0  0.97723  0.64778  0.66527  1.0000
  C   C1156     1.0  0.96712  0.62048  0.66694  1.0000
  H   H1148     1.0  0.71319  0.97533  0.66452  1.0000
  H   H1149     1.0  0.77902  0.51943  0.69240  1.0000
  Fe  Fe197     1.0  0.64715  0.52726  0.73077  1.0000
  S   S403      1.0  0.87940  0.50537  0.73235  1.0000
  C   C1157     1.0  0.84299  0.94501  0.64652  1.0000
  Fe  Fe198     1.0  0.77283  0.98057  0.52097  1.0000
  S   S404      1.0  0.96071  0.79208  0.51145  1.0000
  C   C1158     1.0  0.72251  0.71183  0.58063  1.0000
  C   C1159     1.0  0.69945  0.70432  0.57301  1.0000
  C   C1160     1.0  0.70210  0.70628  0.55991  1.0000
  C   C1161     1.0  0.72790  0.71594  0.55401  1.0000
  C   C1162     1.0  0.75136  0.72398  0.56152  1.0000
  C   C1163     1.0  0.74866  0.72186  0.57485  1.0000
  H   H1150     1.0  0.67920  0.69659  0.57728  1.0000
  H   H1151     1.0  0.68386  0.69999  0.55429  1.0000
  H   H1152     1.0  0.77145  0.73134  0.55711  1.0000
  H   H1153     1.0  0.76670  0.72767  0.58062  1.0000
  C   C1164     1.0  0.70835  0.65026  0.66697  1.0000
  C   C1165     1.0  0.68919  0.64172  0.67699  1.0000
  C   C1166     1.0  0.68334  0.61683  0.68311  1.0000
  C   C1167     1.0  0.69651  0.59999  0.67926  1.0000
  C   C1168     1.0  0.71603  0.60871  0.66938  1.0000
  C   C1169     1.0  0.72196  0.63363  0.66329  1.0000
  H   H1154     1.0  0.67853  0.65435  0.67997  1.0000
  H   H1155     1.0  0.66832  0.61057  0.69068  1.0000
  H   H1156     1.0  0.72641  0.59596  0.66627  1.0000
  H   H1157     1.0  0.73670  0.63978  0.65561  1.0000
  C   C1170     1.0  0.91670  0.74687  0.63256  1.0000
  C   C1171     1.0  0.91119  0.72306  0.62712  1.0000
  C   C1172     1.0  0.88414  0.70807  0.62444  1.0000
  C   C1173     1.0  0.86244  0.71676  0.62720  1.0000
  C   C1174     1.0  0.86801  0.74124  0.63198  1.0000
  C   C1175     1.0  0.89513  0.75625  0.63467  1.0000
  H   H1158     1.0  0.92756  0.71576  0.62533  1.0000
  H   H1159     1.0  0.87994  0.68927  0.62061  1.0000
  H   H1160     1.0  0.85135  0.74816  0.63405  1.0000
  H   H1161     1.0  0.89931  0.77478  0.63878  1.0000
  H   H1162     1.0  0.78703  0.60811  0.70330  1.0000
  C   C1176     1.0  0.76546  0.86882  0.64171  1.0000
  C   C1177     1.0  0.78294  0.87253  0.63130  1.0000
  C   C1178     1.0  0.79091  0.85195  0.62743  1.0000
  C   C1179     1.0  0.78096  0.82725  0.63370  1.0000
  C   C1180     1.0  0.76322  0.82341  0.64402  1.0000
  C   C1181     1.0  0.75572  0.84419  0.64806  1.0000
  H   H1163     1.0  0.79068  0.89135  0.62635  1.0000
  H   H1164     1.0  0.80475  0.85512  0.61948  1.0000
  H   H1165     1.0  0.75565  0.80458  0.64901  1.0000
  H   H1166     1.0  0.74230  0.84118  0.65617  1.0000
  C   C1182     1.0  0.80054  0.53095  0.72551  1.0000
  C   C1183     1.0  0.75602  0.94810  0.56790  1.0000
  H   H1167     1.0  0.90435  0.75064  0.54199  1.0000
  C   C1184     1.0  0.65337  0.61090  0.65264  1.0000
  H   H1168     1.0  0.75310  0.92768  0.56951  1.0000
  C   C1185     1.0  0.93748  0.83606  0.49491  1.0000
  N   N96       1.0  0.85550  0.93356  0.63857  1.0000
  H   H1169     1.0  0.90364  0.66910  0.52421  1.0000
  H   H1170     1.0  0.72652  0.53088  0.68177  1.0000
  H   H1171     1.0  0.85739  0.71126  0.65523  1.0000
  N   N97       1.0  0.69523  0.95291  0.54730  1.0000
  H   H1172     1.0  0.82435  0.55042  0.69769  1.0000
  H   H1173     1.0  0.89379  0.71512  0.49458  1.0000
  C   C1186     1.0  0.83399  0.89222  0.64963  1.0000
  S   S405      1.0  0.78805  0.97218  0.64593  1.0000
  C   C1187     1.0  0.69165  0.93309  0.55621  1.0000
  C   C1188     1.0  0.82112  0.90374  0.65775  1.0000
  N   N98       1.0  0.76830  0.81186  0.53697  1.0000
  C   C1189     1.0  0.75945  0.83179  0.53298  1.0000
  C   C1190     1.0  0.75050  0.78685  0.53771  1.0000
  C   C1191     1.0  0.73249  0.82679  0.52903  1.0000
  C   C1192     1.0  0.72335  0.78115  0.53391  1.0000
  C   C1193     1.0  0.71442  0.80125  0.52940  1.0000
  C   C1194     1.0  0.79669  0.81728  0.54094  1.0000
  H   H1174     1.0  0.77344  0.85168  0.53248  1.0000
  H   H1175     1.0  0.75736  0.77107  0.54107  1.0000
  H   H1176     1.0  0.72596  0.84263  0.52537  1.0000
  H   H1177     1.0  0.70952  0.76116  0.53425  1.0000
  H   H1178     1.0  0.69361  0.79703  0.52613  1.0000
  H   H1179     1.0  0.81040  0.83627  0.53677  1.0000
  H   H1180     1.0  0.79781  0.81736  0.55132  1.0000
  H   H1181     1.0  0.80482  0.80239  0.53760  1.0000
  N   N99       1.0  0.73557  0.80351  0.60775  1.0000
  C   C1195     1.0  0.74545  0.82824  0.60241  1.0000
  C   C1196     1.0  0.71975  0.79829  0.61846  1.0000
  C   C1197     1.0  0.73874  0.84834  0.60754  1.0000
  C   C1198     1.0  0.71267  0.81793  0.62385  1.0000
  C   C1199     1.0  0.72221  0.84308  0.61832  1.0000
  C   C1200     1.0  0.74327  0.78289  0.60232  1.0000
  H   H1182     1.0  0.75894  0.83260  0.59424  1.0000
  H   H1183     1.0  0.71295  0.77900  0.62303  1.0000
  H   H1184     1.0  0.74692  0.86805  0.60343  1.0000
  H   H1185     1.0  0.70070  0.81390  0.63250  1.0000
  H   H1186     1.0  0.71766  0.85868  0.62266  1.0000
  H   H1187     1.0  0.74334  0.78468  0.59190  1.0000
  H   H1188     1.0  0.76402  0.78392  0.60550  1.0000
  H   H1189     1.0  0.72862  0.76328  0.60514  1.0000
  N   N100      1.0  0.89137  0.69753  0.65591  1.0000
  C   C1201     1.0  0.91907  0.70462  0.65755  1.0000
  C   C1202     1.0  0.87740  0.67493  0.65041  1.0000
  C   C1203     1.0  0.93352  0.68896  0.65358  1.0000
  C   C1204     1.0  0.89131  0.65897  0.64620  1.0000
  C   C1205     1.0  0.91956  0.66605  0.64784  1.0000
  C   C1206     1.0  0.87642  0.71365  0.66062  1.0000
  H   H1190     1.0  0.93027  0.72279  0.66168  1.0000
  H   H1191     1.0  0.85552  0.66960  0.64885  1.0000
  H   H1192     1.0  0.95547  0.69466  0.65480  1.0000
  H   H1193     1.0  0.88030  0.64143  0.64154  1.0000
  H   H1194     1.0  0.93075  0.65399  0.64459  1.0000
  H   H1195     1.0  0.78353  0.56019  0.73012  1.0000
  H   H1196     1.0  0.86048  0.67949  0.52509  1.0000
  C   C1207     1.0  0.87252  0.94920  0.62812  1.0000
  N   N101      1.0  0.67288  0.64218  0.63557  1.0000
  C   C1208     1.0  0.68619  0.62656  0.63120  1.0000
  C   C1209     1.0  0.67557  0.66707  0.62892  1.0000
  H   H1197     1.0  0.69928  0.63262  0.62290  1.0000
  H   H1198     1.0  0.69034  0.67162  0.62088  1.0000
  H   H1199     1.0  0.65544  0.66671  0.62520  1.0000
  H   H1200     1.0  0.68307  0.68302  0.63545  1.0000
  H   H1201     1.0  0.64703  0.64752  0.64989  1.0000
  H   H1202     1.0  0.74210  0.57676  0.69769  1.0000
  S   S406      1.0  0.79516  0.95232  0.52411  1.0000
  C   C1210     1.0  0.90353  0.68679  0.52825  1.0000
  H   H1203     1.0  0.94642  0.69957  0.53234  1.0000
  C   C1211     1.0  0.79465  0.50541  0.72206  1.0000
  C   C1212     1.0  0.80648  0.55652  0.69739  1.0000
  C   C1213     1.0  0.90418  0.73256  0.53829  1.0000
  S   S407      1.0  0.90873  0.56867  0.73275  1.0000
  H   H1204     1.0  0.88909  0.73458  0.65955  1.0000
  H   H1205     1.0  0.69204  0.91441  0.55357  1.0000
  C   C1214     1.0  0.87951  0.71530  0.53407  1.0000
  H   H1206     1.0  0.64127  0.60538  0.66126  1.0000
  H   H1207     1.0  0.86017  0.89815  0.63343  1.0000
  H   H1208     1.0  0.83515  0.87652  0.51554  1.0000
  C   C1215     1.0  0.75992  0.95930  0.55555  1.0000
  H   H1209     1.0  0.81510  0.93922  0.66230  1.0000
  N   N102      1.0  0.75799  0.54628  0.69483  1.0000
  C   C1216     1.0  0.78552  0.58881  0.70074  1.0000
  H   H1210     1.0  0.87091  0.70828  0.67067  1.0000
  C   C1217     1.0  0.78076  0.53905  0.69451  1.0000
  C   C1218     1.0  0.76015  0.57094  0.69764  1.0000
  H   H1211     1.0  0.80684  0.89195  0.66493  1.0000
  C   C1219     1.0  0.80876  0.58140  0.70071  1.0000
  Fe  Fe199     1.0  0.75901  0.96078  0.61200  1.0000
  C   C1220     1.0  0.73119  0.52782  0.69177  1.0000
  H   H1212     1.0  0.85897  0.81070  0.49126  1.0000
  H   H1213     1.0  0.88658  0.93985  0.62436  1.0000
  C   C1221     1.0  0.97085  0.64968  0.68782  1.0000
  H   H1214     1.0  0.81118  0.49803  0.72046  1.0000
  H   H1215     1.0  0.73015  0.50738  0.69375  1.0000
  H   H1216     1.0  0.94022  0.74714  0.49656  1.0000
  C   C1222     1.0  0.74576  0.49923  0.72227  1.0000
  H   H1217     1.0  0.95230  0.58689  0.68005  1.0000
  H   H1218     1.0  0.76009  0.94751  0.54778  1.0000
  H   H1219     1.0  0.95949  0.84244  0.49623  1.0000
  S   S408      1.0  0.64041  0.48472  0.72963  1.0000
  C   C1223     1.0  0.92774  0.70425  0.53277  1.0000
  N   N103      1.0  0.89678  0.80546  0.48673  1.0000
  H   H1220     1.0  0.95296  0.74560  0.55235  1.0000
  H   H1221     1.0  0.88539  0.96859  0.63120  1.0000
  C   C1224     1.0  0.85099  0.90746  0.63994  1.0000
  H   H1222     1.0  0.71493  0.53063  0.69763  1.0000
  H   H1223     1.0  0.68879  0.97547  0.68453  1.0000
  S   S409      1.0  0.80789  0.76119  0.49211  1.0000
  C   C1225     1.0  0.87932  0.69248  0.52885  1.0000
  H   H1224     1.0  0.82844  0.59464  0.70354  1.0000
  H   H1225     1.0  0.74211  0.84079  0.49789  1.0000
  H   H1226     1.0  0.85919  0.95230  0.62045  1.0000
  Fe  Fe200     1.0  0.82494  0.97739  0.50955  1.0000
  H   H1227     1.0  0.95643  0.76543  0.53780  1.0000
  C   C1226     1.0  0.68957  0.96133  0.57245  1.0000
  C   C1227     1.0  0.92470  0.81462  0.48783  1.0000
  H   H1228     1.0  0.88067  0.84891  0.50365  1.0000
  H   H1229     1.0  0.93123  0.86490  0.50631  1.0000
  H   H1230     1.0  0.73557  0.53227  0.72739  1.0000
  C   C1228     1.0  0.69939  0.94845  0.53415  1.0000
  C   C1229     1.0  0.76724  0.48953  0.72049  1.0000
  C   C1230     1.0  0.68884  0.93701  0.56891  1.0000
  H   H1231     1.0  0.71762  0.94229  0.53326  1.0000
  C   C1231     1.0  0.89325  0.83942  0.49922  1.0000
  Fe  Fe201     1.0  0.61910  0.48834  0.71155  1.0000
  H   H1232     1.0  0.68106  0.93330  0.53063  1.0000
  C   C1232     1.0  0.69564  0.97677  0.55068  1.0000
  C   C1233     1.0  0.88109  0.81776  0.49218  1.0000
  H   H1233     1.0  0.96610  0.60893  0.65892  1.0000
  H   H1234     1.0  0.68751  0.92174  0.57605  1.0000
  H   H1235     1.0  0.68875  0.96489  0.58233  1.0000
  H   H1236     1.0  0.70354  0.96643  0.52798  1.0000
  C   C1234     1.0  0.69279  0.98133  0.56329  1.0000
  Fe  Fe202     1.0  0.64614  0.54010  0.96760  1.0000
  S   S410      1.0  0.66683  0.48440  0.85230  1.0000
  C   C1235     1.0  0.86411  0.56939  0.90632  1.0000
  Fe  Fe203     1.0  0.65463  0.51850  0.94200  1.0000
  C   C1236     1.0  0.89530  0.58158  0.92310  1.0000
  S   S411      1.0  0.66878  0.52746  0.92139  1.0000
  C   C1237     1.0  0.66223  0.56890  0.86351  1.0000
  Fe  Fe204     1.0  0.67931  0.50284  0.96575  1.0000
  S   S412      1.0  0.89507  0.51347  0.98256  1.0000
  C   C1238     1.0  0.69565  0.52440  0.79011  1.0000
  S   S413      1.0  0.68380  0.54176  0.95631  1.0000
  H   H1237     1.0  0.91368  0.61645  0.90055  1.0000
  S   S414      1.0  0.95081  0.52143  0.96572  1.0000
  Fe  Fe205     1.0  0.87830  0.52785  0.96523  1.0000
  S   S415      1.0  0.91756  0.56176  0.96174  1.0000
  C   C1239     1.0  0.79173  0.50973  0.84215  1.0000
  Fe  Fe206     1.0  0.92936  0.53462  0.94970  1.0000
  S   S416      1.0  0.94951  0.54587  0.93032  1.0000
  Fe  Fe207     1.0  0.93546  0.54545  0.97818  1.0000
  H   H1238     1.0  0.69513  0.54434  0.79103  1.0000
  Fe  Fe208     1.0  0.63191  0.49941  0.85057  1.0000
  H   H1239     1.0  0.91366  0.50056  0.80451  1.0000
  H   H1240     1.0  0.81131  0.51642  0.84665  1.0000
  S   S417      1.0  0.61187  0.50610  0.86843  1.0000
  H   H1241     1.0  0.83244  0.51257  0.82033  1.0000
  H   H1242     1.0  0.61072  0.50873  0.91440  1.0000
  H   H1243     1.0  0.68940  0.52196  0.89731  1.0000
  C   C1240     1.0  0.61101  0.50494  0.89430  1.0000
  H   H1244     1.0  0.97035  0.49141  0.93748  1.0000
  H   H1245     1.0  0.91588  0.59100  0.92645  1.0000
  C   C1241     1.0  0.68476  0.48638  0.76128  1.0000
  C   C1242     1.0  0.70743  0.53165  0.75529  1.0000
  S   S418      1.0  0.65032  0.52841  0.83437  1.0000
  Fe  Fe209     1.0  0.88788  0.51854  0.86083  1.0000
  C   C1243     1.0  0.77514  0.52533  0.84170  1.0000
  S   S419      1.0  0.88481  0.53620  0.87946  1.0000
  Fe  Fe210     1.0  0.90111  0.52254  0.83206  1.0000
  H   H1246     1.0  0.64035  0.54400  0.79518  1.0000
  S   S420      1.0  0.91521  0.54983  0.81455  1.0000
  H   H1247     1.0  0.87251  0.57535  0.80513  1.0000
  S   S421      1.0  0.72823  0.53567  0.83619  1.0000
  N   N104      1.0  0.95162  0.48777  0.91952  1.0000
  S   S422      1.0  0.86729  0.52809  0.84349  1.0000
  H   H1248     1.0  0.83168  0.54596  0.93437  1.0000
  S   S423      1.0  0.92812  0.51713  0.75883  1.0000
  S   S424      1.0  0.64888  0.54652  0.74930  1.0000
  C   C1244     1.0  0.91820  0.54016  0.79911  1.0000
  C   C1245     1.0  0.91648  0.51480  0.79676  1.0000
  C   C1246     1.0  0.91926  0.50805  0.78437  1.0000
  C   C1247     1.0  0.92299  0.52630  0.77414  1.0000
  H   H1249     1.0  0.80868  0.49151  0.97558  1.0000
  C   C1248     1.0  0.69654  0.50592  0.75202  1.0000
  S   S425      1.0  0.88984  0.50156  0.95248  1.0000
  Fe  Fe211     1.0  0.84702  0.48519  0.84256  1.0000
  C   C1249     1.0  0.62074  0.50606  0.78832  1.0000
  H   H1250     1.0  0.90821  0.58738  0.89216  1.0000
  C   C1250     1.0  0.92399  0.55148  0.77645  1.0000
  C   C1251     1.0  0.63808  0.53022  0.76418  1.0000
  C   C1252     1.0  0.64441  0.54456  0.77499  1.0000
  C   C1253     1.0  0.63595  0.53255  0.78700  1.0000
  C   C1254     1.0  0.76635  0.48980  0.97446  1.0000
  H   H1251     1.0  0.87859  0.56866  0.94179  1.0000
  H   H1252     1.0  0.65553  0.56521  0.77403  1.0000
  H   H1253     1.0  0.79433  0.55428  0.95430  1.0000
  H   H1254     1.0  0.69599  0.58429  0.90341  1.0000
  H   H1255     1.0  0.82234  0.54623  0.91146  1.0000
  H   H1256     1.0  0.92365  0.57818  0.79057  1.0000
  H   H1257     1.0  0.58516  0.52995  0.97359  1.0000
  H   H1258     1.0  0.96688  0.49577  0.73974  1.0000
  Fe  Fe212     1.0  0.68398  0.51116  0.83549  1.0000
  H   H1259     1.0  0.86003  0.56908  0.89633  1.0000
  H   H1260     1.0  0.64542  0.97781  0.90161  1.0000
  C   C1255     1.0  0.62336  0.50359  0.76552  1.0000
  H   H1261     1.0  0.93200  0.59435  0.90470  1.0000
  C   C1256     1.0  0.93125  0.53905  0.91612  1.0000
  C   C1257     1.0  0.94566  0.54717  0.90466  1.0000
  C   C1258     1.0  0.93176  0.54376  0.89318  1.0000
  C   C1259     1.0  0.90321  0.53245  0.89303  1.0000
  C   C1260     1.0  0.88893  0.52328  0.90446  1.0000
  C   C1261     1.0  0.90287  0.52640  0.91595  1.0000
  C   C1262     1.0  0.61445  0.49166  0.77753  1.0000
  H   H1262     1.0  0.94297  0.55147  0.88448  1.0000
  H   H1263     1.0  0.86455  0.55324  0.78558  1.0000
  H   H1264     1.0  0.89149  0.51995  0.92469  1.0000
  C   C1263     1.0  0.74792  0.50183  0.96977  1.0000
  S   S426      1.0  0.63677  0.57295  0.97712  1.0000
  H   H1265     1.0  0.78231  0.54421  0.84563  1.0000
  C   C1264     1.0  0.80508  0.52423  0.96459  1.0000
  C   C1265     1.0  0.79477  0.50088  0.97185  1.0000
  S   S427      1.0  0.60713  0.49088  0.80312  1.0000
  C   C1266     1.0  0.92207  0.55845  0.78888  1.0000
  C   C1267     1.0  0.74911  0.51632  0.83642  1.0000
  H   H1266     1.0  0.92725  0.56585  0.76872  1.0000
  H   H1267     1.0  0.64221  0.56110  0.85875  1.0000
  C   C1268     1.0  0.65156  0.51582  0.90734  1.0000
  C   C1269     1.0  0.66739  0.51661  0.89655  1.0000
  C   C1270     1.0  0.65520  0.51179  0.88469  1.0000
  C   C1271     1.0  0.62702  0.50671  0.88344  1.0000
  H   H1268     1.0  0.93040  0.48448  0.73734  1.0000
  C   C1272     1.0  0.70661  0.53747  0.76785  1.0000
  S   S428      1.0  0.84066  0.53962  0.96115  1.0000
  C   C1273     1.0  0.84798  0.55608  0.92764  1.0000
  S   S429      1.0  0.92423  0.51759  0.84956  1.0000
  H   H1269     1.0  0.66783  0.51338  0.87645  1.0000
  N   N105      1.0  0.65873  0.57193  0.87691  1.0000
  C   C1274     1.0  0.63326  0.56813  0.88185  1.0000
  C   C1275     1.0  0.62977  0.57032  0.89469  1.0000
  C   C1276     1.0  0.67842  0.58053  0.89732  1.0000
  C   C1277     1.0  0.65251  0.57639  0.90246  1.0000
  H   H1270     1.0  0.61529  0.56225  0.87599  1.0000
  H   H1271     1.0  0.60943  0.56621  0.89868  1.0000
  H   H1272     1.0  0.64998  0.57684  0.91254  1.0000
  H   H1273     1.0  0.67307  0.55480  0.86228  1.0000
  H   H1274     1.0  0.67418  0.58786  0.85874  1.0000
  C   C1278     1.0  0.62315  0.50921  0.90621  1.0000
  N   N106      1.0  0.89003  0.58160  0.91052  1.0000
  C   C1279     1.0  0.68121  0.57833  0.88443  1.0000
  H   H1275     1.0  0.70131  0.58093  0.88054  1.0000
  C   C1280     1.0  0.85405  0.56009  0.80934  1.0000
  C   C1281     1.0  0.84275  0.55630  0.91481  1.0000
  C   C1282     1.0  0.78662  0.53616  0.95987  1.0000
  H   H1276     1.0  0.73147  0.49261  0.87682  1.0000
  C   C1283     1.0  0.68428  0.49287  0.77376  1.0000
  H   H1277     1.0  0.55628  0.50009  0.97549  1.0000
  C   C1284     1.0  0.85562  0.53515  0.79114  1.0000
  N   N107      1.0  0.69510  0.51817  0.77689  1.0000
  C   C1285     1.0  0.87438  0.56883  0.93182  1.0000
  C   C1286     1.0  0.97712  0.50366  0.91302  1.0000
  C   C1287     1.0  0.91205  0.59573  0.90155  1.0000
  C   C1288     1.0  0.84096  0.48838  0.79269  1.0000
  H   H1278     1.0  0.86681  0.51482  0.90447  1.0000
  S   S430      1.0  0.64415  0.50307  0.97810  1.0000
  H   H1279     1.0  0.74438  0.53454  0.95876  1.0000
  C   C1289     1.0  0.83798  0.51249  0.81055  1.0000
  C   C1290     1.0  0.75824  0.52502  0.96240  1.0000
  S   S431      1.0  0.61763  0.52072  0.95228  1.0000
  H   H1280     1.0  0.96760  0.55707  0.90467  1.0000
  H   H1281     1.0  0.85795  0.51180  0.77581  1.0000
  H   H1282     1.0  0.58920  0.50103  0.89344  1.0000
  N   N108      1.0  0.84938  0.53532  0.80358  1.0000
  C   C1291     1.0  0.85182  0.51173  0.78555  1.0000
  H   H1283     1.0  0.71474  0.55758  0.77025  1.0000
  H   H1284     1.0  0.91870  0.48860  0.78273  1.0000
  S   S432      1.0  0.71231  0.48737  0.97346  1.0000
  H   H1285     1.0  0.71445  0.52291  0.79460  1.0000
  H   H1286     1.0  0.69698  0.50115  0.74231  1.0000
  H   H1287     1.0  0.71582  0.54706  0.74808  1.0000
  Fe  Fe213     1.0  0.91006  0.49022  0.96944  1.0000
  Fe  Fe214     1.0  0.91815  0.53325  0.73982  1.0000
  Fe  Fe215     1.0  0.63063  0.49609  0.82140  1.0000
  C   C1292     1.0  0.83371  0.48870  0.80525  1.0000
  Fe  Fe216     1.0  0.61693  0.48365  0.96257  1.0000
  H   H1288     1.0  0.85838  0.55847  0.81951  1.0000
  H   H1289     1.0  0.67739  0.51099  0.79534  1.0000
  C   C1293     1.0  0.78264  0.48540  0.83700  1.0000
  H   H1290     1.0  0.97362  0.50855  0.90306  1.0000
  C   C1294     1.0  0.57285  0.51454  0.98050  1.0000
  H   H1291     1.0  0.61813  0.49238  0.75728  1.0000
  C   C1295     1.0  0.73981  0.49176  0.83152  1.0000
  H   H1292     1.0  0.71987  0.48473  0.82736  1.0000
  H   H1293     1.0  0.83585  0.56624  0.80815  1.0000
  H   H1294     1.0  0.56395  0.55983  0.97934  1.0000
  H   H1295     1.0  0.59637  0.94492  0.98404  1.0000
  C   C1296     1.0  0.95180  0.48292  0.93223  1.0000
  H   H1296     1.0  0.58696  0.50487  0.98450  1.0000
