data_image0
_chemical_formula_structural       CHSHFeS2FeHFeSCSCNHSNH3SFe2S3NFeHNCFeCSH2SHSHFeSCHS2FeS2FeH3SNCS2HC2SFeC6H4C6H4NC8H7C6H4C6H3SHCSCH2NC3FeH3SNHFeHC2HFeH4C3HC3FeCH2C3HC2HCH3CHCHSCHC4H2CHCSH2CHCH2SC2H6CH3C2HFeCHFeSCFeS2FeSFeS3FeHSFeHSCFeSHSFeS2FeS2FeSFeHS3N2CHSFeSFeS3FeS2FeS2FeSFeS3CSFeS4HFeSFeS3CH2FeS2HCFeH2SC6H2CHC6H4SHCHC3H2C6H4C5H2FeC6H4C5SHC2HCHC6H4C4H2C6H4CHSCH2C7H4C6H4C3H2C6H6NH3CHCNC6H8NC6H8CHCHCNC6H9SCFeC2HCHC2HSHNC5H5CHCHCFeSC2H3SH2CHC2SCHSHNH2SCSCHFeHCH3CH2C2NC4HCH2NHSH4CHCHCHCH2NH3CHC2HCHCHSFeHFeH3CHCFeSC2H4CHCHCHFeSFeCHNH2SHNCHCHC2SCHFeCHFeCSHC2H2SNCHCNHCFeHSCHC4H3SH2SCH2CH4CSCHCSCHFeSH2SC2HCHFeH2C3FeC2H3FeH2CSCHFeSCFeSFeSFeS3NFeS2FeSHFeSFeS3HFeCSHNCNCHSNH2CSHCH2CH2CS2C2H2CSHC2FeS2FeSCFeSFeHS2FeS2FeS2FeSFeS3H2CHCHCH4CHNCHCHCH3CHNCHCNHC6H5SC2H2CH2CSC6H2C2HCHCH4C3HS2C3HCH4CFeC2H2C2H2C2H3C2SCHC3FeH3C3H5C7H3C6H5CHCH2C7HCH3SC2H2C7H3CH3CHCH5CH2CNC3HFeC2HCHC2H2CHC2HCHCHCSHCH3SHCHCFeSFeS2FeSFeS3FeSFeSHFeSFeS3CSHC4FeCHSC2SH2C4FeSCFeS2FeSFeS3FeSCFeS2FeSFeS3FeH3CH4CHC2SNH4CHC2SH3CH2C4SHCHCH2C6H4C7H9FeHCSH2C2S2HSCHC6H5NC7H2CHCHSC2H8CNHFeCHCHC3H4C6HCH2C6H5C5H4NC6H2CH4CNCSH3CNCHCHCSNC5NH5NHCHNC6H5SHC2H4CHCH2C2H2SCHCH2CHC2SNHCFeCNC3FeC3HSC6HC3SH2CH2CHCH3C3H3SHCH2C3HSH4SCH2CFeS2NFeS2FeS2FeS2FeS2FeSFeS3FeS2FeS2FeSFeS3FeS2FeS2CHCFeC3H4FeHFeS2FeS2FeSFeS3FeS2FeS2FeHFeS3HC2H2C3HC6H4C2H6CSC7H4C6H4C6H4C2H3CH3C6H4C6H4C5H5C6H4C6H4C6H4C5H3C2H2C2NHC5HC6H2S2CHCH2C2HC5HC2NC6H9NC6H9SFeSHSC3HCNC6H10FeCH3NH4NFeC2HCHSHCNCHS3CH3SCH3NHC4H2CFeH4NH2CHC2HC3HC2HCSH2C2H3C3FeCH2CHN2H2CHC2H3NC6H9S2HC3SHCHCH2CHNHC3H2CHC2SC2H5SNHC3H5CFeHCHSC2H2C3H2CHCH2S2C2HC3H2C3HCHSCS3HSHCSHCH2CFeHCSHCHCH2CFeS3H2SHFeHSFeS2FeS2FeS2FeHFeS3H3CFeSH2CFeS2HSFeS2FeS2FeSFeS3FeS2FeS2FeSFeS3FeS2FeCFeSFeS2FeSHFeSFeS3FeSCFeS2FeSFeS3C5H3CHC7H5C6H4C6H4C6H4C6H4C6H4C6H4CHCHCHNHC9H2CHC6H4NHC6H4C6H4CHC2HCH2C2H2C7H2CHCHSNC6H9C2SNH2CHCHNC3HNC6H8NC6FeHCHC4Fe2H2SCH2SCH4C2H3C3S2CH2CH2NC2SC3H3SHSC2HCHCHCHCNHCH3C3H2S2HNC5H5C3SHNH2SCH4SC2HNH3C2H6SCFeNC7H3CH3CHCH2NSFeNH3C3H2SCH3C5H2SC2H3CH3CSC3SCHCHSHC2HFeHSCH3C4SCH2CH3FeS3HCH2C2H6FeSNC2HC2SNFeH2Fe2CS2HC2H2C3HCSCHSH2CFeCFeC4HCSCH6CHNHCHC2NCSFeSCS2HCSH2C2H2FeHNH2CH2CH6C4H6C2SH3CH3CHCHSFeH2CNC2SHC3N2CH2CHC2H2FeCHFeSHFeS2FeCFeHS2CHCFeS2FeS2FeCFeS3NHC2H2NH2C3HCFeS2FeS2FeSFeS3C2FeS2H2FeSCSFeS2FeS2FeSFeS3C3FeS2FeSCSCSC2H2CH2CH3SCHC7H4C6H4CHC4H4FeC2NCHCHC7H4C6H2CHCHC6H5C6H4C2NCSCHC2H6CH2C9H4CH4CHSH6CHSCHCH2CNCH4NCH2C3HCNCSHCSFeNSH5C2HNC6HSH3C3H2NFeH3CH2SCH3C2NHCH4CH3CHC2NHCNC6H3C2H6CH2CHNC6H8CHSHFeH2CHC4HCH2C2H2SCSC2HC2H3SHFeHFeCHCHC2H3CHCNHCNCH2C2H2NSHFeCS2H2SHFeS2FeS2FeSFeCS2CHCNHSHNHCFeS2FeSFeHS2NH3CH2SC2HFeSHFeSCFeSFeS2CSH2NC2FeS2FeS2FeSFeS3FeCSFeH2C2SCH2NC2HC9H4C3H2C2HC3H2NH3C2HC2HC3HC2HSCFeHSHC9H4C6H5CH3CSHC2HSCH2CSH2C2FeHC8H4CH3C2H2C2H2CH4CNH2CHCSCH2NCHFeCH2CHC4HC2H4SHC2FeCH2CHCH2C2HCH3CHCNC2H2C2H2NHCH2CH5C2SHC8HCHC2H2FeC2HCH2CHC2HC2H3CH3NC2H2C2SFeS2FeSHSHCSCSH2SFeHSHCSC2FeS2FeS2FeSFeS3FeS2FeS2FeSFeS3FeS2FeS2Fe2S3FeCNFeS2FeSFeSHC7H4C6H5CH2CHSNC5H4C6H4C6H4C6H2C6H4NH2FeHCHC6H8CHC2HSCHCFeCHC6H4C3HCH2C2HFeCHNC4HCHCHC2NHFeNC3HCHCH4C2HC4H4CHC2SCHNHSFeHNHNC6H9CHCHCH2CHNCHCHCH2SHCSCNC3HCHNC3H2CH4CH3C2H4SHS3HFeH2NC3HCSH5CH3C2HFeH4C4SCHC4HFeSC3HCHSCSHSHSHCH2SCHCNC5NHCH2SHCHCH2CHFeH2C3H2C5H3FeC3H2SHC3SH4C4H3CNC2H2CH3FeSHCH3CH2SHFeSH2SNHCH2SHCHFeS2FeSFeS4FeS2HFeC2FeSHSH2CHSCHCSHFeHSH2CS2FeCHNFeSFeSFeS2FeSFeS3H2SHCHCSC3HFeS2FeS2FeSFeS3FeS2FeS2FeSFeS3FeS2FeS2FeSFeS3HC6H4C6H4C6H5C5H4C6H4C4NHCH2CHC6H3C6H5C6H5CHS2C2H3C2H6CHCH2CHC2HC7H4C6H4C6H4CNFeCSH3CSC2HC3HNC6H8CSC2HCHC2SNSC3NC6H8C2HNC6H13CH2C2H2C2SH3CHCHSH2CNHSHC4HSHCH2CSNC6H8NC2H2NH4C5HC3H5C3HNC5HCFeH3FeCH3CSNC2H2C2HCFeHNC6H9NC5H6FeH2CH2CHCHCHCH4CSH2CHC2HNCHC2H2C4H2C2HC2HCFeSCH3NHC2H2CH2FeHCHSH4CH2CSFeS2FeS2FeSFeS3Fe2SFeS2HC2SHSCFeHSHFeSFeS2FeSFeS3CFeS2FeS2FeSFeS3FeSFeS3H2CSCFeS2FeSFeS3FeCSFeCSFeSCSH3CHS2FeC8H4C6H2NHFeC2NCHC7H4C6H4C3H2C6H4C2HC4H2C6H4C6H4CH4SH2C8H4C6H2SH2C6H2CHC2H2NC3H2FeNHCHCHCH7CHC5SH2CHCH4C2HCSC3SFeCH3CHC2HNC2FeCHC2HC2HNH2CH2SHCHCNHC2H4CH3CSCH5NC3S2CH3C2NH2CH4CSH2CH2C2HNC6H9CFeCH2CH2CH9SHCH4S2C3HSHNH5NC3H2C2H2C2HN2CHCHC4SHCSHC3H3CHCH5CHCHCFeHFe2H2CHFe2S2FeS2FeSFeS3FeSFeS3FeS2FeS2FeHFeS2HCHC2HCHFeS2FeS2FeSFeS3CHFeS3HSHCFeSC2SH2C2HSHCHCS3C2FeS2FeS2FeSFeS2FeS2FeS2FeSFeS2C6H4CSH2C6SHC2H2C2HC7H3C3FeHCFeHC6H4C6H4C6H2SHCH2NCNHC6H6C4H5CHC6H4C6H4C6H4C6H2CH3C4HC2HCHFeCHCHFeCHCHNC6H8NSH2CHFeHC3HCFeCNHCSC2HCHCSH2C3NCHC2HFeCHSCH2CH2NC6H12CFeHCHFeC2H2CS2CHC3HSNH4CH2CSHCH4CSCFeH2SC2SH2C5H5NC6H8NC2HCHCH4CH4NH2CHCH2C2H2SC2NC6H9SFeHCSCSCHCSC3H2C2SH3NCSNCSHNCH4CHFeC3NSHC2FeHCSCH2NCNHCH3CH2CH2NC2HCHCHC2H3CHCH2CFeSH2SHCHCSC3HCHC2H2NCH4CSH3CHC4H2CSCHCH3CHCH4SH2C2FeSH8CH2CH2NH2C3HSCFeS2FeS2FeCFeS3FeSFeS2FeSFeS2FeS2FeCSFeCS2NHNFeSCFeS2FeSFeS2HFeS2FeS2FeSFeS3CFeHFeHSHFeS3H3NHCHCSCSC5HCHSH6CHFeH4C4H3C6H5CH4C3HSHCHC2NHC6H4C6H5CH3C2HC6H4CHC2H2C6H7C2HNHSC7H4C6H4C5H3C2HCSC3HCH2C3H2CFeC3NHC2HCHFeHCH3C2HCH3CNH3CH2C3HC2NC5SH2CSCH2CHSCH3SCHCHCH2SCNCHNH2C2HNC6H8C3HCFeH2CH2SCHC2HCNCNCSHCH2C2HSH2C3SH2C2HC3HC2H7CH2CSHNH2CSHCH3CHC2H2C3NCSNCHC4H3CH3C2H2SH4CHC4HCH2SHFeSH2CHFeCH2C2HFeS2FeCFeS3HSHFeSCFeSFeS3C2HFeS6CSC2FeS2FeSHFeSFeS3FeS2FeSHFeSFeS3C7H4CHC2H3CNC6H4CHNC2H4CHC6H4CHC2FeCHC3SHCSC2NCNHNS2H2C6H4C6H4CNCHC4H2CH4CNHFeNCHC4H5C2H2C2H2C9HCHSHC2HC2SH2CH4CH4NCHCSHC5NCFeH4C2HC2H2C3HSHCSCH3S2NH2C3HSCS2HNC2SH2C2H2CH4CHC3H2C2HCH2FeCH2C2Fe2SCSCH2CH2CHSC2H2NHCFeHFeSCHFe2CH2C2H3SHCH2C2HCNHCNHCNH3CH2C2H2FeCHCH2CH2CH4CHCH8CFeHSFeS2FeS2FeS2Fe2S3HSH2FeSHCHSHSFeSHFeSFeS2H3SFeS2FeS2FeSFeS3FeSHFeS2FeS2FeS2FeS2FeSFeS3FeS2FeSHFeSFeS3FeS2FeS2FeSFe2S3C6HC2HC6H4C6H4C6H2C6H4CH2C2H2C6H4C6H4C6H5C3HSCH3C6SH3C3FeH3C6H4C6H5C6H4C6H4CHCSH6NFe2HNC6H8NC5H5CH3NC6H7NC5H2CH2C2SHCSHNHCH5CHC3NC3HCH5NC4HCH2SH4C2HNHSHSHCH2CHCH4FeCHCH2C2HN2C3SC2H3CH5C5H3CHCHNC2H3CH2CH2C2HCHCNHCNH2C2NH2CHC3H3NC6HSHCSHC5NC2H2FeC4H7SCHFeC2SC2SHSH2CH2SH2C2HCSH4NHFeH2SHSHCNHC2H2SCSHCHSHCH2C2HCHCSHC4SCSHFeCHC4FeCSH2CSFe2C2H4C3SCHCSNHCHC3SCNH5FeHCHCH2CHC3HC2HSH6C3SHCH2NH3CH2C2FeHCHCHNFeC2FeCH2FeH2CSHFeS2FeS2FeSFeS3HCHFeHCHSHFeS2FeS2FeSFeS3FeSHCSFeHFeSHS3CSFe2SH2SHC2H2C3H3C6H4C3HNSC6H4C6H4C6H5C4HC2H6FeNC6H5CH2CHCSHC6H2CH4C2H3C3H2CH2S2CH4CFeHC2HCNCHS2HNHC2HNC6H7FeH3C3HCFeNH2SCHNC5H7CHCFeH2CHCSHFeC2HCHSHSCH4FeC3H4CHCSHC3HFeSCHSHFeSFeSHSC2HNHSC2HCHSNFeS2FeS2FeSFeS3FeSHNH4CSHFeS2FeSFeSFeHS2FeS2C3FeSFeHS2H2FeCSHCSC3FeHSCH3FeCHSHC2HCH2C6H4C6H4C4HC3HC2H2C2FeCSC6H4C3H2C7H5SC2HSC9H5C5H2CHC2HFeHC2HC2HC4H2C2HCH5C2H4NC4H6CNCHCH3CHC2SCH3FeCH2SCNCSH2C2HCNHC2H4CSCSC3H4NHCH2FeH2CHC2HCHSH5CH7CH2CHC3H3CHNCH2CSC5HCHNCHCHC2H2CSCHCHC2FeSH2FeS2FeS2FeSH2SC2HSCS2HFeSH2C3H5CHC3FeS2FeSHCHFeS3CHFeS2FeS2FeSFeCS3CH2NHFeCHCSHCFeCH3CHCHCHC2H3CNC6H5SC3HC6H2CHCHC3HC2NC2NH7C3SH3NH2C8H4C2H4CH2SC4FeHNCH2SC4HCH4C2H5CSC2SFeS2FeS3FeS2FeS2FeSFeS3H2CHFeHFe2S2FeS2FeSFeS4FeS2FeS2FeSFeS3HFeS2FeS2FeSFeS3H2FeSC3FeSCFeS2FeSFeSFeS2HC6HCH2C7SH2C6H4C2FeC6H4C6H4C6H4C6H6C3HNH2SCH2C7H2C6H4C6H4C6H4CHCNC2SCH3C6H4CHSCH2NC4HCH4CH3CNH2CH2FeH2CNC3FeSC5HCH2NC6H2CH5SH3NH3CH5C3NC6H8NC6H4C3HSCH3SCSHC2FeHNC6H5SH3C2HC2FeH2FeCNC2HCHCHCSCNC3H3SH2C5S2NC3HCH4C2HCSH6C3H3SC2FeH2CSCSCNH2SH2FeC2HCH2C3FeH3SC2H2C3HCFeC2H3CFeC3SH4CH8SC2H2CH2C2H7C2FeSCHCHC2HNCH2SNC2H3C2SH2C2H2CSHC3H2SFeSNC3SCHCHC2H2C3HCH3C2H4CH2SC2H2CH2SCNH2C3HCHCS2C2H3CH5C2HNCHFeSNH2CH2SC3HFeS2FeSFeSFeS3HFeS2FeS2FeSFeS3CFeS2FeS2FeSFeS3FeSHCSFeSFeS3HCHCHCH3SHC6H6CH3SHCHC6H4SC3HCH2CHC6H4CSC2HCH2C2HSCHC3HC6H4FeHCNC2FeCH4C6H4C4HNH2C2H2C3SFeHC3H2CHNHSC4H2C2HCHC2HSHSH2CHSCNC6H8SH2SH2C3HNCH2C2NH2CHCH4CSNH2C2HCHNCH2C2HCHNC6H10C2SHCHC2HC2H2FeSH3NC5SHCH2C4HC3FeCHSH2SH2FeHNC4SCNH2C2HC2HC5HC3H3CFeH3CHCH3C
_chemical_formula_sum              "C3456 H3456 S1152 Fe576 N288"
_cell_length_a       98.26
_cell_length_b       99.6261
_cell_length_c       99.9891
_cell_angle_alpha    73.6188
_cell_angle_beta     73.591
_cell_angle_gamma    73.6383

_space_group_name_H-M_alt    "P 1"
_space_group_IT_number       1

loop_
  _space_group_symop_operation_xyz
  'x, y, z'

loop_
  _atom_site_type_symbol
  _atom_site_label
  _atom_site_symmetry_multiplicity
  _atom_site_fract_x
  _atom_site_fract_y
  _atom_site_fract_z
  _atom_site_occupancy
  C   C1        1.0  0.40801  0.05644  0.27071  1.0000
  H   H1        1.0  0.17574  0.17135  0.45901  1.0000
  S   S1        1.0  0.48307  0.05932  0.22990  1.0000
  H   H2        1.0  0.40926  0.18559  0.14256  1.0000
  Fe  Fe1       1.0  0.48512  0.07809  0.18972  1.0000
  S   S2        1.0  0.46897  0.08759  0.20736  1.0000
  S   S3        1.0  0.49039  0.08848  0.16624  1.0000
  Fe  Fe2       1.0  0.48786  0.08086  0.21810  1.0000
  H   H3        1.0  0.14468  0.14465  0.46178  1.0000
  Fe  Fe3       1.0  0.46557  0.06515  0.21763  1.0000
  S   S4        1.0  0.44422  0.05791  0.22645  1.0000
  C   C2        1.0  0.29900  0.04793  0.43851  1.0000
  S   S5        1.0  0.47987  0.05636  0.19878  1.0000
  C   C3        1.0  0.24429  0.04136  0.41438  1.0000
  N   N1        1.0  0.42199  0.18139  0.12258  1.0000
  H   H4        1.0  0.24360  0.06381  0.40600  1.0000
  S   S6        1.0  0.45184  0.15006  0.14731  1.0000
  N   N2        1.0  0.47688  0.02013  0.21631  1.0000
  H   H5        1.0  0.49114  0.11937  0.10993  1.0000
  H   H6        1.0  0.48041  0.01532  0.17835  1.0000
  H   H7        1.0  0.50072  0.00372  0.19084  1.0000
  S   S7        1.0  0.16076  0.16457  0.44051  1.0000
  Fe  Fe4       1.0  0.41492  0.00329  0.29319  1.0000
  Fe  Fe5       1.0  0.21617  0.09547  0.46174  1.0000
  S   S8        1.0  0.23968  0.08738  0.46260  1.0000
  S   S9        1.0  0.20963  0.10741  0.44108  1.0000
  S   S10       1.0  0.50181  0.16648  0.08549  1.0000
  N   N3        1.0  0.19679  0.16251  0.46317  1.0000
  Fe  Fe6       1.0  0.28723  0.99570  0.39237  1.0000
  H   H8        1.0  0.20288  0.15562  0.44352  1.0000
  N   N4        1.0  0.23230  0.05960  0.42786  1.0000
  C   C4        1.0  0.18572  0.17489  0.45826  1.0000
  Fe  Fe7       1.0  0.31729  0.99605  0.39429  1.0000
  C   C5        1.0  0.20472  0.15355  0.45420  1.0000
  S   S11       1.0  0.21043  0.07415  0.47184  1.0000
  H   H9        1.0  0.17810  0.09743  0.45478  1.0000
  H   H10       1.0  0.50164  0.11564  0.23771  1.0000
  S   S12       1.0  0.43295  0.01527  0.28703  1.0000
  H   H11       1.0  0.37577  0.04171  0.29724  1.0000
  S   S13       1.0  0.48800  0.16444  0.12625  1.0000
  H   H12       1.0  0.48621  0.01878  0.23376  1.0000
  Fe  Fe8       1.0  0.38321  0.00508  0.30861  1.0000
  S   S14       1.0  0.36387  0.01914  0.31999  1.0000
  C   C6        1.0  0.48800  0.15713  0.16689  1.0000
  H   H13       1.0  0.49339  0.10711  0.18523  1.0000
  S   S15       1.0  0.39412  0.01172  0.28555  1.0000
  S   S16       1.0  0.27465  0.99173  0.37887  1.0000
  Fe  Fe9       1.0  0.29124  0.01858  0.40469  1.0000
  S   S17       1.0  0.30911  0.00363  0.41489  1.0000
  S   S18       1.0  0.28324  0.04120  0.40794  1.0000
  Fe  Fe10      1.0  0.23346  0.06656  0.47451  1.0000
  H   H14       1.0  0.45763  0.02983  0.19058  1.0000
  H   H15       1.0  0.15986  0.11927  0.44744  1.0000
  H   H16       1.0  0.24375  0.01962  0.42589  1.0000
  S   S19       1.0  0.20971  0.10310  0.48209  1.0000
  N   N5        1.0  0.39745  0.04416  0.29411  1.0000
  C   C7        1.0  0.38374  0.05257  0.27576  1.0000
  S   S20       1.0  0.27615  0.00350  0.41249  1.0000
  S   S21       1.0  0.30063  0.01242  0.38339  1.0000
  H   H17       1.0  0.31013  0.99567  0.33952  1.0000
  C   C8        1.0  0.49256  0.11457  0.19201  1.0000
  C   C9        1.0  0.46657  0.02464  0.19592  1.0000
  S   S22       1.0  0.40377  0.99844  0.31644  1.0000
  Fe  Fe11      1.0  0.48187  0.18726  0.12827  1.0000
  C   C10       1.0  0.35723  0.01040  0.33764  1.0000
  C   C11       1.0  0.47841  0.13599  0.17899  1.0000
  C   C12       1.0  0.17078  0.09773  0.47718  1.0000
  C   C13       1.0  0.42760  0.16761  0.12083  1.0000
  C   C14       1.0  0.33941  0.01053  0.36024  1.0000
  C   C15       1.0  0.34466  0.01730  0.34605  1.0000
  H   H18       1.0  0.30326  0.00277  0.46488  1.0000
  H   H19       1.0  0.45562  0.03274  0.21487  1.0000
  H   H20       1.0  0.32988  0.01607  0.36670  1.0000
  H   H21       1.0  0.33902  0.02794  0.34160  1.0000
  C   C16       1.0  0.25669  0.04413  0.45300  1.0000
  C   C17       1.0  0.26301  0.03072  0.44956  1.0000
  C   C18       1.0  0.27123  0.02974  0.43575  1.0000
  C   C19       1.0  0.27320  0.04220  0.42534  1.0000
  C   C20       1.0  0.26704  0.05562  0.42882  1.0000
  C   C21       1.0  0.25877  0.05659  0.44262  1.0000
  H   H22       1.0  0.26147  0.02103  0.45756  1.0000
  H   H23       1.0  0.27605  0.01934  0.43321  1.0000
  H   H24       1.0  0.26863  0.06528  0.42080  1.0000
  H   H25       1.0  0.25408  0.06697  0.44520  1.0000
  N   N6        1.0  0.29821  0.02419  0.45279  1.0000
  C   C22       1.0  0.36451  0.99666  0.34349  1.0000
  C   C23       1.0  0.30316  0.99214  0.35013  1.0000
  C   C24       1.0  0.17429  0.14865  0.44123  1.0000
  C   C25       1.0  0.17792  0.14034  0.45410  1.0000
  C   C26       1.0  0.18886  0.12772  0.45419  1.0000
  C   C27       1.0  0.19614  0.12331  0.44141  1.0000
  C   C28       1.0  0.19247  0.13159  0.42858  1.0000
  C   C29       1.0  0.18163  0.14422  0.42849  1.0000
  H   H26       1.0  0.17242  0.14360  0.46399  1.0000
  H   H27       1.0  0.19148  0.12135  0.46417  1.0000
  H   H28       1.0  0.19804  0.12826  0.41865  1.0000
  H   H29       1.0  0.17890  0.15059  0.41848  1.0000
  H   H30       1.0  0.30123  0.00005  0.35677  1.0000
  H   H31       1.0  0.42803  0.17665  0.14266  1.0000
  H   H32       1.0  0.30221  0.05490  0.42821  1.0000
  C   C30       1.0  0.44169  0.04553  0.24303  1.0000
  C   C31       1.0  0.43123  0.03729  0.24629  1.0000
  C   C32       1.0  0.42872  0.02763  0.25959  1.0000
  C   C33       1.0  0.43659  0.02627  0.26976  1.0000
  C   C34       1.0  0.44713  0.03441  0.26644  1.0000
  C   C35       1.0  0.44967  0.04401  0.25314  1.0000
  H   H33       1.0  0.42498  0.03843  0.23853  1.0000
  H   H34       1.0  0.42056  0.02141  0.26204  1.0000
  H   H35       1.0  0.45320  0.03347  0.27429  1.0000
  H   H36       1.0  0.45757  0.05046  0.25087  1.0000
  C   C36       1.0  0.47941  0.10542  0.16095  1.0000
  C   C37       1.0  0.46542  0.10966  0.16898  1.0000
  C   C38       1.0  0.45686  0.12326  0.16448  1.0000
  C   C39       1.0  0.46242  0.13279  0.15219  1.0000
  C   C40       1.0  0.47642  0.12855  0.14417  1.0000
  C   C41       1.0  0.48482  0.11482  0.14846  1.0000
  H   H37       1.0  0.46108  0.10237  0.17849  1.0000
  H   H38       1.0  0.44598  0.12647  0.17066  1.0000
  H   H39       1.0  0.48066  0.13572  0.13453  1.0000
  S   S23       1.0  0.24634  0.04494  0.47036  1.0000
  H   H40       1.0  0.47196  0.03408  0.23035  1.0000
  C   C42       1.0  0.38488  0.04586  0.28984  1.0000
  S   S24       1.0  0.12343  0.17222  0.46773  1.0000
  C   C43       1.0  0.42517  0.17518  0.09630  1.0000
  H   H41       1.0  0.21740  0.07983  0.42586  1.0000
  H   H42       1.0  0.46956  0.13051  0.18191  1.0000
  N   N7        1.0  0.49103  0.12934  0.18354  1.0000
  C   C44       1.0  0.39865  0.03701  0.30883  1.0000
  C   C45       1.0  0.47561  0.02245  0.23048  1.0000
  C   C46       1.0  0.24025  0.03087  0.42637  1.0000
  Fe  Fe12      1.0  0.49754  0.05189  0.21044  1.0000
  H   H43       1.0  0.49552  0.11147  0.14213  1.0000
  H   H44       1.0  0.48816  0.14544  0.10749  1.0000
  H   H45       1.0  0.41889  0.04797  0.28814  1.0000
  S   S25       1.0  0.15214  0.15938  0.48219  1.0000
  N   N8        1.0  0.15025  0.12212  0.46872  1.0000
  H   H46       1.0  0.42679  0.17286  0.08591  1.0000
  Fe  Fe13      1.0  0.14743  0.17119  0.46088  1.0000
  H   H47       1.0  0.40930  0.02922  0.30890  1.0000
  C   C47       1.0  0.40887  0.04946  0.28480  1.0000
  C   C48       1.0  0.30166  0.00866  0.45401  1.0000
  H   H48       1.0  0.22741  0.07593  0.43960  1.0000
  Fe  Fe14      1.0  0.46398  0.16583  0.13109  1.0000
  H   H49       1.0  0.23633  0.08076  0.42136  1.0000
  H   H50       1.0  0.37392  0.05351  0.27231  1.0000
  H   H51       1.0  0.39481  0.06288  0.25511  1.0000
  H   H52       1.0  0.22208  0.05236  0.44965  1.0000
  C   C49       1.0  0.47671  0.14995  0.17057  1.0000
  C   C50       1.0  0.48927  0.01186  0.20982  1.0000
  C   C51       1.0  0.49494  0.14040  0.09890  1.0000
  H   H53       1.0  0.28573  0.02281  0.47420  1.0000
  C   C52       1.0  0.15989  0.11511  0.45870  1.0000
  C   C53       1.0  0.24011  0.05578  0.41529  1.0000
  C   C54       1.0  0.23205  0.03488  0.43906  1.0000
  Fe  Fe15      1.0  0.48522  0.17415  0.10376  1.0000
  C   C55       1.0  0.39542  0.05784  0.26614  1.0000
  H   H54       1.0  0.22916  0.02678  0.44855  1.0000
  H   H55       1.0  0.30864  0.02865  0.43067  1.0000
  C   C56       1.0  0.30262  0.03304  0.43997  1.0000
  C   C57       1.0  0.29065  0.05373  0.45021  1.0000
  C   C58       1.0  0.22809  0.04939  0.43961  1.0000
  H   H56       1.0  0.39776  0.04507  0.31493  1.0000
  C   C59       1.0  0.34678  0.99687  0.36611  1.0000
  C   C60       1.0  0.13976  0.13525  0.46423  1.0000
  H   H57       1.0  0.27890  0.04905  0.47213  1.0000
  C   C61       1.0  0.20896  0.14756  0.48173  1.0000
  H   H58       1.0  0.41723  0.06035  0.26328  1.0000
  H   H59       1.0  0.12969  0.13669  0.47275  1.0000
  H   H60       1.0  0.13650  0.13506  0.45452  1.0000
  C   C62       1.0  0.42063  0.18486  0.13627  1.0000
  H   H61       1.0  0.48674  0.16801  0.16047  1.0000
  C   C63       1.0  0.46549  0.02627  0.20966  1.0000
  H   H62       1.0  0.39000  0.03089  0.31440  1.0000
  S   S26       1.0  0.49144  0.09678  0.22812  1.0000
  C   C64       1.0  0.17025  0.10278  0.46278  1.0000
  H   H63       1.0  0.46669  0.15515  0.16692  1.0000
  C   C65       1.0  0.21506  0.14141  0.45876  1.0000
  C   C66       1.0  0.47931  0.01650  0.18909  1.0000
  C   C67       1.0  0.22813  0.07474  0.42868  1.0000
  C   C68       1.0  0.19864  0.15955  0.47685  1.0000
  H   H64       1.0  0.25105  0.03831  0.40458  1.0000
  H   H65       1.0  0.48299  0.11364  0.20110  1.0000
  C   C69       1.0  0.49070  0.00996  0.19611  1.0000
  H   H66       1.0  0.49833  0.00700  0.21505  1.0000
  C   C70       1.0  0.28981  0.02979  0.46424  1.0000
  S   S27       1.0  0.46167  0.17354  0.10832  1.0000
  H   H67       1.0  0.19214  0.16646  0.48410  1.0000
  H   H68       1.0  0.18278  0.18310  0.46479  1.0000
  C   C71       1.0  0.49658  0.12566  0.10024  1.0000
  H   H69       1.0  0.31191  0.00518  0.44639  1.0000
  C   C72       1.0  0.50084  0.15027  0.17159  1.0000
  H   H70       1.0  0.28740  0.06527  0.44912  1.0000
  H   H71       1.0  0.22118  0.13421  0.45168  1.0000
  S   S28       1.0  0.45804  0.18788  0.13521  1.0000
  C   C73       1.0  0.21725  0.13850  0.47258  1.0000
  C   C74       1.0  0.15096  0.11744  0.48281  1.0000
  H   H72       1.0  0.22527  0.12915  0.47625  1.0000
  H   H73       1.0  0.29270  0.00543  0.45181  1.0000
  H   H74       1.0  0.43427  0.15346  0.10618  1.0000
  H   H75       1.0  0.46755  0.01678  0.23858  1.0000
  H   H76       1.0  0.38634  0.99863  0.36082  1.0000
  H   H77       1.0  0.36817  0.99283  0.38315  1.0000
  C   C75       1.0  0.42937  0.16431  0.10764  1.0000
  H   H78       1.0  0.17876  0.08823  0.48053  1.0000
  H   H79       1.0  0.18964  0.18019  0.44697  1.0000
  H   H80       1.0  0.43111  0.15915  0.12953  1.0000
  C   C76       1.0  0.41897  0.18908  0.09834  1.0000
  C   C77       1.0  0.28595  0.04463  0.46315  1.0000
  H   H81       1.0  0.29227  0.99222  0.34879  1.0000
  Fe  Fe16      1.0  0.23266  0.09303  0.48410  1.0000
  C   C78       1.0  0.50221  0.13625  0.17992  1.0000
  H   H82       1.0  0.50231  0.11104  0.19675  1.0000
  Fe  Fe17      1.0  0.02909  0.11731  0.55909  1.0000
  S   S29       1.0  0.04292  0.11740  0.53699  1.0000
  C   C79       1.0  0.44040  0.16478  0.92352  1.0000
  Fe  Fe18      1.0  0.05201  0.12381  0.56970  1.0000
  S   S30       1.0  0.06786  0.12420  0.54866  1.0000
  S   S31       1.0  0.05651  0.13008  0.58766  1.0000
  Fe  Fe19      1.0  0.04870  0.13669  0.53921  1.0000
  S   S32       1.0  0.05173  0.15610  0.52167  1.0000
  Fe  Fe20      1.0  0.06081  0.10487  0.54828  1.0000
  S   S33       1.0  0.07631  0.08703  0.53852  1.0000
  S   S34       1.0  0.03326  0.13789  0.56033  1.0000
  S   S35       1.0  0.04657  0.10315  0.57038  1.0000
  Fe  Fe21      1.0  0.13316  0.02530  0.56666  1.0000
  H   H83       1.0  0.20702  0.07527  0.54765  1.0000
  S   S36       1.0  0.11482  0.04028  0.57804  1.0000
  Fe  Fe22      1.0  0.15260  0.02059  0.53827  1.0000
  H   H84       1.0  0.43650  0.14859  0.81743  1.0000
  S   S37       1.0  0.15860  0.02787  0.51448  1.0000
  C   C80       1.0  0.49230  0.12740  0.90432  1.0000
  Fe  Fe23      1.0  0.16548  0.01384  0.56432  1.0000
  S   S38       1.0  0.18583  0.01372  0.57049  1.0000
  H   H85       1.0  0.48026  0.15789  0.92626  1.0000
  S   S39       1.0  0.15254  0.03388  0.55296  1.0000
  Fe  Fe24      1.0  0.45072  0.05574  0.81497  1.0000
  S   S40       1.0  0.45926  0.05859  0.79124  1.0000
  S   S41       1.0  0.45402  0.03396  0.82983  1.0000
  Fe  Fe25      1.0  0.43850  0.08758  0.81354  1.0000
  S   S42       1.0  0.44552  0.09318  0.78953  1.0000
  S   S43       1.0  0.42758  0.10321  0.82833  1.0000
  Fe  Fe26      1.0  0.43771  0.07379  0.78967  1.0000
  S   S44       1.0  0.42794  0.07438  0.77125  1.0000
  Fe  Fe27      1.0  0.46642  0.07754  0.79265  1.0000
  H   H86       1.0  0.18047  0.16944  0.59917  1.0000
  S   S45       1.0  0.42857  0.06967  0.81347  1.0000
  S   S46       1.0  0.45987  0.07316  0.81656  1.0000
  S   S47       1.0  0.46542  0.12185  0.90843  1.0000
  N   N9        1.0  0.37840  0.00249  0.67912  1.0000
  N   N10       1.0  0.46078  0.17362  0.92352  1.0000
  C   C81       1.0  0.36989  0.99705  0.67419  1.0000
  H   H87       1.0  0.18542  0.03547  0.49743  1.0000
  S   S48       1.0  0.47822  0.02831  0.88382  1.0000
  Fe  Fe28      1.0  0.12311  0.15798  0.58186  1.0000
  S   S49       1.0  0.11953  0.14197  0.57198  1.0000
  Fe  Fe29      1.0  0.13774  0.15918  0.60421  1.0000
  S   S50       1.0  0.14679  0.14674  0.62346  1.0000
  S   S51       1.0  0.11448  0.16072  0.60445  1.0000
  S   S52       1.0  0.14645  0.15448  0.58249  1.0000
  Fe  Fe30      1.0  0.21537  0.08972  0.60116  1.0000
  S   S53       1.0  0.23921  0.08415  0.59157  1.0000
  S   S54       1.0  0.20717  0.10207  0.61848  1.0000
  Fe  Fe31      1.0  0.20740  0.07536  0.58270  1.0000
  S   S55       1.0  0.23050  0.06839  0.57111  1.0000
  S   S56       1.0  0.18670  0.07404  0.57834  1.0000
  Fe  Fe32      1.0  0.23564  0.06254  0.59294  1.0000
  S   S57       1.0  0.25246  0.04228  0.59863  1.0000
  Fe  Fe33      1.0  0.23238  0.09039  0.57071  1.0000
  S   S58       1.0  0.24434  0.10492  0.55279  1.0000
  S   S59       1.0  0.21221  0.06747  0.60459  1.0000
  S   S60       1.0  0.20893  0.09796  0.58018  1.0000
  C   C82       1.0  0.27790  0.08419  0.59190  1.0000
  S   S61       1.0  0.44105  0.04038  0.63572  1.0000
  Fe  Fe34      1.0  0.39643  0.02442  0.74473  1.0000
  S   S62       1.0  0.39593  0.04020  0.72379  1.0000
  S   S63       1.0  0.39460  0.03033  0.76567  1.0000
  S   S64       1.0  0.35994  0.99872  0.62659  1.0000
  S   S65       1.0  0.40244  0.01260  0.70919  1.0000
  H   H88       1.0  0.13501  0.06024  0.57210  1.0000
  Fe  Fe35      1.0  0.41539  0.02447  0.71508  1.0000
  S   S66       1.0  0.43512  0.03273  0.70159  1.0000
  Fe  Fe36      1.0  0.38293  0.02700  0.71965  1.0000
  S   S67       1.0  0.36518  0.03785  0.70733  1.0000
  S   S68       1.0  0.41673  0.00939  0.73623  1.0000
  S   S69       1.0  0.38140  0.01252  0.74159  1.0000
  C   C83       1.0  0.17751  0.06614  0.50948  1.0000
  H   H89       1.0  0.22753  0.02854  0.54014  1.0000
  H   H90       1.0  0.05393  0.07987  0.52922  1.0000
  Fe  Fe37      1.0  0.30721  0.02023  0.64832  1.0000
  S   S70       1.0  0.32869  0.02117  0.65177  1.0000
  S   S71       1.0  0.28987  0.03982  0.64203  1.0000
  H   H91       1.0  0.48549  0.09608  0.82437  1.0000
  C   C84       1.0  0.08851  0.15495  0.54087  1.0000
  Fe  Fe38      1.0  0.32420  0.00427  0.67169  1.0000
  H   H92       1.0  0.48642  0.03102  0.81494  1.0000
  H   H93       1.0  0.01817  0.06028  0.53562  1.0000
  S   S72       1.0  0.30197  0.00466  0.66930  1.0000
  C   C85       1.0  0.35578  0.02737  0.70316  1.0000
  C   C86       1.0  0.35084  0.03204  0.69038  1.0000
  C   C87       1.0  0.34300  0.02404  0.68700  1.0000
  C   C88       1.0  0.33975  0.01151  0.69658  1.0000
  C   C89       1.0  0.34458  0.00695  0.70942  1.0000
  C   C90       1.0  0.35269  0.01474  0.71265  1.0000
  H   H94       1.0  0.35309  0.04187  0.68304  1.0000
  H   H95       1.0  0.33927  0.02772  0.67712  1.0000
  C   C91       1.0  0.06302  0.16175  0.55343  1.0000
  H   H96       1.0  0.35636  0.01109  0.72257  1.0000
  C   C92       1.0  0.43558  0.03600  0.68331  1.0000
  C   C93       1.0  0.42859  0.02850  0.67845  1.0000
  C   C94       1.0  0.42950  0.03058  0.66383  1.0000
  C   C95       1.0  0.43757  0.04006  0.65396  1.0000
  C   C96       1.0  0.44422  0.04796  0.65878  1.0000
  C   C97       1.0  0.44339  0.04578  0.67346  1.0000
  H   H97       1.0  0.42287  0.02072  0.68586  1.0000
  H   H98       1.0  0.42405  0.02473  0.66016  1.0000
  H   H99       1.0  0.45046  0.05533  0.65116  1.0000
  H   H100      1.0  0.44881  0.05163  0.67718  1.0000
  S   S73       1.0  0.22833  0.07147  0.49629  1.0000
  H   H101      1.0  0.49110  0.02118  0.67338  1.0000
  C   C98       1.0  0.09664  0.17277  0.55261  1.0000
  H   H102      1.0  0.23017  0.09041  0.51621  1.0000
  C   C99       1.0  0.38178  0.01996  0.65697  1.0000
  C   C100      1.0  0.27761  0.05957  0.56359  1.0000
  C   C101      1.0  0.15748  0.05401  0.51879  1.0000
  H   H103      1.0  0.11826  0.06826  0.58237  1.0000
  H   H104      1.0  0.25909  0.11943  0.50109  1.0000
  C   C102      1.0  0.26311  0.04207  0.61025  1.0000
  C   C103      1.0  0.27554  0.03105  0.61164  1.0000
  C   C104      1.0  0.28397  0.03035  0.62117  1.0000
  C   C105      1.0  0.28006  0.04070  0.62936  1.0000
  C   C106      1.0  0.26782  0.05190  0.62772  1.0000
  C   C107      1.0  0.25935  0.05259  0.61821  1.0000
  H   H105      1.0  0.27856  0.02291  0.60545  1.0000
  H   H106      1.0  0.29343  0.02175  0.62223  1.0000
  H   H107      1.0  0.26471  0.05994  0.63403  1.0000
  H   H108      1.0  0.24977  0.06110  0.61726  1.0000
  C   C108      1.0  0.24413  0.10470  0.53533  1.0000
  C   C109      1.0  0.25234  0.11294  0.52393  1.0000
  C   C110      1.0  0.25265  0.11303  0.50984  1.0000
  C   C111      1.0  0.23637  0.09665  0.51837  1.0000
  C   C112      1.0  0.23611  0.09652  0.53260  1.0000
  H   H109      1.0  0.25854  0.11928  0.52597  1.0000
  H   H110      1.0  0.22967  0.09019  0.54139  1.0000
  Fe  Fe39      1.0  0.40188  0.99889  0.73120  1.0000
  C   C113      1.0  0.16365  0.13452  0.62135  1.0000
  C   C114      1.0  0.17060  0.12952  0.63279  1.0000
  C   C115      1.0  0.18394  0.11960  0.63170  1.0000
  C   C116      1.0  0.19028  0.11430  0.61931  1.0000
  C   C117      1.0  0.18326  0.11911  0.60787  1.0000
  C   C118      1.0  0.17005  0.12941  0.60880  1.0000
  H   H111      1.0  0.16570  0.13341  0.64252  1.0000
  H   H112      1.0  0.18931  0.11594  0.64058  1.0000
  H   H113      1.0  0.18809  0.11516  0.59822  1.0000
  H   H114      1.0  0.16470  0.13311  0.59995  1.0000
  C   C119      1.0  0.45343  0.12907  0.83940  1.0000
  C   C120      1.0  0.44669  0.17614  0.92237  1.0000
  C   C121      1.0  0.48312  0.11781  0.91118  1.0000
  C   C122      1.0  0.49671  0.04838  0.81225  1.0000
  C   C123      1.0  0.27405  0.99282  0.64083  1.0000
  S   S74       1.0  0.18529  0.08002  0.50924  1.0000
  H   H115      1.0  0.10789  0.09526  0.57053  1.0000
  C   C124      1.0  0.04456  0.07584  0.53614  1.0000
  C   C125      1.0  0.25499  0.01297  0.63577  1.0000
  H   H116      1.0  0.46932  0.13737  0.92925  1.0000
  C   C126      1.0  0.10306  0.15599  0.53738  1.0000
  H   H117      1.0  0.09971  0.17964  0.55741  1.0000
  C   C127      1.0  0.41839  0.06216  0.77013  1.0000
  C   C128      1.0  0.41354  0.05184  0.78198  1.0000
  C   C129      1.0  0.40620  0.04222  0.78047  1.0000
  C   C130      1.0  0.40401  0.04253  0.76706  1.0000
  C   C131      1.0  0.40903  0.05274  0.75519  1.0000
  C   C132      1.0  0.41596  0.06263  0.75677  1.0000
  H   H118      1.0  0.41530  0.05137  0.79232  1.0000
  H   H119      1.0  0.40231  0.03441  0.78974  1.0000
  H   H120      1.0  0.40745  0.05313  0.74480  1.0000
  H   H121      1.0  0.41962  0.07059  0.74755  1.0000
  C   C133      1.0  0.43781  0.11215  0.83363  1.0000
  C   C134      1.0  0.45273  0.11060  0.82806  1.0000
  C   C135      1.0  0.46044  0.11910  0.83081  1.0000
  C   C136      1.0  0.43081  0.12172  0.84276  1.0000
  H   H122      1.0  0.45814  0.10329  0.82113  1.0000
  H   H123      1.0  0.47182  0.11843  0.82575  1.0000
  C   C137      1.0  0.46127  0.03239  0.84455  1.0000
  C   C138      1.0  0.46333  0.04442  0.84764  1.0000
  C   C139      1.0  0.46896  0.04305  0.85946  1.0000
  C   C140      1.0  0.47238  0.02961  0.86843  1.0000
  C   C141      1.0  0.47049  0.01748  0.86536  1.0000
  C   C142      1.0  0.46488  0.01888  0.85346  1.0000
  H   H124      1.0  0.46014  0.05488  0.84129  1.0000
  H   H125      1.0  0.47047  0.05244  0.86176  1.0000
  H   H126      1.0  0.47301  0.00707  0.87236  1.0000
  H   H127      1.0  0.46326  0.00950  0.85121  1.0000
  C   C143      1.0  0.46701  0.12146  0.78727  1.0000
  H   H128      1.0  0.49209  0.05021  0.63244  1.0000
  S   S75       1.0  0.13657  0.18282  0.59659  1.0000
  C   C144      1.0  0.16536  0.04318  0.51147  1.0000
  H   H129      1.0  0.13348  0.07706  0.57646  1.0000
  H   H130      1.0  0.14675  0.05338  0.52535  1.0000
  C   C145      1.0  0.48803  0.10510  0.92053  1.0000
  C   C146      1.0  0.18569  0.03006  0.57401  1.0000
  C   C147      1.0  0.17312  0.04100  0.57452  1.0000
  C   C148      1.0  0.17349  0.05446  0.57599  1.0000
  C   C149      1.0  0.18635  0.05691  0.57726  1.0000
  C   C150      1.0  0.19883  0.04586  0.57722  1.0000
  C   C151      1.0  0.19850  0.03244  0.57556  1.0000
  H   H131      1.0  0.16309  0.03907  0.57387  1.0000
  H   H132      1.0  0.16378  0.06295  0.57620  1.0000
  H   H133      1.0  0.20877  0.04769  0.57831  1.0000
  H   H134      1.0  0.20821  0.02395  0.57527  1.0000
  C   C152      1.0  0.07416  0.13293  0.58391  1.0000
  C   C153      1.0  0.07693  0.14271  0.58996  1.0000
  C   C154      1.0  0.09087  0.14558  0.58640  1.0000
  C   C155      1.0  0.10204  0.13859  0.57685  1.0000
  C   C156      1.0  0.09931  0.12871  0.57093  1.0000
  C   C157      1.0  0.08541  0.12585  0.57450  1.0000
  H   H135      1.0  0.06824  0.14818  0.59728  1.0000
  H   H136      1.0  0.09294  0.15324  0.59099  1.0000
  H   H137      1.0  0.10797  0.12331  0.56355  1.0000
  H   H138      1.0  0.08341  0.11796  0.57024  1.0000
  C   C158      1.0  0.07022  0.15272  0.51343  1.0000
  C   C159      1.0  0.09322  0.13549  0.51023  1.0000
  C   C160      1.0  0.07804  0.13853  0.51419  1.0000
  H   H139      1.0  0.09924  0.12447  0.51130  1.0000
  H   H140      1.0  0.07237  0.12984  0.51814  1.0000
  C   C161      1.0  0.08627  0.07361  0.54987  1.0000
  C   C162      1.0  0.09671  0.06251  0.54437  1.0000
  C   C163      1.0  0.10537  0.05208  0.55303  1.0000
  C   C164      1.0  0.10346  0.05262  0.56728  1.0000
  C   C165      1.0  0.09283  0.06357  0.57285  1.0000
  C   C166      1.0  0.08430  0.07412  0.56413  1.0000
  H   H141      1.0  0.09826  0.06211  0.53332  1.0000
  H   H142      1.0  0.11359  0.04369  0.54866  1.0000
  H   H143      1.0  0.09131  0.06399  0.58389  1.0000
  H   H144      1.0  0.07629  0.08269  0.56842  1.0000
  H   H145      1.0  0.50062  0.04090  0.65520  1.0000
  H   H146      1.0  0.47981  0.00120  0.67855  1.0000
  N   N11       1.0  0.47770  0.01910  0.66091  1.0000
  H   H147      1.0  0.48626  0.13953  0.79660  1.0000
  H   H148      1.0  0.41923  0.12303  0.84715  1.0000
  H   H149      1.0  0.01782  0.10970  0.53773  1.0000
  C   C167      1.0  0.44855  0.15074  0.92616  1.0000
  H   H150      1.0  0.19631  0.05560  0.49594  1.0000
  C   C168      1.0  0.25301  0.00745  0.62521  1.0000
  N   N12       1.0  0.36145  0.05146  0.74886  1.0000
  C   C169      1.0  0.35534  0.05018  0.73868  1.0000
  C   C170      1.0  0.35954  0.04266  0.76219  1.0000
  C   C171      1.0  0.34731  0.03970  0.74166  1.0000
  C   C172      1.0  0.35172  0.03195  0.76548  1.0000
  C   C173      1.0  0.34558  0.03048  0.75512  1.0000
  C   C174      1.0  0.36952  0.06272  0.74576  1.0000
  H   H151      1.0  0.35684  0.05711  0.72807  1.0000
  H   H152      1.0  0.36433  0.04371  0.77029  1.0000
  H   H153      1.0  0.34273  0.03857  0.73344  1.0000
  H   H154      1.0  0.35064  0.02474  0.77594  1.0000
  H   H155      1.0  0.33965  0.02211  0.75744  1.0000
  H   H156      1.0  0.36228  0.07221  0.74975  1.0000
  H   H157      1.0  0.37894  0.05880  0.75100  1.0000
  H   H158      1.0  0.37399  0.06605  0.73411  1.0000
  N   N13       1.0  0.15991  0.09948  0.60826  1.0000
  C   C175      1.0  0.15687  0.10319  0.59498  1.0000
  C   C176      1.0  0.15090  0.10600  0.61892  1.0000
  C   C177      1.0  0.14470  0.11390  0.59202  1.0000
  C   C178      1.0  0.13868  0.11680  0.61629  1.0000
  C   C179      1.0  0.13557  0.12072  0.60276  1.0000
  C   C180      1.0  0.17268  0.08816  0.61111  1.0000
  H   H159      1.0  0.16395  0.09793  0.58657  1.0000
  H   H160      1.0  0.15338  0.10324  0.62940  1.0000
  H   H161      1.0  0.14239  0.11702  0.58142  1.0000
  H   H162      1.0  0.13188  0.12236  0.62460  1.0000
  H   H163      1.0  0.12616  0.12912  0.60055  1.0000
  H   H164      1.0  0.17025  0.07745  0.61303  1.0000
  H   H165      1.0  0.18203  0.08914  0.60183  1.0000
  H   H166      1.0  0.17624  0.08888  0.62046  1.0000
  C   C181      1.0  0.28350  0.06128  0.58482  1.0000
  H   H167      1.0  0.13540  0.06357  0.54801  1.0000
  C   C182      1.0  0.12759  0.07074  0.57345  1.0000
  H   H168      1.0  0.24836  0.02333  0.63752  1.0000
  C   C183      1.0  0.17727  0.16577  0.59123  1.0000
  N   N14       1.0  0.45085  0.04689  0.74769  1.0000
  C   C184      1.0  0.44767  0.03903  0.76137  1.0000
  C   C185      1.0  0.44780  0.04339  0.73672  1.0000
  C   C186      1.0  0.44133  0.02728  0.76433  1.0000
  C   C187      1.0  0.44149  0.03168  0.73930  1.0000
  C   C188      1.0  0.43819  0.02363  0.75322  1.0000
  C   C189      1.0  0.45672  0.05967  0.74481  1.0000
  H   H169      1.0  0.44949  0.04216  0.77017  1.0000
  H   H170      1.0  0.45002  0.04977  0.72591  1.0000
  H   H171      1.0  0.38129  0.00412  0.69883  1.0000
  H   H172      1.0  0.43893  0.02907  0.73059  1.0000
  H   H173      1.0  0.43288  0.01480  0.75546  1.0000
  H   H174      1.0  0.46092  0.05997  0.75393  1.0000
  H   H175      1.0  0.46581  0.05996  0.73521  1.0000
  H   H176      1.0  0.07418  0.17730  0.56338  1.0000
  H   H177      1.0  0.42061  0.05001  0.84674  1.0000
  S   S76       1.0  0.46701  0.16167  0.89103  1.0000
  C   C190      1.0  0.11216  0.09133  0.56075  1.0000
  Fe  Fe40      1.0  0.46132  0.15032  0.85891  1.0000
  C   C191      1.0  0.46285  0.14825  0.92750  1.0000
  C   C192      1.0  0.49260  0.09389  0.81443  1.0000
  H   H178      1.0  0.27959  0.01199  0.65192  1.0000
  C   C193      1.0  0.12756  0.07367  0.54818  1.0000
  H   H179      1.0  0.10737  0.09952  0.52677  1.0000
  C   C194      1.0  0.43861  0.13011  0.84571  1.0000
  C   C195      1.0  0.15149  0.18121  0.53683  1.0000
  H   H180      1.0  0.16166  0.10145  0.49845  1.0000
  S   S77       1.0  0.44445  0.15051  0.87949  1.0000
  H   H181      1.0  0.42892  0.03173  0.86720  1.0000
  N   N15       1.0  0.18934  0.15547  0.58461  1.0000
  C   C196      1.0  0.19841  0.14568  0.59270  1.0000
  C   C197      1.0  0.19101  0.15518  0.57062  1.0000
  C   C198      1.0  0.20970  0.13542  0.58674  1.0000
  C   C199      1.0  0.20225  0.14513  0.56429  1.0000
  C   C200      1.0  0.21167  0.13523  0.57241  1.0000
  H   H182      1.0  0.19671  0.14550  0.60396  1.0000
  H   H183      1.0  0.18365  0.16273  0.56426  1.0000
  H   H184      1.0  0.21665  0.12748  0.59332  1.0000
  H   H185      1.0  0.20358  0.14500  0.55317  1.0000
  H   H186      1.0  0.22038  0.12731  0.56764  1.0000
  C   C201      1.0  0.10681  0.09909  0.54857  1.0000
  H   H187      1.0  0.28846  0.08743  0.58914  1.0000
  C   C202      1.0  0.10060  0.14666  0.50514  1.0000
  H   H188      1.0  0.44796  0.06947  0.74310  1.0000
  C   C203      1.0  0.47698  0.13637  0.79555  1.0000
  Fe  Fe41      1.0  0.44963  0.17152  0.87857  1.0000
  S   S78       1.0  0.46299  0.14167  0.83955  1.0000
  C   C204      1.0  0.20542  0.03121  0.53876  1.0000
  C   C205      1.0  0.12240  0.08114  0.53583  1.0000
  H   H189      1.0  0.26811  0.07970  0.55104  1.0000
  H   H190      1.0  0.20294  0.08083  0.53001  1.0000
  H   H191      1.0  0.22426  0.05383  0.54128  1.0000
  S   S79       1.0  0.24562  0.10552  0.48901  1.0000
  H   H192      1.0  0.12617  0.07682  0.52628  1.0000
  H   H193      1.0  0.15747  0.07379  0.52358  1.0000
  C   C206      1.0  0.46285  0.14269  0.80187  1.0000
  H   H194      1.0  0.39129  0.01792  0.67453  1.0000
  C   C207      1.0  0.20008  0.07436  0.54103  1.0000
  C   C208      1.0  0.02449  0.06473  0.53991  1.0000
  S   S80       1.0  0.43665  0.99909  0.59497  1.0000
  C   C209      1.0  0.14954  0.00175  0.50157  1.0000
  H   H195      1.0  0.49322  0.05444  0.80246  1.0000
  S   S81       1.0  0.16732  0.00124  0.54836  1.0000
  H   H196      1.0  0.14261  0.17776  0.54513  1.0000
  N   N16       1.0  0.27794  0.07575  0.58201  1.0000
  H   H197      1.0  0.47401  0.03947  0.62825  1.0000
  H   H198      1.0  0.48102  0.09760  0.92579  1.0000
  S   S82       1.0  0.32969  0.00119  0.69309  1.0000
  C   C210      1.0  0.45305  0.12790  0.79386  1.0000
  S   S83       1.0  0.13192  0.01383  0.55079  1.0000
  C   C211      1.0  0.21515  0.05019  0.54053  1.0000
  H   H199      1.0  0.47548  0.09279  0.80579  1.0000
  Fe  Fe42      1.0  0.14312  0.17822  0.57464  1.0000
  H   H200      1.0  0.49154  0.17146  0.89160  1.0000
  C   C212      1.0  0.37303  0.01454  0.65190  1.0000
  H   H201      1.0  0.05582  0.17262  0.55182  1.0000
  H   H202      1.0  0.42199  0.07537  0.84328  1.0000
  H   H203      1.0  0.26868  0.09393  0.56741  1.0000
  C   C213      1.0  0.09278  0.16092  0.50346  1.0000
  H   H204      1.0  0.46136  0.15076  0.80786  1.0000
  H   H205      1.0  0.20661  0.02010  0.53854  1.0000
  C   C214      1.0  0.48728  0.02519  0.66352  1.0000
  C   C215      1.0  0.24471  0.10492  0.50699  1.0000
  N   N17       1.0  0.43654  0.06071  0.87244  1.0000
  C   C216      1.0  0.43165  0.07093  0.86139  1.0000
  C   C217      1.0  0.43513  0.04689  0.87486  1.0000
  C   C218      1.0  0.27252  0.07441  0.56049  1.0000
  C   C219      1.0  0.42932  0.04285  0.86571  1.0000
  H   H206      1.0  0.14433  0.17756  0.51980  1.0000
  C   C220      1.0  0.44292  0.06466  0.88200  1.0000
  H   H207      1.0  0.43255  0.08197  0.85951  1.0000
  H   H208      1.0  0.43911  0.03875  0.88354  1.0000
  N   N18       1.0  0.26557  0.00575  0.64326  1.0000
  H   H209      1.0  0.27610  0.07787  0.60313  1.0000
  S   S84       1.0  0.12450  0.18277  0.49607  1.0000
  H   H210      1.0  0.44843  0.07367  0.87628  1.0000
  H   H211      1.0  0.43430  0.06786  0.89117  1.0000
  H   H212      1.0  0.45135  0.05551  0.88614  1.0000
  H   H213      1.0  0.24499  0.01351  0.61889  1.0000
  C   C221      1.0  0.16114  0.10514  0.48726  1.0000
  H   H214      1.0  0.06093  0.15594  0.54650  1.0000
  C   C222      1.0  0.18534  0.05542  0.50199  1.0000
  H   H215      1.0  0.11841  0.16575  0.54085  1.0000
  C   C223      1.0  0.27287  0.08240  0.56982  1.0000
  H   H216      1.0  0.38662  0.02883  0.65030  1.0000
  C   C224      1.0  0.36703  0.00304  0.66056  1.0000
  H   H217      1.0  0.04675  0.08117  0.55471  1.0000
  H   H218      1.0  0.48994  0.12050  0.78346  1.0000
  N   N19       1.0  0.45114  0.13826  0.80117  1.0000
  H   H219      1.0  0.43175  0.15431  0.80015  1.0000
  H   H220      1.0  0.26171  0.02301  0.65373  1.0000
  H   H221      1.0  0.14224  0.00654  0.51060  1.0000
  C   C225      1.0  0.17920  0.04399  0.50288  1.0000
  H   H222      1.0  0.09846  0.16959  0.49946  1.0000
  C   C226      1.0  0.03652  0.06987  0.53078  1.0000
  C   C227      1.0  0.00889  0.10442  0.54251  1.0000
  H   H223      1.0  0.14246  0.99969  0.49578  1.0000
  C   C228      1.0  0.08221  0.17142  0.55591  1.0000
  H   H224      1.0  0.21047  0.14527  0.49255  1.0000
  C   C229      1.0  0.43642  0.14496  0.80790  1.0000
  H   H225      1.0  0.05995  0.15600  0.56471  1.0000
  S   S85       1.0  0.47955  0.13891  0.86998  1.0000
  Fe  Fe43      1.0  0.46321  0.14086  0.89024  1.0000
  H   H226      1.0  0.02513  0.07236  0.57037  1.0000
  Fe  Fe44      1.0  0.11386  0.18422  0.59505  1.0000
  H   H227      1.0  0.09854  0.10891  0.54886  1.0000
  H   H228      1.0  0.16785  0.16071  0.59676  1.0000
  H   H229      1.0  0.14368  0.12325  0.49069  1.0000
  C   C230      1.0  0.16352  0.06552  0.51776  1.0000
  H   H230      1.0  0.43299  0.13790  0.85222  1.0000
  C   C231      1.0  0.07754  0.16396  0.50768  1.0000
  Fe  Fe45      1.0  0.14668  0.99523  0.56210  1.0000
  S   S86       1.0  0.12036  0.18156  0.57226  1.0000
  C   C232      1.0  0.48695  0.09147  0.80425  1.0000
  C   C233      1.0  0.04049  0.07663  0.55048  1.0000
  H   H231      1.0  0.27707  0.05319  0.55665  1.0000
  H   H232      1.0  0.10099  0.18957  0.63636  1.0000
  H   H233      1.0  0.07887  0.18748  0.63203  1.0000
  H   H234      1.0  0.49464  0.01743  0.83732  1.0000
  C   C234      1.0  0.47190  0.00756  0.67182  1.0000
  H   H235      1.0  0.49636  0.09377  0.87729  1.0000
  C   C235      1.0  0.11189  0.09388  0.53609  1.0000
  H   H236      1.0  0.43838  0.02137  0.77525  1.0000
  C   C236      1.0  0.42567  0.06727  0.85213  1.0000
  H   H237      1.0  0.42920  0.13718  0.81178  1.0000
  Fe  Fe46      1.0  0.49944  0.01232  0.88383  1.0000
  S   S87       1.0  0.14613  0.00603  0.57924  1.0000
  Fe  Fe47      1.0  0.48232  0.16039  0.86990  1.0000
  C   C237      1.0  0.21710  0.03593  0.53977  1.0000
  H   H238      1.0  0.47304  0.18857  0.90976  1.0000
  N   N20       1.0  0.12235  0.07875  0.56045  1.0000
  H   H239      1.0  0.26893  0.09394  0.59151  1.0000
  H   H240      1.0  0.46857  0.11301  0.78173  1.0000
  S   S88       1.0  0.46530  0.17214  0.85704  1.0000
  H   H241      1.0  0.03951  0.06932  0.51961  1.0000
  N   N21       1.0  0.20184  0.05938  0.54057  1.0000
  C   C238      1.0  0.19201  0.04075  0.53843  1.0000
  H   H242      1.0  0.18868  0.07897  0.54599  1.0000
  C   C239      1.0  0.10712  0.16501  0.54327  1.0000
  H   H243      1.0  0.09506  0.18474  0.65561  1.0000
  C   C240      1.0  0.49298  0.03523  0.81919  1.0000
  C   C241      1.0  0.42470  0.05310  0.85419  1.0000
  S   S89       1.0  0.42393  0.01136  0.62959  1.0000
  C   C242      1.0  0.19038  0.05484  0.53947  1.0000
  H   H244      1.0  0.28710  0.04139  0.57838  1.0000
  Fe  Fe48      1.0  0.44179  0.01829  0.63379  1.0000
  C   C243      1.0  0.46752  0.18573  0.92120  1.0000
  H   H245      1.0  0.50151  0.17404  0.91078  1.0000
  Fe  Fe49      1.0  0.12806  0.16210  0.48945  1.0000
  C   C244      1.0  0.47903  0.12569  0.78821  1.0000
  S   S90       1.0  0.48853  0.08214  0.78085  1.0000
  H   H246      1.0  0.26472  0.00513  0.66488  1.0000
  C   C245      1.0  0.50200  0.10205  0.92312  1.0000
  C   C246      1.0  0.47794  0.03550  0.63807  1.0000
  H   H247      1.0  0.44396  0.14180  0.92676  1.0000
  H   H248      1.0  0.18288  0.03715  0.53767  1.0000
  S   S91       1.0  0.45968  0.00749  0.61813  1.0000
  N   N22       1.0  0.07828  0.16275  0.54990  1.0000
  C   C247      1.0  0.49261  0.03646  0.65332  1.0000
  H   H249      1.0  0.28777  0.05603  0.59435  1.0000
  C   C248      1.0  0.26792  0.01175  0.65402  1.0000
  N   N23       1.0  0.02046  0.06572  0.55393  1.0000
  H   H250      1.0  0.48876  0.13715  0.89694  1.0000
  C   C249      1.0  0.50113  0.10915  0.85745  1.0000
  Fe  Fe50      1.0  0.33775  0.00264  0.64090  1.0000
  H   H251      1.0  0.44377  0.12432  0.79337  1.0000
  S   S92       1.0  0.31681  0.00333  0.63549  1.0000
  C   C250      1.0  0.15246  0.18108  0.52251  1.0000
  H   H252      1.0  0.01082  0.09696  0.52367  1.0000
  C   C251      1.0  0.47295  0.02417  0.64844  1.0000
  C   C252      1.0  0.46893  0.15990  0.92589  1.0000
  C   C253      1.0  0.17351  0.19024  0.52953  1.0000
  C   C254      1.0  0.16198  0.18592  0.54031  1.0000
  H   H253      1.0  0.46525  0.01948  0.64642  1.0000
  H   H254      1.0  0.42941  0.16691  0.92200  1.0000
  H   H255      1.0  0.17987  0.06214  0.53940  1.0000
  S   S93       1.0  0.00652  0.11312  0.56700  1.0000
  H   H256      1.0  0.15584  0.00973  0.49438  1.0000
  H   H257      1.0  0.46160  0.01221  0.67872  1.0000
  S   S94       1.0  0.11957  0.14259  0.50189  1.0000
  C   C255      1.0  0.28329  0.05295  0.57574  1.0000
  H   H258      1.0  0.34200  0.99736  0.71694  1.0000
  H   H259      1.0  0.37089  0.01921  0.64128  1.0000
  C   C256      1.0  0.38435  0.01377  0.67070  1.0000
  H   H260      1.0  0.07150  0.17494  0.50711  1.0000
  H   H261      1.0  0.47561  0.18308  0.92790  1.0000
  H   H262      1.0  0.08549  0.14788  0.53628  1.0000
  H   H263      1.0  0.11116  0.14981  0.53020  1.0000
  C   C257      1.0  0.02832  0.07152  0.55928  1.0000
  S   S95       1.0  0.43122  0.18908  0.88641  1.0000
  C   C258      1.0  0.49604  0.08748  0.79193  1.0000
  H   H264      1.0  0.44029  0.18700  0.92029  1.0000
  C   C259      1.0  0.48792  0.04160  0.64051  1.0000
  S   S96       1.0  0.16123  0.18650  0.55794  1.0000
  C   C260      1.0  0.17456  0.18998  0.51535  1.0000
  H   H265      1.0  0.17373  0.17548  0.58315  1.0000
  Fe  Fe51      1.0  0.20584  0.08106  0.49244  1.0000
  S   S97       1.0  0.44480  0.00005  0.65256  1.0000
  H   H266      1.0  0.36016  0.99883  0.65673  1.0000
  H   H267      1.0  0.46975  0.99997  0.66677  1.0000
  S   S98       1.0  0.16606  0.18547  0.49372  1.0000
  C   C261      1.0  0.16403  0.18552  0.51176  1.0000
  C   C262      1.0  0.49471  0.99776  0.63328  1.0000
  H   H268      1.0  0.49515  0.10542  0.85213  1.0000
  C   C263      1.0  0.49751  0.02764  0.83178  1.0000
  H   H269      1.0  0.01202  0.04860  0.56890  1.0000
  Fe  Fe52      1.0  0.44199  0.99885  0.61543  1.0000
  H   H270      1.0  0.16236  0.99697  0.52299  1.0000
  H   H271      1.0  0.48862  0.00050  0.62506  1.0000
  C   C264      1.0  0.00813  0.05986  0.56346  1.0000
  C   C265      1.0  0.50187  0.10245  0.87164  1.0000
  C   C266      1.0  0.38182  0.99580  0.69319  1.0000
  Fe  Fe53      1.0  0.14836  0.18111  0.48652  1.0000
  C   C267      1.0  0.26172  0.99433  0.62256  1.0000
  C   C268      1.0  0.00484  0.09727  0.53452  1.0000
  H   H272      1.0  0.39209  0.99452  0.62222  1.0000
  H   H273      1.0  0.49708  0.12541  0.83304  1.0000
  H   H274      1.0  0.00232  0.13641  0.58284  1.0000
  Fe  Fe54      1.0  0.42867  0.99198  0.64684  1.0000
  H   H275      1.0  0.44513  0.21148  0.05729  1.0000
  H   H276      1.0  0.42372  0.19528  0.13444  1.0000
  C   C269      1.0  0.31826  0.29320  0.06215  1.0000
  S   S99       1.0  0.43854  0.21379  0.10735  1.0000
  C   C270      1.0  0.00367  0.33285  0.48504  1.0000
  H   H277      1.0  0.01517  0.24308  0.41178  1.0000
  Fe  Fe55      1.0  0.37231  0.25534  0.03664  1.0000
  S   S100      1.0  0.36486  0.27760  0.04031  1.0000
  C   C271      1.0  0.49129  0.37802  0.99617  1.0000
  Fe  Fe56      1.0  0.40081  0.24984  0.04578  1.0000
  S   S101      1.0  0.39616  0.27189  0.04991  1.0000
  Fe  Fe57      1.0  0.37361  0.26821  0.06011  1.0000
  S   S102      1.0  0.36117  0.27292  0.08138  1.0000
  Fe  Fe58      1.0  0.38771  0.27949  0.02973  1.0000
  S   S103      1.0  0.39088  0.29859  0.01184  1.0000
  S   S104      1.0  0.37891  0.24551  0.05757  1.0000
  S   S105      1.0  0.39469  0.25784  0.02449  1.0000
  N   N24       1.0  0.38876  0.35613  0.01967  1.0000
  Fe  Fe59      1.0  0.29425  0.34503  0.04093  1.0000
  S   S106      1.0  0.31749  0.33593  0.04215  1.0000
  S   S107      1.0  0.28244  0.33166  0.03566  1.0000
  Fe  Fe60      1.0  0.29293  0.37258  0.04923  1.0000
  S   S108      1.0  0.31643  0.36612  0.05050  1.0000
  H   H278      1.0  0.48636  0.38639  0.98819  1.0000
  Fe  Fe61      1.0  0.32038  0.35802  0.03067  1.0000
  S   S109      1.0  0.33892  0.35937  0.01158  1.0000
  Fe  Fe62      1.0  0.31148  0.34464  0.06184  1.0000
  S   S110      1.0  0.31819  0.33334  0.08249  1.0000
  S   S111      1.0  0.29739  0.36670  0.02800  1.0000
  S   S112      1.0  0.28770  0.35153  0.06199  1.0000
  H   H279      1.0  0.35567  0.32983  0.99753  1.0000
  Fe  Fe63      1.0  0.44490  0.33532  0.00572  1.0000
  C   C272      1.0  0.29545  0.35275  0.10820  1.0000
  S   S113      1.0  0.42668  0.33436  0.02515  1.0000
  H   H280      1.0  0.31626  0.29873  0.07069  1.0000
  N   N25       1.0  0.43396  0.27887  0.02797  1.0000
  C   C273      1.0  0.26130  0.38325  0.09576  1.0000
  N   N26       1.0  0.41337  0.22613  0.00199  1.0000
  C   C274      1.0  0.05038  0.22442  0.45554  1.0000
  H   H281      1.0  0.07688  0.19526  0.46236  1.0000
  S   S114      1.0  0.46613  0.34042  0.00410  1.0000
  N   N27       1.0  0.31404  0.29261  0.03979  1.0000
  H   H282      1.0  0.47338  0.36750  0.00324  1.0000
  H   H283      1.0  0.04414  0.23029  0.44748  1.0000
  C   C275      1.0  0.05572  0.22227  0.47826  1.0000
  S   S115      1.0  0.35797  0.24599  0.02952  1.0000
  H   H284      1.0  0.10666  0.26972  0.37994  1.0000
  C   C276      1.0  0.43186  0.28867  0.01563  1.0000
  H   H285      1.0  0.00549  0.33736  0.47361  1.0000
  H   H286      1.0  0.09398  0.37730  0.28395  1.0000
  C   C277      1.0  0.06851  0.20482  0.46390  1.0000
  H   H287      1.0  0.05594  0.20009  0.44197  1.0000
  H   H288      1.0  0.33798  0.26254  0.05145  1.0000
  C   C278      1.0  0.40403  0.22064  0.99828  1.0000
  S   S116      1.0  0.49194  0.19574  0.14080  1.0000
  S   S117      1.0  0.49692  0.30765  0.99873  1.0000
  C   C279      1.0  0.10519  0.25503  0.40950  1.0000
  C   C280      1.0  0.38145  0.35011  0.01395  1.0000
  H   H289      1.0  0.36653  0.33630  0.01825  1.0000
  H   H290      1.0  0.01417  0.35627  0.31359  1.0000
  C   C281      1.0  0.30284  0.37166  0.08797  1.0000
  S   S118      1.0  0.08215  0.37424  0.26157  1.0000
  H   H291      1.0  0.07269  0.20409  0.48419  1.0000
  C   C282      1.0  0.06614  0.20974  0.47633  1.0000
  C   C283      1.0  0.27147  0.33223  0.99955  1.0000
  Fe  Fe64      1.0  0.06755  0.33931  0.30933  1.0000
  S   S119      1.0  0.06563  0.34143  0.28696  1.0000
  S   S120      1.0  0.07845  0.31755  0.32025  1.0000
  Fe  Fe65      1.0  0.04981  0.36918  0.31037  1.0000
  S   S121      1.0  0.04592  0.37359  0.28836  1.0000
  C   C284      1.0  0.00489  0.36592  0.35068  1.0000
  Fe  Fe66      1.0  0.04223  0.35125  0.29475  1.0000
  S   S122      1.0  0.02529  0.34436  0.28859  1.0000
  Fe  Fe67      1.0  0.06967  0.36351  0.28266  1.0000
  H   H292      1.0  0.04879  0.31685  0.31285  1.0000
  S   S123      1.0  0.04382  0.34775  0.31746  1.0000
  S   S124      1.0  0.07383  0.36051  0.30438  1.0000
  Fe  Fe68      1.0  0.06584  0.24766  0.40787  1.0000
  S   S125      1.0  0.06104  0.26626  0.41810  1.0000
  S   S126      1.0  0.08611  0.23030  0.40964  1.0000
  Fe  Fe69      1.0  0.03826  0.25871  0.39621  1.0000
  S   S127      1.0  0.03132  0.27801  0.40573  1.0000
  S   S128      1.0  0.02411  0.25795  0.38240  1.0000
  Fe  Fe70      1.0  0.05466  0.27953  0.39774  1.0000
  S   S129      1.0  0.06036  0.30104  0.38775  1.0000
  Fe  Fe71      1.0  0.03841  0.26268  0.42492  1.0000
  S   S130      1.0  0.02530  0.26205  0.44725  1.0000
  S   S131      1.0  0.06126  0.26123  0.38679  1.0000
  S   S132      1.0  0.04352  0.24308  0.41612  1.0000
  H   H293      1.0  0.26322  0.32879  0.99691  1.0000
  H   H294      1.0  0.28271  0.37528  0.12059  1.0000
  C   C285      1.0  0.02400  0.29094  0.43986  1.0000
  H   H295      1.0  0.38241  0.21152  0.03107  1.0000
  C   C286      1.0  0.09849  0.38376  0.27391  1.0000
  H   H296      1.0  0.11214  0.24422  0.42924  1.0000
  C   C287      1.0  0.09159  0.27904  0.40811  1.0000
  H   H297      1.0  0.03323  0.28878  0.43121  1.0000
  H   H298      1.0  0.02244  0.31380  0.43394  1.0000
  H   H299      1.0  0.30669  0.34638  0.10855  1.0000
  H   H300      1.0  0.41269  0.20287  0.11313  1.0000
  C   C288      1.0  0.03835  0.28847  0.36037  1.0000
  H   H301      1.0  0.30369  0.30971  0.05061  1.0000
  N   N28       1.0  0.06084  0.21229  0.45358  1.0000
  C   C289      1.0  0.42992  0.27019  0.00552  1.0000
  H   H302      1.0  0.29472  0.30102  0.03186  1.0000
  C   C290      1.0  0.00808  0.25208  0.39198  1.0000
  H   H303      1.0  0.41580  0.19769  0.08958  1.0000
  C   C291      1.0  0.00582  0.30803  0.45244  1.0000
  H   H304      1.0  0.36135  0.22655  0.98866  1.0000
  H   H305      1.0  0.10995  0.24570  0.40480  1.0000
  H   H306      1.0  0.08741  0.28768  0.42676  1.0000
  C   C292      1.0  0.48401  0.36731  0.00459  1.0000
  H   H307      1.0  0.00635  0.37110  0.27460  1.0000
  N   N29       1.0  0.09764  0.26730  0.40218  1.0000
  C   C293      1.0  0.32348  0.27951  0.04000  1.0000
  H   H308      1.0  0.40629  0.31974  0.99385  1.0000
  C   C294      1.0  0.32791  0.27987  0.06244  1.0000
  N   N30       1.0  0.29569  0.36789  0.10187  1.0000
  H   H309      1.0  0.21650  0.39095  0.09031  1.0000
  C   C295      1.0  0.07362  0.31322  0.33899  1.0000
  C   C296      1.0  0.07603  0.29877  0.34613  1.0000
  C   C297      1.0  0.07174  0.29493  0.36106  1.0000
  C   C298      1.0  0.06538  0.30555  0.36897  1.0000
  C   C299      1.0  0.06310  0.32003  0.36183  1.0000
  C   C300      1.0  0.06701  0.32387  0.34684  1.0000
  H   H310      1.0  0.08110  0.29052  0.34007  1.0000
  H   H311      1.0  0.07356  0.28377  0.36638  1.0000
  H   H312      1.0  0.05826  0.32829  0.36791  1.0000
  H   H313      1.0  0.06519  0.33505  0.34137  1.0000
  H   H314      1.0  0.44250  0.27537  0.04636  1.0000
  S   S133      1.0  0.45499  0.31533  0.99731  1.0000
  C   C301      1.0  0.36408  0.24494  0.01148  1.0000
  C   C302      1.0  0.49067  0.35623  0.01442  1.0000
  H   H315      1.0  0.40971  0.35931  0.00805  1.0000
  H   H316      1.0  0.33353  0.27500  0.07116  1.0000
  C   C303      1.0  0.01793  0.30510  0.44144  1.0000
  H   H317      1.0  0.04345  0.26792  0.35495  1.0000
  H   H318      1.0  0.43554  0.25700  0.03919  1.0000
  C   C304      1.0  0.09932  0.21737  0.45268  1.0000
  S   S134      1.0  0.10343  0.21214  0.46966  1.0000
  C   C305      1.0  0.10286  0.21389  0.42874  1.0000
  C   C306      1.0  0.09112  0.22542  0.42623  1.0000
  C   C307      1.0  0.08358  0.23295  0.43695  1.0000
  C   C308      1.0  0.08781  0.22908  0.45004  1.0000
  C   C309      1.0  0.33044  0.27290  0.05138  1.0000
  C   C310      1.0  0.39139  0.21520  0.02298  1.0000
  H   H319      1.0  0.07445  0.24173  0.43526  1.0000
  H   H320      1.0  0.08193  0.23498  0.45828  1.0000
  C   C311      1.0  0.00537  0.35349  0.31129  1.0000
  C   C312      1.0  0.39299  0.21499  0.00872  1.0000
  H   H321      1.0  0.39402  0.35720  0.03856  1.0000
  C   C313      1.0  0.36500  0.23383  0.99243  1.0000
  H   H322      1.0  0.31358  0.37104  0.99756  1.0000
  C   C314      1.0  0.40118  0.22051  0.02671  1.0000
  H   H323      1.0  0.30917  0.31033  0.02284  1.0000
  H   H324      1.0  0.40005  0.22080  0.03776  1.0000
  H   H325      1.0  0.38239  0.35252  0.00251  1.0000
  H   H326      1.0  0.48509  0.34773  0.02066  1.0000
  C   C315      1.0  0.26857  0.38241  0.08165  1.0000
  C   C316      1.0  0.38056  0.25019  0.98843  1.0000
  C   C317      1.0  0.35916  0.38373  0.02229  1.0000
  H   H327      1.0  0.30831  0.36351  0.08182  1.0000
  S   S135      1.0  0.48103  0.19705  0.10533  1.0000
  S   S136      1.0  0.42140  0.23273  0.04709  1.0000
  C   C318      1.0  0.04773  0.22964  0.46784  1.0000
  C   C319      1.0  0.36594  0.39071  0.00885  1.0000
  C   C320      1.0  0.43414  0.26478  0.02931  1.0000
  H   H328      1.0  0.03473  0.31020  0.36247  1.0000
  C   C321      1.0  0.41223  0.22590  0.01602  1.0000
  H   H329      1.0  0.39794  0.37432  0.01535  1.0000
  H   H330      1.0  0.02125  0.37712  0.31300  1.0000
  H   H331      1.0  0.10068  0.26520  0.44046  1.0000
  H   H332      1.0  0.43930  0.29364  0.03655  1.0000
  C   C322      1.0  0.35907  0.23591  0.00640  1.0000
  Fe  Fe72      1.0  0.12175  0.19288  0.47350  1.0000
  C   C323      1.0  0.30671  0.29955  0.02789  1.0000
  C   C324      1.0  0.37110  0.33779  0.03755  1.0000
  H   H333      1.0  0.06212  0.21611  0.43121  1.0000
  H   H334      1.0  0.11584  0.20076  0.44392  1.0000
  C   C325      1.0  0.31560  0.38008  0.98880  1.0000
  C   C326      1.0  0.03782  0.30310  0.35512  1.0000
  H   H335      1.0  0.43166  0.29982  0.01457  1.0000
  H   H336      1.0  0.36055  0.38569  0.03188  1.0000
  C   C327      1.0  0.00632  0.28256  0.46075  1.0000
  C   C328      1.0  0.37247  0.34090  0.02280  1.0000
  H   H337      1.0  0.07493  0.20090  0.43786  1.0000
  H   H338      1.0  0.26016  0.37352  0.10381  1.0000
  H   H339      1.0  0.27286  0.37208  0.07890  1.0000
  C   C329      1.0  0.34901  0.37155  0.01086  1.0000
  C   C330      1.0  0.35593  0.37840  0.99751  1.0000
  S   S137      1.0  0.04107  0.38644  0.32280  1.0000
  C   C331      1.0  0.10000  0.26590  0.42962  1.0000
  H   H340      1.0  0.42820  0.26688  0.99678  1.0000
  C   C332      1.0  0.35051  0.37427  0.02330  1.0000
  C   C333      1.0  0.39833  0.36557  0.01028  1.0000
  C   C334      1.0  0.10689  0.20979  0.44199  1.0000
  Fe  Fe73      1.0  0.47608  0.32190  0.99345  1.0000
  H   H341      1.0  0.34540  0.36878  0.03366  1.0000
  H   H342      1.0  0.08564  0.28882  0.40227  1.0000
  H   H343      1.0  0.02827  0.36282  0.34669  1.0000
  C   C335      1.0  0.27197  0.33004  0.01387  1.0000
  C   C336      1.0  0.28236  0.33468  0.01746  1.0000
  C   C337      1.0  0.29257  0.34126  0.00657  1.0000
  H   H344      1.0  0.09421  0.25772  0.38723  1.0000
  H   H345      1.0  0.35088  0.23023  0.01338  1.0000
  H   H346      1.0  0.26410  0.32492  0.02221  1.0000
  H   H347      1.0  0.30075  0.34471  0.00927  1.0000
  H   H348      1.0  0.39488  0.37089  0.00004  1.0000
  C   C338      1.0  0.39900  0.30991  0.01597  1.0000
  C   C339      1.0  0.40629  0.31918  0.00482  1.0000
  C   C340      1.0  0.41441  0.32705  0.00775  1.0000
  C   C341      1.0  0.41502  0.32591  0.02184  1.0000
  C   C342      1.0  0.40711  0.31720  0.03308  1.0000
  C   C343      1.0  0.39914  0.30912  0.03013  1.0000
  C   C344      1.0  0.01779  0.36810  0.35220  1.0000
  H   H349      1.0  0.42046  0.33371  0.99902  1.0000
  H   H350      1.0  0.40753  0.31634  0.04400  1.0000
  H   H351      1.0  0.39321  0.30223  0.03879  1.0000
  C   C345      1.0  0.34992  0.29008  0.08126  1.0000
  C   C346      1.0  0.34127  0.29324  0.09421  1.0000
  C   C347      1.0  0.33176  0.30664  0.09448  1.0000
  C   C348      1.0  0.33070  0.31691  0.08178  1.0000
  C   C349      1.0  0.33949  0.31388  0.06879  1.0000
  C   C350      1.0  0.34915  0.30047  0.06853  1.0000
  H   H352      1.0  0.34188  0.28526  0.10406  1.0000
  H   H353      1.0  0.32505  0.30894  0.10455  1.0000
  H   H354      1.0  0.33898  0.32190  0.05900  1.0000
  H   H355      1.0  0.35597  0.29819  0.05853  1.0000
  H   H356      1.0  0.28859  0.35113  0.11920  1.0000
  C   C351      1.0  0.37450  0.25240  0.00232  1.0000
  H   H357      1.0  0.43206  0.23560  0.99502  1.0000
  C   C352      1.0  0.10648  0.25413  0.42332  1.0000
  H   H358      1.0  0.36419  0.33063  0.04452  1.0000
  H   H359      1.0  0.37789  0.25992  0.00590  1.0000
  C   C353      1.0  0.01528  0.38609  0.31781  1.0000
  C   C354      1.0  0.43422  0.21897  0.09041  1.0000
  C   C355      1.0  0.44258  0.21232  0.07923  1.0000
  C   C356      1.0  0.43857  0.21657  0.06595  1.0000
  C   C357      1.0  0.42618  0.22743  0.06383  1.0000
  C   C358      1.0  0.41776  0.23397  0.07506  1.0000
  C   C359      1.0  0.42179  0.22975  0.08829  1.0000
  H   H360      1.0  0.31012  0.29324  0.01948  1.0000
  C   C360      1.0  0.28873  0.37815  0.10968  1.0000
  H   H361      1.0  0.40816  0.24231  0.07356  1.0000
  H   H362      1.0  0.41525  0.23491  0.09692  1.0000
  H   H363      1.0  0.04190  0.31970  0.33645  1.0000
  S   S138      1.0  0.14538  0.19295  0.46446  1.0000
  C   C361      1.0  0.37882  0.34375  0.04327  1.0000
  C   C362      1.0  0.00794  0.34712  0.29980  1.0000
  H   H364      1.0  0.41962  0.23020  0.01903  1.0000
  H   H365      1.0  0.38089  0.31834  0.98763  1.0000
  C   C363      1.0  0.42962  0.28453  0.00432  1.0000
  C   C364      1.0  0.01816  0.27968  0.44950  1.0000
  C   C365      1.0  0.28157  0.33879  0.98862  1.0000
  C   C366      1.0  0.31129  0.29939  0.05073  1.0000
  C   C367      1.0  0.05095  0.30494  0.31571  1.0000
  C   C368      1.0  0.09256  0.27848  0.42196  1.0000
  C   C369      1.0  0.09642  0.26791  0.38773  1.0000
  H   H366      1.0  0.10876  0.20801  0.42048  1.0000
  H   H367      1.0  0.45215  0.20396  0.08079  1.0000
  H   H368      1.0  0.04504  0.30156  0.30969  1.0000
  C   C370      1.0  0.30286  0.38605  0.08139  1.0000
  H   H369      1.0  0.08731  0.27672  0.38452  1.0000
  H   H370      1.0  0.06286  0.30095  0.31212  1.0000
  H   H371      1.0  0.03961  0.23944  0.46915  1.0000
  C   C371      1.0  0.43235  0.26019  0.01803  1.0000
  H   H372      1.0  0.42408  0.28590  0.04725  1.0000
  C   C372      1.0  0.09496  0.38367  0.26133  1.0000
  H   H373      1.0  0.05078  0.27780  0.32891  1.0000
  H   H374      1.0  0.40475  0.22105  0.98713  1.0000
  H   H375      1.0  0.32579  0.27406  0.03134  1.0000
  H   H376      1.0  0.29106  0.34844  0.10156  1.0000
  H   H377      1.0  0.03536  0.28419  0.37178  1.0000
  C   C373      1.0  0.38776  0.35286  0.03411  1.0000
  H   H378      1.0  0.43264  0.24900  0.01911  1.0000
  H   H379      1.0  0.37806  0.34116  0.05471  1.0000
  C   C374      1.0  0.43503  0.28367  0.04014  1.0000
  N   N31       1.0  0.04638  0.29938  0.33113  1.0000
  C   C375      1.0  0.04702  0.28499  0.33621  1.0000
  C   C376      1.0  0.04190  0.30840  0.34038  1.0000
  C   C377      1.0  0.04297  0.27933  0.35089  1.0000
  H   H380      1.0  0.32422  0.38943  0.00056  1.0000
  Fe  Fe74      1.0  0.45759  0.19568  0.11197  1.0000
  C   C378      1.0  0.29226  0.34320  0.99211  1.0000
  C   C379      1.0  0.06354  0.20704  0.44056  1.0000
  H   H381      1.0  0.38534  0.21104  0.00566  1.0000
  C   C380      1.0  0.01710  0.37771  0.36030  1.0000
  H   H382      1.0  0.00554  0.35880  0.34398  1.0000
  C   C381      1.0  0.32181  0.39043  0.99035  1.0000
  C   C382      1.0  0.00651  0.24496  0.40637  1.0000
  H   H383      1.0  0.02703  0.37980  0.36118  1.0000
  H   H384      1.0  0.42747  0.29246  0.99474  1.0000
  C   C383      1.0  0.00358  0.38488  0.36689  1.0000
  H   H385      1.0  0.35466  0.37636  0.98795  1.0000
  C   C384      1.0  0.36419  0.38813  0.99649  1.0000
  C   C385      1.0  0.42414  0.23293  0.99071  1.0000
  H   H386      1.0  0.30803  0.38904  0.07018  1.0000
  C   C386      1.0  0.41729  0.19197  0.11169  1.0000
  H   H387      1.0  0.01987  0.38965  0.27191  1.0000
  C   C387      1.0  0.00850  0.39102  0.27740  1.0000
  H   H388      1.0  0.34241  0.33549  0.98678  1.0000
  C   C388      1.0  0.35415  0.33405  0.98639  1.0000
  S   S139      1.0  0.12621  0.38013  0.80936  1.0000
  H   H389      1.0  0.40534  0.24115  0.89294  1.0000
  C   C389      1.0  0.36715  0.31419  0.95682  1.0000
  H   H390      1.0  0.10067  0.20152  0.64685  1.0000
  H   H391      1.0  0.37907  0.28285  0.89781  1.0000
  H   H392      1.0  0.00892  0.32465  0.64994  1.0000
  S   S140      1.0  0.13289  0.37549  0.77032  1.0000
  H   H393      1.0  0.07438  0.37454  0.65547  1.0000
  C   C390      1.0  0.19203  0.36672  0.81652  1.0000
  H   H394      1.0  0.36314  0.31311  0.94820  1.0000
  C   C391      1.0  0.00401  0.24205  0.65345  1.0000
  Fe  Fe75      1.0  0.40218  0.24796  0.95340  1.0000
  S   S141      1.0  0.40430  0.26877  0.95618  1.0000
  Fe  Fe76      1.0  0.42874  0.24554  0.92903  1.0000
  S   S142      1.0  0.43327  0.26616  0.92989  1.0000
  S   S143      1.0  0.44489  0.23351  0.91283  1.0000
  Fe  Fe77      1.0  0.42800  0.25857  0.95365  1.0000
  S   S144      1.0  0.44061  0.26110  0.96808  1.0000
  Fe  Fe78      1.0  0.40925  0.27472  0.93231  1.0000
  S   S145      1.0  0.40165  0.29750  0.92119  1.0000
  S   S146      1.0  0.42562  0.23708  0.95277  1.0000
  S   S147      1.0  0.40500  0.25479  0.92950  1.0000
  Fe  Fe79      1.0  0.29899  0.34743  0.95336  1.0000
  S   S148      1.0  0.32216  0.33595  0.95226  1.0000
  Fe  Fe80      1.0  0.30568  0.36829  0.92503  1.0000
  S   S149      1.0  0.32991  0.35891  0.92135  1.0000
  H   H395      1.0  0.03211  0.38601  0.89925  1.0000
  Fe  Fe81      1.0  0.32341  0.33763  0.92921  1.0000
  S   S150      1.0  0.33469  0.31765  0.92086  1.0000
  Fe  Fe82      1.0  0.32713  0.35781  0.94471  1.0000
  S   S151      1.0  0.34340  0.35973  0.95571  1.0000
  S   S152      1.0  0.29951  0.34703  0.93092  1.0000
  S   S153      1.0  0.30364  0.36926  0.94775  1.0000
  C   C392      1.0  0.05252  0.32356  0.58240  1.0000
  S   S154      1.0  0.44283  0.32590  0.96043  1.0000
  H   H396      1.0  0.05221  0.22701  0.65660  1.0000
  C   C393      1.0  0.07242  0.21162  0.65199  1.0000
  C   C394      1.0  0.09484  0.19375  0.64609  1.0000
  C   C395      1.0  0.43506  0.20154  0.89354  1.0000
  C   C396      1.0  0.37695  0.31722  0.97900  1.0000
  Fe  Fe83      1.0  0.46386  0.35290  0.98211  1.0000
  C   C397      1.0  0.00776  0.27399  0.71405  1.0000
  H   H397      1.0  0.23820  0.37029  0.89637  1.0000
  S   S155      1.0  0.08875  0.38335  0.69478  1.0000
  C   C398      1.0  0.05852  0.20233  0.63683  1.0000
  C   C399      1.0  0.00579  0.37575  0.65832  1.0000
  S   S156      1.0  0.03155  0.37097  0.66642  1.0000
  H   H398      1.0  0.43042  0.22571  0.98334  1.0000
  H   H399      1.0  0.43990  0.38014  0.98103  1.0000
  C   C400      1.0  0.00880  0.38729  0.59329  1.0000
  C   C401      1.0  0.31229  0.38130  0.97580  1.0000
  C   C402      1.0  0.22594  0.38367  0.91129  1.0000
  C   C403      1.0  0.09958  0.33968  0.67076  1.0000
  Fe  Fe84      1.0  0.07999  0.36493  0.71028  1.0000
  S   S157      1.0  0.06431  0.36789  0.73085  1.0000
  C   C404      1.0  0.35841  0.32302  0.96608  1.0000
  Fe  Fe85      1.0  0.08233  0.33273  0.71736  1.0000
  S   S158      1.0  0.06740  0.33282  0.73913  1.0000
  S   S159      1.0  0.09245  0.31547  0.70455  1.0000
  Fe  Fe86      1.0  0.05380  0.35219  0.72742  1.0000
  S   S160      1.0  0.02972  0.35683  0.72869  1.0000
  Fe  Fe87      1.0  0.07936  0.34859  0.74086  1.0000
  S   S161      1.0  0.08397  0.35090  0.76117  1.0000
  S   S162      1.0  0.06804  0.35129  0.70575  1.0000
  S   S163      1.0  0.09567  0.34642  0.72027  1.0000
  Fe  Fe88      1.0  0.07443  0.25742  0.64797  1.0000
  S   S164      1.0  0.07258  0.27873  0.65298  1.0000
  C   C405      1.0  0.44919  0.20358  0.89074  1.0000
  Fe  Fe89      1.0  0.04261  0.25747  0.65979  1.0000
  S   S165      1.0  0.03777  0.27836  0.66618  1.0000
  S   S166      1.0  0.02445  0.24579  0.66506  1.0000
  Fe  Fe90      1.0  0.05194  0.28556  0.64504  1.0000
  S   S167      1.0  0.04398  0.30832  0.63385  1.0000
  Fe  Fe91      1.0  0.05853  0.27046  0.67397  1.0000
  S   S168      1.0  0.05695  0.27567  0.69515  1.0000
  S   S169      1.0  0.05527  0.26521  0.63777  1.0000
  S   S170      1.0  0.06198  0.24849  0.66982  1.0000
  Fe  Fe92      1.0  0.12898  0.38983  0.78582  1.0000
  H   H400      1.0  0.13388  0.35693  0.75256  1.0000
  H   H401      1.0  0.09249  0.33220  0.67586  1.0000
  H   H402      1.0  0.02806  0.37022  0.69755  1.0000
  C   C406      1.0  0.02430  0.25439  0.69761  1.0000
  H   H403      1.0  0.03646  0.24999  0.63446  1.0000
  H   H404      1.0  0.03978  0.21858  0.64310  1.0000
  H   H405      1.0  0.00862  0.38531  0.65096  1.0000
  H   H406      1.0  0.03829  0.26440  0.72666  1.0000
  C   C407      1.0  0.39070  0.26142  0.89553  1.0000
  H   H407      1.0  0.45744  0.27384  0.97835  1.0000
  C   C408      1.0  0.00667  0.36354  0.62803  1.0000
  C   C409      1.0  0.38604  0.30834  0.96987  1.0000
  S   S171      1.0  0.25903  0.38352  0.86875  1.0000
  N   N32       1.0  0.03353  0.39019  0.69424  1.0000
  H   H408      1.0  0.04131  0.25319  0.70771  1.0000
  H   H409      1.0  0.08200  0.37435  0.77385  1.0000
  H   H410      1.0  0.39685  0.30265  0.97146  1.0000
  H   H411      1.0  0.30771  0.37319  0.97445  1.0000
  C   C410      1.0  0.28296  0.38585  0.90115  1.0000
  H   H412      1.0  0.03027  0.33569  0.64372  1.0000
  C   C411      1.0  0.12138  0.35852  0.68163  1.0000
  C   C412      1.0  0.01763  0.24538  0.65071  1.0000
  S   S172      1.0  0.01067  0.30663  0.58960  1.0000
  H   H413      1.0  0.03248  0.30373  0.68510  1.0000
  H   H414      1.0  0.05396  0.22632  0.48775  1.0000
  H   H415      1.0  0.05333  0.19881  0.63059  1.0000
  C   C413      1.0  0.02587  0.24765  0.63669  1.0000
  H   H416      1.0  0.01290  0.33373  0.51503  1.0000
  H   H417      1.0  0.21897  0.37416  0.82651  1.0000
  C   C414      1.0  0.08128  0.37945  0.65844  1.0000
  C   C415      1.0  0.09709  0.36034  0.76068  1.0000
  C   C416      1.0  0.09329  0.37071  0.76896  1.0000
  C   C417      1.0  0.42326  0.39064  0.93746  1.0000
  S   S173      1.0  0.04971  0.36908  0.59922  1.0000
  H   H418      1.0  0.27170  0.36191  0.92422  1.0000
  C   C418      1.0  0.11178  0.35573  0.75448  1.0000
  H   H419      1.0  0.04890  0.29953  0.67195  1.0000
  C   C419      1.0  0.02259  0.38155  0.69799  1.0000
  H   H420      1.0  0.45840  0.29915  0.97549  1.0000
  H   H421      1.0  0.11493  0.34758  0.74829  1.0000
  C   C420      1.0  0.08163  0.30566  0.70138  1.0000
  C   C421      1.0  0.08604  0.30032  0.68886  1.0000
  C   C422      1.0  0.07826  0.29157  0.68653  1.0000
  C   C423      1.0  0.06628  0.28771  0.69695  1.0000
  C   C424      1.0  0.06179  0.29318  0.70939  1.0000
  C   C425      1.0  0.06924  0.30235  0.71148  1.0000
  H   H422      1.0  0.09572  0.30267  0.68107  1.0000
  H   H423      1.0  0.08195  0.28730  0.67699  1.0000
  H   H424      1.0  0.05265  0.29018  0.71758  1.0000
  H   H425      1.0  0.06580  0.30628  0.72122  1.0000
  C   C426      1.0  0.02350  0.34324  0.72564  1.0000
  C   C427      1.0  0.00706  0.24299  0.62826  1.0000
  C   C428      1.0  0.39943  0.38023  0.93876  1.0000
  C   C429      1.0  0.01349  0.32190  0.72010  1.0000
  C   C430      1.0  0.02571  0.31823  0.72611  1.0000
  C   C431      1.0  0.03081  0.32888  0.72870  1.0000
  C   C432      1.0  0.23796  0.38292  0.92956  1.0000
  H   H426      1.0  0.25933  0.36040  0.94146  1.0000
  H   H427      1.0  0.03136  0.30713  0.72860  1.0000
  H   H428      1.0  0.04032  0.32595  0.73321  1.0000
  H   H429      1.0  0.09766  0.34122  0.64940  1.0000
  H   H430      1.0  0.34773  0.32887  0.96436  1.0000
  H   H431      1.0  0.02038  0.27341  0.73459  1.0000
  H   H432      1.0  0.01167  0.35427  0.58824  1.0000
  H   H433      1.0  0.05558  0.33331  0.60729  1.0000
  H   H434      1.0  0.12501  0.36609  0.65323  1.0000
  Fe  Fe93      1.0  0.04116  0.38260  0.64470  1.0000
  H   H435      1.0  0.07584  0.36410  0.81197  1.0000
  C   C433      1.0  0.01098  0.35499  0.67721  1.0000
  S   S174      1.0  0.00817  0.30837  0.71585  1.0000
  H   H436      1.0  0.07256  0.37315  0.68099  1.0000
  H   H437      1.0  0.39016  0.37607  0.93929  1.0000
  C   C434      1.0  0.24970  0.36847  0.91253  1.0000
  C   C435      1.0  0.18201  0.37751  0.79498  1.0000
  S   S175      1.0  0.15557  0.38584  0.82512  1.0000
  S   S176      1.0  0.47518  0.33467  0.97122  1.0000
  H   H438      1.0  0.11408  0.35898  0.69232  1.0000
  S   S177      1.0  0.38470  0.23630  0.96688  1.0000
  C   C436      1.0  0.35827  0.37772  0.95839  1.0000
  H   H439      1.0  0.41286  0.20773  0.90477  1.0000
  C   C437      1.0  0.01749  0.30763  0.60357  1.0000
  C   C438      1.0  0.02222  0.29509  0.61318  1.0000
  C   C439      1.0  0.02916  0.29561  0.62339  1.0000
  C   C440      1.0  0.03219  0.30847  0.62348  1.0000
  C   C441      1.0  0.02685  0.32115  0.61431  1.0000
  C   C442      1.0  0.01926  0.32075  0.60450  1.0000
  H   H440      1.0  0.02080  0.28492  0.61258  1.0000
  H   H441      1.0  0.03245  0.28596  0.63095  1.0000
  H   H442      1.0  0.02900  0.33119  0.61437  1.0000
  H   H443      1.0  0.01556  0.33041  0.59709  1.0000
  H   H444      1.0  0.01795  0.34833  0.68434  1.0000
  N   N33       1.0  0.06020  0.31974  0.59288  1.0000
  C   C443      1.0  0.05097  0.21349  0.64375  1.0000
  C   C444      1.0  0.09511  0.21396  0.61043  1.0000
  C   C445      1.0  0.08253  0.22423  0.61438  1.0000
  C   C446      1.0  0.08258  0.23371  0.62245  1.0000
  C   C447      1.0  0.09526  0.23309  0.62655  1.0000
  C   C448      1.0  0.10803  0.22327  0.62203  1.0000
  C   C449      1.0  0.00838  0.33559  0.64379  1.0000
  H   H445      1.0  0.07258  0.22458  0.61153  1.0000
  H   H446      1.0  0.07271  0.24126  0.62573  1.0000
  C   C450      1.0  0.00485  0.37604  0.59053  1.0000
  H   H447      1.0  0.26567  0.37680  0.93256  1.0000
  C   C451      1.0  0.01112  0.34689  0.71993  1.0000
  H   H448      1.0  0.06224  0.28394  0.60189  1.0000
  S   S178      1.0  0.28019  0.34148  0.97083  1.0000
  C   C452      1.0  0.20172  0.36567  0.82487  1.0000
  C   C453      1.0  0.01499  0.36704  0.66732  1.0000
  H   H449      1.0  0.45928  0.19536  0.92399  1.0000
  H   H450      1.0  0.07788  0.21560  0.65763  1.0000
  H   H451      1.0  0.04932  0.33473  0.57718  1.0000
  H   H452      1.0  0.06374  0.34092  0.58919  1.0000
  H   H453      1.0  0.46289  0.21525  0.89419  1.0000
  H   H454      1.0  0.45792  0.19767  0.88381  1.0000
  H   H455      1.0  0.44214  0.37203  0.95146  1.0000
  H   H456      1.0  0.23792  0.38657  0.93882  1.0000
  C   C454      1.0  0.02268  0.38534  0.59581  1.0000
  N   N34       1.0  0.36329  0.32435  0.97708  1.0000
  H   H457      1.0  0.36205  0.36898  0.96667  1.0000
  Fe  Fe94      1.0  0.05012  0.38283  0.61335  1.0000
  C   C455      1.0  0.01045  0.33656  0.49357  1.0000
  H   H458      1.0  0.03608  0.35075  0.59265  1.0000
  C   C456      1.0  0.06378  0.30568  0.59976  1.0000
  H   H459      1.0  0.02880  0.36079  0.62958  1.0000
  C   C457      1.0  0.05187  0.29882  0.58548  1.0000
  C   C458      1.0  0.28025  0.37385  0.88429  1.0000
  C   C459      1.0  0.28771  0.37447  0.89417  1.0000
  H   H460      1.0  0.07470  0.32714  0.60005  1.0000
  H   H461      1.0  0.11405  0.35824  0.63813  1.0000
  H   H462      1.0  0.28418  0.36518  0.87869  1.0000
  H   H463      1.0  0.29739  0.36638  0.89603  1.0000
  C   C460      1.0  0.44162  0.27907  0.96547  1.0000
  C   C461      1.0  0.45074  0.28238  0.97205  1.0000
  C   C462      1.0  0.45123  0.29672  0.97050  1.0000
  C   C463      1.0  0.44262  0.30781  0.96233  1.0000
  C   C464      1.0  0.43364  0.30448  0.95561  1.0000
  C   C465      1.0  0.43312  0.29016  0.95719  1.0000
  H   H464      1.0  0.20108  0.35850  0.83534  1.0000
  C   C466      1.0  0.44343  0.38815  0.97183  1.0000
  H   H465      1.0  0.42705  0.31300  0.94918  1.0000
  H   H466      1.0  0.42614  0.28772  0.95197  1.0000
  C   C467      1.0  0.38294  0.30295  0.92164  1.0000
  C   C468      1.0  0.37435  0.29287  0.92519  1.0000
  C   C469      1.0  0.35954  0.29744  0.92483  1.0000
  C   C470      1.0  0.35317  0.31211  0.92145  1.0000
  C   C471      1.0  0.36170  0.32219  0.91829  1.0000
  C   C472      1.0  0.37661  0.31760  0.91816  1.0000
  H   H467      1.0  0.37912  0.28154  0.92801  1.0000
  H   H468      1.0  0.35293  0.28963  0.92737  1.0000
  H   H469      1.0  0.35686  0.33351  0.91560  1.0000
  H   H470      1.0  0.38322  0.32544  0.91542  1.0000
  H   H471      1.0  0.01507  0.38546  0.69055  1.0000
  C   C473      1.0  0.42380  0.20934  0.90248  1.0000
  C   C474      1.0  0.42668  0.21898  0.90874  1.0000
  C   C475      1.0  0.44078  0.22116  0.90574  1.0000
  C   C476      1.0  0.45198  0.21351  0.89665  1.0000
  C   C477      1.0  0.26789  0.38446  0.88150  1.0000
  H   H472      1.0  0.03302  0.31204  0.66655  1.0000
  H   H473      1.0  0.41798  0.22476  0.91580  1.0000
  H   H474      1.0  0.13186  0.35096  0.68304  1.0000
  H   H475      1.0  0.04812  0.29075  0.58296  1.0000
  N   N35       1.0  0.41548  0.27058  0.89391  1.0000
  C   C478      1.0  0.41670  0.25691  0.89273  1.0000
  C   C479      1.0  0.40222  0.27995  0.89526  1.0000
  C   C480      1.0  0.40434  0.25210  0.89359  1.0000
  C   C481      1.0  0.38961  0.27548  0.89627  1.0000
  C   C482      1.0  0.07229  0.34663  0.79803  1.0000
  C   C483      1.0  0.42852  0.27538  0.89317  1.0000
  H   H476      1.0  0.42725  0.24957  0.89138  1.0000
  H   H477      1.0  0.40127  0.29091  0.89580  1.0000
  C   C484      1.0  0.04824  0.31317  0.57854  1.0000
  H   H478      1.0  0.42590  0.28352  0.89973  1.0000
  H   H479      1.0  0.43686  0.26629  0.89751  1.0000
  H   H480      1.0  0.43322  0.28013  0.88193  1.0000
  H   H481      1.0  0.11793  0.22281  0.62503  1.0000
  C   C485      1.0  0.02069  0.24627  0.62554  1.0000
  N   N36       1.0  0.42340  0.37636  0.94276  1.0000
  C   C486      1.0  0.05974  0.29501  0.59612  1.0000
  S   S179      1.0  0.00352  0.34699  0.56641  1.0000
  H   H482      1.0  0.33807  0.38540  0.93352  1.0000
  H   H483      1.0  0.11775  0.20594  0.61098  1.0000
  H   H484      1.0  0.04163  0.31628  0.57065  1.0000
  C   C487      1.0  0.09134  0.38645  0.64789  1.0000
  N   N37       1.0  0.19237  0.37622  0.80358  1.0000
  C   C488      1.0  0.03256  0.37214  0.59553  1.0000
  H   H485      1.0  0.12248  0.35491  0.80112  1.0000
  C   C489      1.0  0.06374  0.33081  0.59755  1.0000
  H   H486      1.0  0.21671  0.38782  0.90622  1.0000
  C   C490      1.0  0.21179  0.37441  0.81991  1.0000
  S   S180      1.0  0.09539  0.24375  0.63796  1.0000
  N   N38       1.0  0.08613  0.34827  0.79950  1.0000
  C   C491      1.0  0.09902  0.34088  0.79274  1.0000
  C   C492      1.0  0.08604  0.35792  0.80695  1.0000
  C   C493      1.0  0.11226  0.34300  0.79343  1.0000
  C   C494      1.0  0.09908  0.36028  0.80789  1.0000
  C   C495      1.0  0.11227  0.35278  0.80103  1.0000
  N   N39       1.0  0.02180  0.26770  0.71514  1.0000
  H   H487      1.0  0.09911  0.33381  0.78619  1.0000
  H   H488      1.0  0.03106  0.28269  0.71877  1.0000
  H   H489      1.0  0.12243  0.33763  0.78752  1.0000
  H   H490      1.0  0.09893  0.36819  0.81356  1.0000
  H   H491      1.0  0.44392  0.36224  0.93808  1.0000
  N   N40       1.0  0.24970  0.37323  0.92411  1.0000
  H   H492      1.0  0.43341  0.35734  0.95591  1.0000
  C   C496      1.0  0.03007  0.25798  0.70709  1.0000
  H   H493      1.0  0.25900  0.36083  0.90814  1.0000
  N   N41       1.0  0.04498  0.31994  0.67621  1.0000
  C   C497      1.0  0.04355  0.32237  0.68937  1.0000
  C   C498      1.0  0.05208  0.32796  0.66419  1.0000
  C   C499      1.0  0.04888  0.33341  0.69073  1.0000
  C   C500      1.0  0.05759  0.33907  0.66516  1.0000
  C   C501      1.0  0.05585  0.34187  0.67852  1.0000
  C   C502      1.0  0.03953  0.30825  0.67489  1.0000
  H   H494      1.0  0.03834  0.31568  0.69888  1.0000
  H   H495      1.0  0.05349  0.32576  0.65379  1.0000
  H   H496      1.0  0.04758  0.33538  0.70118  1.0000
  H   H497      1.0  0.06292  0.34564  0.65564  1.0000
  H   H498      1.0  0.05966  0.35074  0.67935  1.0000
  S   S181      1.0  0.06023  0.36997  0.63179  1.0000
  H   H499      1.0  0.17037  0.38179  0.84729  1.0000
  C   C503      1.0  0.04106  0.38940  0.70415  1.0000
  C   C504      1.0  0.00624  0.33627  0.71700  1.0000
  H   H500      1.0  0.10357  0.34042  0.69054  1.0000
  H   H501      1.0  0.38099  0.25777  0.89647  1.0000
  H   H502      1.0  0.41206  0.35967  0.94714  1.0000
  H   H503      1.0  0.06934  0.30271  0.60847  1.0000
  C   C505      1.0  0.01005  0.26094  0.69627  1.0000
  H   H504      1.0  0.03094  0.24685  0.69109  1.0000
  C   C506      1.0  0.38108  0.30687  0.95869  1.0000
  H   H505      1.0  0.02725  0.24775  0.61475  1.0000
  H   H506      1.0  0.06446  0.34543  0.80853  1.0000
  C   C507      1.0  0.10257  0.34464  0.65596  1.0000
  C   C508      1.0  0.34934  0.37581  0.95067  1.0000
  H   H507      1.0  0.07375  0.33707  0.79367  1.0000
  H   H508      1.0  0.12322  0.36954  0.67679  1.0000
  S   S182      1.0  0.09294  0.38707  0.62988  1.0000
  C   C509      1.0  0.34481  0.38691  0.93963  1.0000
  H   H509      1.0  0.10098  0.38368  0.77814  1.0000
  C   C510      1.0  0.01477  0.36293  0.59024  1.0000
  H   H510      1.0  0.03878  0.38265  0.71476  1.0000
  H   H511      1.0  0.17324  0.37166  0.80109  1.0000
  C   C511      1.0  0.26215  0.36780  0.93095  1.0000
  H   H512      1.0  0.00555  0.25865  0.68861  1.0000
  C   C512      1.0  0.43636  0.36655  0.94724  1.0000
  C   C513      1.0  0.05793  0.21819  0.65138  1.0000
  S   S183      1.0  0.29287  0.38798  0.91233  1.0000
  N   N42       1.0  0.07977  0.20072  0.64510  1.0000
  H   H513      1.0  0.01592  0.38179  0.70898  1.0000
  C   C514      1.0  0.01955  0.35584  0.63237  1.0000
  Fe  Fe95      1.0  0.07060  0.38837  0.62770  1.0000
  C   C515      1.0  0.45830  0.38753  0.96611  1.0000
  N   N43       1.0  0.11475  0.35388  0.67277  1.0000
  C   C516      1.0  0.10587  0.34439  0.67905  1.0000
  C   C517      1.0  0.11799  0.35855  0.65823  1.0000
  C   C518      1.0  0.11189  0.35407  0.64961  1.0000
  Fe  Fe96      1.0  0.45303  0.32998  0.97600  1.0000
  C   C519      1.0  0.10796  0.21372  0.61402  1.0000
  C   C520      1.0  0.02859  0.36098  0.59268  1.0000
  C   C521      1.0  0.12253  0.36095  0.75703  1.0000
  H   H514      1.0  0.06761  0.35615  0.79041  1.0000
  S   S184      1.0  0.09391  0.20078  0.60236  1.0000
  C   C522      1.0  0.10405  0.37600  0.77145  1.0000
  C   C523      1.0  0.11879  0.37085  0.76580  1.0000
  C   C524      1.0  0.08933  0.38473  0.67680  1.0000
  C   C525      1.0  0.02820  0.27218  0.72431  1.0000
  C   C526      1.0  0.08037  0.37849  0.67291  1.0000
  C   C527      1.0  0.00799  0.33062  0.50822  1.0000
  H   H515      1.0  0.18384  0.36031  0.82072  1.0000
  C   C528      1.0  0.02035  0.34180  0.64034  1.0000
  C   C529      1.0  0.23791  0.37373  0.90585  1.0000
  C   C530      1.0  0.41179  0.37106  0.94325  1.0000
  S   S185      1.0  0.47143  0.37348  0.97319  1.0000
  H   H516      1.0  0.38802  0.30015  0.95142  1.0000
  H   H517      1.0  0.38896  0.25557  0.98170  1.0000
  C   C531      1.0  0.07297  0.19594  0.63772  1.0000
  H   H518      1.0  0.00601  0.37456  0.62217  1.0000
  H   H519      1.0  0.18770  0.37320  0.78527  1.0000
  C   C532      1.0  0.36199  0.39097  0.95567  1.0000
  H   H520      1.0  0.00539  0.35796  0.71755  1.0000
  C   C533      1.0  0.37599  0.24072  0.98351  1.0000
  H   H521      1.0  0.35683  0.34479  0.98224  1.0000
  H   H522      1.0  0.18349  0.19343  0.50710  1.0000
  H   H523      1.0  0.41854  0.24307  0.98447  1.0000
  C   C534      1.0  0.21217  0.38394  0.80663  1.0000
  C   C535      1.0  0.22590  0.38826  0.92326  1.0000
  C   C536      1.0  0.20237  0.38466  0.79853  1.0000
  H   H524      1.0  0.18162  0.19390  0.53213  1.0000
  H   H525      1.0  0.17651  0.38894  0.79179  1.0000
  H   H526      1.0  0.01747  0.34413  0.48886  1.0000
  S   S186      1.0  0.44157  0.34968  0.98468  1.0000
  H   H527      1.0  0.30014  0.34819  0.98369  1.0000
  C   C537      1.0  0.17411  0.39021  0.83862  1.0000
  H   H528      1.0  0.21964  0.39112  0.80295  1.0000
  H   H529      1.0  0.49699  0.33757  0.98613  1.0000
  C   C538      1.0  0.16872  0.43328  0.15776  1.0000
  C   C539      1.0  0.43748  0.54577  0.99539  1.0000
  C   C540      1.0  0.13277  0.50460  0.25311  1.0000
  H   H530      1.0  0.15687  0.53345  0.08895  1.0000
  S   S187      1.0  0.13334  0.42566  0.18948  1.0000
  H   H531      1.0  0.19256  0.40946  0.16733  1.0000
  H   H532      1.0  0.12405  0.44395  0.98677  1.0000
  H   H533      1.0  0.00965  0.52374  0.09630  1.0000
  H   H534      1.0  0.47607  0.58370  0.05175  1.0000
  S   S188      1.0  0.17851  0.42905  0.13006  1.0000
  C   C541      1.0  0.11320  0.40131  0.26060  1.0000
  H   H535      1.0  0.48840  0.58616  0.06916  1.0000
  H   H536      1.0  0.38323  0.45895  0.98984  1.0000
  C   C542      1.0  0.22703  0.50399  0.06869  1.0000
  Fe  Fe97      1.0  0.44739  0.55793  0.03619  1.0000
  S   S189      1.0  0.45144  0.53600  0.03215  1.0000
  S   S190      1.0  0.46013  0.56287  0.04904  1.0000
  N   N44       1.0  0.41576  0.51637  0.02411  1.0000
  Fe  Fe98      1.0  0.22201  0.44919  0.10767  1.0000
  S   S191      1.0  0.23985  0.43873  0.11968  1.0000
  S   S192      1.0  0.22274  0.46572  0.08713  1.0000
  Fe  Fe99      1.0  0.22163  0.44086  0.13910  1.0000
  S   S193      1.0  0.22169  0.44733  0.15885  1.0000
  S   S194      1.0  0.20447  0.45334  0.12690  1.0000
  Fe  Fe100     1.0  0.22374  0.52517  0.12794  1.0000
  S   S195      1.0  0.20085  0.53254  0.12522  1.0000
  S   S196      1.0  0.22580  0.51167  0.14970  1.0000
  Fe  Fe101     1.0  0.23607  0.54042  0.09767  1.0000
  S   S197      1.0  0.21400  0.54863  0.09242  1.0000
  S   S198      1.0  0.25509  0.54500  0.07940  1.0000
  Fe  Fe102     1.0  0.20692  0.55354  0.11423  1.0000
  S   S199      1.0  0.19353  0.57490  0.11804  1.0000
  Fe  Fe103     1.0  0.21005  0.52676  0.10394  1.0000
  S   S200      1.0  0.19926  0.51234  0.09868  1.0000
  S   S201      1.0  0.22920  0.54687  0.11879  1.0000
  S   S202      1.0  0.23276  0.51798  0.10730  1.0000
  Fe  Fe104     1.0  0.13724  0.53191  0.19339  1.0000
  S   S203      1.0  0.13240  0.52409  0.21708  1.0000
  S   S204      1.0  0.13500  0.51740  0.18106  1.0000
  Fe  Fe105     1.0  0.15013  0.55538  0.19467  1.0000
  S   S205      1.0  0.14699  0.54929  0.21859  1.0000
  S   S206      1.0  0.16060  0.57383  0.18237  1.0000
  Fe  Fe106     1.0  0.15460  0.52674  0.21549  1.0000
  S   S207      1.0  0.17042  0.50946  0.22661  1.0000
  Fe  Fe107     1.0  0.12492  0.54724  0.21829  1.0000
  S   S208      1.0  0.10387  0.55330  0.23419  1.0000
  S   S209      1.0  0.16008  0.53299  0.19171  1.0000
  S   S210      1.0  0.12745  0.55495  0.19441  1.0000
  Fe  Fe108     1.0  0.12132  0.45883  0.22225  1.0000
  S   S211      1.0  0.13436  0.44949  0.23906  1.0000
  S   S212      1.0  0.10505  0.47980  0.22115  1.0000
  Fe  Fe109     1.0  0.15282  0.44436  0.22078  1.0000
  S   S213      1.0  0.17506  0.44770  0.21841  1.0000
  S   S214      1.0  0.14023  0.45559  0.20378  1.0000
  C   C543      1.0  0.00777  0.58088  0.28767  1.0000
  H   H537      1.0  0.14194  0.50589  0.25629  1.0000
  C   C544      1.0  0.16622  0.42885  0.14670  1.0000
  Fe  Fe110     1.0  0.43839  0.57552  0.05841  1.0000
  C   C545      1.0  0.10765  0.39251  0.27352  1.0000
  C   C546      1.0  0.31230  0.57404  0.98728  1.0000
  C   C547      1.0  0.28497  0.56960  0.06780  1.0000
  H   H538      1.0  0.30485  0.56313  0.00897  1.0000
  H   H539      1.0  0.36963  0.57957  0.06378  1.0000
  H   H540      1.0  0.12580  0.57513  0.25906  1.0000
  H   H541      1.0  0.02722  0.56647  0.29325  1.0000
  Fe  Fe111     1.0  0.42986  0.58805  0.03000  1.0000
  H   H542      1.0  0.10067  0.50061  0.24058  1.0000
  Fe  Fe112     1.0  0.04994  0.50785  0.14337  1.0000
  S   S215      1.0  0.06196  0.48488  0.14484  1.0000
  S   S216      1.0  0.02702  0.51601  0.13995  1.0000
  Fe  Fe113     1.0  0.07515  0.51689  0.14800  1.0000
  S   S217      1.0  0.08906  0.49464  0.14957  1.0000
  S   S218      1.0  0.08265  0.53551  0.15011  1.0000
  Fe  Fe114     1.0  0.08094  0.49409  0.13109  1.0000
  S   S219      1.0  0.09711  0.48285  0.11461  1.0000
  Fe  Fe115     1.0  0.06878  0.48777  0.16315  1.0000
  S   S220      1.0  0.06851  0.47072  0.18327  1.0000
  S   S221      1.0  0.06851  0.51700  0.12821  1.0000
  S   S222      1.0  0.05531  0.51002  0.16295  1.0000
  Fe  Fe116     1.0  0.16185  0.48888  0.04922  1.0000
  S   S223      1.0  0.17753  0.49968  0.03134  1.0000
  S   S224      1.0  0.16759  0.46845  0.06516  1.0000
  Fe  Fe117     1.0  0.13595  0.51281  0.04343  1.0000
  S   S225      1.0  0.14924  0.52580  0.02498  1.0000
  S   S226      1.0  0.11246  0.52118  0.05265  1.0000
  Fe  Fe118     1.0  0.16023  0.50461  0.01895  1.0000
  H   H543      1.0  0.11646  0.46249  0.98726  1.0000
  Fe  Fe119     1.0  0.16523  0.51968  0.03900  1.0000
  S   S227      1.0  0.17541  0.53576  0.04217  1.0000
  S   S228      1.0  0.14547  0.49206  0.03626  1.0000
  S   S229      1.0  0.15098  0.50852  0.05798  1.0000
  H   H544      1.0  0.24499  0.48177  0.08333  1.0000
  C   C548      1.0  0.08952  0.57882  0.26309  1.0000
  C   C549      1.0  0.02065  0.51746  0.09627  1.0000
  H   H545      1.0  0.25297  0.41947  0.09190  1.0000
  H   H546      1.0  0.05140  0.51707  0.10555  1.0000
  C   C550      1.0  0.36291  0.53701  0.00699  1.0000
  C   C551      1.0  0.25719  0.40913  0.08906  1.0000
  C   C552      1.0  0.11024  0.40069  0.24793  1.0000
  H   H547      1.0  0.36789  0.52601  0.01228  1.0000
  C   C553      1.0  0.10094  0.49359  0.09735  1.0000
  C   C554      1.0  0.11270  0.48821  0.08715  1.0000
  C   C555      1.0  0.11622  0.49666  0.07340  1.0000
  C   C556      1.0  0.10768  0.51036  0.06964  1.0000
  C   C557      1.0  0.09567  0.51564  0.07970  1.0000
  C   C558      1.0  0.09243  0.50733  0.09361  1.0000
  H   H548      1.0  0.11908  0.47747  0.08981  1.0000
  H   H549      1.0  0.12540  0.49244  0.06563  1.0000
  H   H550      1.0  0.08902  0.52624  0.07680  1.0000
  H   H551      1.0  0.08325  0.51153  0.10132  1.0000
  C   C559      1.0  0.02015  0.50473  0.13410  1.0000
  C   C560      1.0  0.02900  0.49193  0.13071  1.0000
  H   H552      1.0  0.24018  0.39583  0.07168  1.0000
  H   H553      1.0  0.09956  0.52345  0.24705  1.0000
  H   H554      1.0  0.15148  0.42080  0.14023  1.0000
  H   H555      1.0  0.18681  0.41759  0.21536  1.0000
  H   H556      1.0  0.04014  0.48886  0.13161  1.0000
  H   H557      1.0  0.03060  0.47351  0.12267  1.0000
  C   C561      1.0  0.06349  0.54538  0.31728  1.0000
  S   S230      1.0  0.11483  0.43846  0.22412  1.0000
  C   C562      1.0  0.07091  0.40479  0.29937  1.0000
  C   C563      1.0  0.01870  0.55166  0.39409  1.0000
  C   C564      1.0  0.02462  0.56338  0.39287  1.0000
  C   C565      1.0  0.02631  0.56644  0.40511  1.0000
  C   C566      1.0  0.02256  0.55743  0.41844  1.0000
  C   C567      1.0  0.48480  0.58934  0.04809  1.0000
  C   C568      1.0  0.37487  0.57162  0.99568  1.0000
  H   H558      1.0  0.02783  0.57005  0.38246  1.0000
  H   H559      1.0  0.02448  0.55928  0.42781  1.0000
  H   H560      1.0  0.11337  0.53704  0.07154  1.0000
  H   H561      1.0  0.33742  0.40786  0.98980  1.0000
  C   C569      1.0  0.04021  0.55738  0.35233  1.0000
  C   C570      1.0  0.03047  0.54993  0.35133  1.0000
  C   C571      1.0  0.02502  0.55356  0.33896  1.0000
  C   C572      1.0  0.02883  0.56493  0.32790  1.0000
  C   C573      1.0  0.03809  0.57268  0.32913  1.0000
  C   C574      1.0  0.10241  0.58045  0.26519  1.0000
  H   H562      1.0  0.02746  0.54120  0.35998  1.0000
  H   H563      1.0  0.02432  0.56797  0.31854  1.0000
  H   H564      1.0  0.11007  0.39279  0.28333  1.0000
  H   H565      1.0  0.05471  0.54110  0.32516  1.0000
  C   C575      1.0  0.09321  0.47844  0.21163  1.0000
  C   C576      1.0  0.09155  0.48822  0.19877  1.0000
  C   C577      1.0  0.08343  0.48620  0.19030  1.0000
  C   C578      1.0  0.07721  0.47423  0.19456  1.0000
  C   C579      1.0  0.07859  0.46461  0.20758  1.0000
  C   C580      1.0  0.08654  0.46676  0.21614  1.0000
  H   H566      1.0  0.09701  0.49704  0.19511  1.0000
  H   H567      1.0  0.08222  0.49372  0.18034  1.0000
  H   H568      1.0  0.07370  0.45539  0.21093  1.0000
  H   H569      1.0  0.08760  0.45929  0.22619  1.0000
  C   C581      1.0  0.10347  0.56407  0.24577  1.0000
  C   C582      1.0  0.11631  0.56585  0.24779  1.0000
  H   H570      1.0  0.39314  0.47142  0.00203  1.0000
  H   H571      1.0  0.00296  0.45935  0.16338  1.0000
  H   H572      1.0  0.17403  0.40078  0.21242  1.0000
  C   C583      1.0  0.09006  0.57056  0.25350  1.0000
  H   H573      1.0  0.12670  0.56090  0.24201  1.0000
  H   H574      1.0  0.04040  0.58182  0.32081  1.0000
  H   H575      1.0  0.08005  0.56933  0.25195  1.0000
  C   C584      1.0  0.17239  0.49274  0.22286  1.0000
  C   C585      1.0  0.18359  0.48136  0.22697  1.0000
  C   C586      1.0  0.18466  0.46764  0.22511  1.0000
  C   C587      1.0  0.17426  0.46516  0.21954  1.0000
  C   C588      1.0  0.16314  0.47657  0.21525  1.0000
  C   C589      1.0  0.16239  0.49041  0.21664  1.0000
  H   H576      1.0  0.19137  0.48309  0.23177  1.0000
  H   H577      1.0  0.19328  0.45885  0.22843  1.0000
  H   H578      1.0  0.15510  0.47475  0.21088  1.0000
  H   H579      1.0  0.15380  0.49913  0.21328  1.0000
  C   C590      1.0  0.12031  0.52292  0.17271  1.0000
  C   C591      1.0  0.11462  0.53742  0.16742  1.0000
  C   C592      1.0  0.10320  0.54127  0.16023  1.0000
  C   C593      1.0  0.09720  0.53068  0.15876  1.0000
  C   C594      1.0  0.10272  0.51631  0.16445  1.0000
  C   C595      1.0  0.11442  0.51241  0.17111  1.0000
  H   H580      1.0  0.11926  0.54559  0.16852  1.0000
  H   H581      1.0  0.09899  0.55245  0.15584  1.0000
  H   H582      1.0  0.09796  0.50814  0.16384  1.0000
  H   H583      1.0  0.11876  0.50120  0.17526  1.0000
  C   C596      1.0  0.18380  0.57443  0.13578  1.0000
  C   C597      1.0  0.17841  0.56239  0.14419  1.0000
  C   C598      1.0  0.17083  0.56224  0.15843  1.0000
  C   C599      1.0  0.16885  0.57405  0.16430  1.0000
  C   C600      1.0  0.08397  0.42086  0.28063  1.0000
  H   H584      1.0  0.00732  0.41110  0.28233  1.0000
  H   H585      1.0  0.17976  0.55338  0.13963  1.0000
  H   H586      1.0  0.16653  0.55304  0.16483  1.0000
  H   H587      1.0  0.16056  0.43585  0.17964  1.0000
  H   H588      1.0  0.24852  0.49310  0.09258  1.0000
  C   C601      1.0  0.19279  0.51906  0.08291  1.0000
  C   C602      1.0  0.18899  0.50970  0.07717  1.0000
  C   C603      1.0  0.18380  0.51476  0.06456  1.0000
  C   C604      1.0  0.18253  0.52919  0.05757  1.0000
  C   C605      1.0  0.18651  0.53854  0.06320  1.0000
  C   C606      1.0  0.19157  0.53349  0.07591  1.0000
  H   H589      1.0  0.19040  0.49843  0.08227  1.0000
  H   H590      1.0  0.18104  0.50742  0.06012  1.0000
  H   H591      1.0  0.18552  0.54973  0.05781  1.0000
  H   H592      1.0  0.19445  0.54078  0.08029  1.0000
  C   C607      1.0  0.22345  0.46504  0.15591  1.0000
  C   C608      1.0  0.22485  0.47392  0.14220  1.0000
  C   C609      1.0  0.22539  0.48831  0.14023  1.0000
  C   C610      1.0  0.22492  0.49374  0.15188  1.0000
  C   C611      1.0  0.22362  0.48480  0.16555  1.0000
  C   C612      1.0  0.22280  0.47051  0.16758  1.0000
  H   H593      1.0  0.22537  0.46975  0.13314  1.0000
  H   H594      1.0  0.22629  0.49511  0.12968  1.0000
  H   H595      1.0  0.22327  0.48890  0.17461  1.0000
  H   H596      1.0  0.22171  0.46369  0.17820  1.0000
  C   C613      1.0  0.20737  0.46680  0.08093  1.0000
  C   C614      1.0  0.20572  0.47497  0.06736  1.0000
  C   C615      1.0  0.19348  0.47558  0.06244  1.0000
  C   C616      1.0  0.18313  0.46768  0.07088  1.0000
  C   C617      1.0  0.18500  0.45924  0.08425  1.0000
  C   C618      1.0  0.19682  0.45917  0.08944  1.0000
  H   H597      1.0  0.21387  0.48080  0.06062  1.0000
  H   H598      1.0  0.19227  0.48191  0.05200  1.0000
  H   H599      1.0  0.17712  0.45298  0.09077  1.0000
  H   H600      1.0  0.19761  0.45329  0.10010  1.0000
  C   C619      1.0  0.10954  0.50183  0.24429  1.0000
  C   C620      1.0  0.19144  0.41103  0.17794  1.0000
  C   C621      1.0  0.26484  0.56037  0.09260  1.0000
  C   C622      1.0  0.26627  0.55580  0.08016  1.0000
  C   C623      1.0  0.27643  0.56037  0.06781  1.0000
  H   H601      1.0  0.11467  0.40724  0.23788  1.0000
  H   H602      1.0  0.25711  0.55687  0.10219  1.0000
  H   H603      1.0  0.27762  0.55689  0.05814  1.0000
  C   C624      1.0  0.17792  0.48363  0.17509  1.0000
  C   C625      1.0  0.29566  0.39659  0.08921  1.0000
  H   H604      1.0  0.34623  0.57484  0.02366  1.0000
  H   H605      1.0  0.20611  0.40562  0.09861  1.0000
  C   C626      1.0  0.45038  0.53683  0.01472  1.0000
  C   C627      1.0  0.43885  0.54619  0.00889  1.0000
  N   N45       1.0  0.22132  0.41116  0.07887  1.0000
  H   H606      1.0  0.43081  0.55347  0.01494  1.0000
  C   C628      1.0  0.37619  0.58714  0.06258  1.0000
  C   C629      1.0  0.11578  0.57394  0.25749  1.0000
  C   C630      1.0  0.46060  0.52725  0.00700  1.0000
  C   C631      1.0  0.03025  0.52211  0.10097  1.0000
  C   C632      1.0  0.49188  0.59065  0.05789  1.0000
  H   H607      1.0  0.13678  0.50349  0.00535  1.0000
  C   C633      1.0  0.36859  0.56757  0.02545  1.0000
  C   C634      1.0  0.38304  0.56462  0.01791  1.0000
  C   C635      1.0  0.38618  0.56649  0.00301  1.0000
  C   C636      1.0  0.14094  0.49918  0.99582  1.0000
  C   C637      1.0  0.36052  0.57495  0.00316  1.0000
  C   C638      1.0  0.35740  0.57264  0.01802  1.0000
  H   H608      1.0  0.39179  0.56122  0.02351  1.0000
  H   H609      1.0  0.39736  0.56431  0.99722  1.0000
  S   S231      1.0  0.40635  0.53747  0.98858  1.0000
  S   S232      1.0  0.00769  0.58085  0.44247  1.0000
  C   C639      1.0  0.18244  0.40404  0.18967  1.0000
  H   H610      1.0  0.18712  0.50640  0.13686  1.0000
  C   C640      1.0  0.19874  0.42028  0.17993  1.0000
  H   H611      1.0  0.26584  0.41800  0.06693  1.0000
  H   H612      1.0  0.11517  0.52338  0.09603  1.0000
  C   C641      1.0  0.18099  0.40622  0.20323  1.0000
  C   C642      1.0  0.14729  0.53407  0.08524  1.0000
  H   H613      1.0  0.01737  0.54937  0.38465  1.0000
  C   C643      1.0  0.23852  0.41607  0.05660  1.0000
  C   C644      1.0  0.08594  0.55649  0.29750  1.0000
  C   C645      1.0  0.18834  0.41564  0.20483  1.0000
  C   C646      1.0  0.15349  0.42418  0.14875  1.0000
  C   C647      1.0  0.10113  0.39190  0.24831  1.0000
  H   H614      1.0  0.15447  0.54702  0.06459  1.0000
  C   C648      1.0  0.27341  0.56956  0.09260  1.0000
  C   C649      1.0  0.42455  0.50766  0.01375  1.0000
  N   N46       1.0  0.10806  0.45560  0.17367  1.0000
  C   C650      1.0  0.10777  0.46045  0.15951  1.0000
  C   C651      1.0  0.10121  0.44487  0.18192  1.0000
  C   C652      1.0  0.09986  0.45506  0.15339  1.0000
  C   C653      1.0  0.09331  0.43912  0.17614  1.0000
  C   C654      1.0  0.09251  0.44438  0.16182  1.0000
  C   C655      1.0  0.11618  0.46171  0.17983  1.0000
  H   H615      1.0  0.11346  0.46875  0.15292  1.0000
  H   H616      1.0  0.10172  0.44078  0.19308  1.0000
  H   H617      1.0  0.09926  0.45929  0.14225  1.0000
  H   H618      1.0  0.08764  0.43084  0.18282  1.0000
  H   H619      1.0  0.08613  0.44025  0.15730  1.0000
  H   H620      1.0  0.11296  0.45925  0.19169  1.0000
  H   H621      1.0  0.12801  0.45719  0.17662  1.0000
  H   H622      1.0  0.11395  0.47358  0.17623  1.0000
  H   H623      1.0  0.04478  0.55428  0.36171  1.0000
  N   N47       1.0  0.20246  0.54166  0.17453  1.0000
  C   C656      1.0  0.20371  0.52767  0.18188  1.0000
  C   C657      1.0  0.19523  0.55256  0.18144  1.0000
  C   C658      1.0  0.19752  0.52432  0.19653  1.0000
  C   C659      1.0  0.18886  0.54960  0.19604  1.0000
  C   C660      1.0  0.19007  0.53539  0.20362  1.0000
  C   C661      1.0  0.20892  0.54483  0.15917  1.0000
  H   H624      1.0  0.20951  0.51903  0.17641  1.0000
  H   H625      1.0  0.19408  0.56367  0.17566  1.0000
  H   H626      1.0  0.19833  0.51323  0.20236  1.0000
  H   H627      1.0  0.18275  0.55831  0.20134  1.0000
  H   H628      1.0  0.18507  0.53296  0.21494  1.0000
  H   H629      1.0  0.22090  0.54066  0.15724  1.0000
  H   H630      1.0  0.20439  0.53958  0.15350  1.0000
  H   H631      1.0  0.20668  0.55652  0.15434  1.0000
  H   H632      1.0  0.05704  0.58017  0.48040  1.0000
  S   S233      1.0  0.27962  0.39416  0.05350  1.0000
  Fe  Fe120     1.0  0.23338  0.41826  0.12137  1.0000
  S   S234      1.0  0.21716  0.42856  0.10780  1.0000
  H   H633      1.0  0.43031  0.51447  0.00421  1.0000
  S   S235      1.0  0.14919  0.42253  0.22284  1.0000
  C   C662      1.0  0.14595  0.54165  0.07140  1.0000
  C   C663      1.0  0.00927  0.48732  0.12381  1.0000
  C   C664      1.0  0.45960  0.52728  0.99329  1.0000
  H   H634      1.0  0.45637  0.58690  0.06976  1.0000
  C   C665      1.0  0.07338  0.55009  0.32160  1.0000
  N   N48       1.0  0.15113  0.46850  0.10497  1.0000
  C   C666      1.0  0.15198  0.48109  0.09507  1.0000
  C   C667      1.0  0.15832  0.46456  0.11584  1.0000
  C   C668      1.0  0.16085  0.48971  0.09544  1.0000
  C   C669      1.0  0.16726  0.47295  0.11657  1.0000
  C   C670      1.0  0.16862  0.48554  0.10622  1.0000
  C   C671      1.0  0.14225  0.45932  0.10406  1.0000
  H   H635      1.0  0.14627  0.48418  0.08644  1.0000
  H   H636      1.0  0.15749  0.45468  0.12380  1.0000
  H   H637      1.0  0.16204  0.49930  0.08714  1.0000
  H   H638      1.0  0.17334  0.46947  0.12491  1.0000
  H   H639      1.0  0.17587  0.49191  0.10642  1.0000
  H   H640      1.0  0.13072  0.46305  0.10932  1.0000
  H   H641      1.0  0.14298  0.45954  0.09268  1.0000
  H   H642      1.0  0.14618  0.44794  0.10922  1.0000
  H   H643      1.0  0.17966  0.52678  0.15790  1.0000
  H   H644      1.0  0.23039  0.49043  0.09577  1.0000
  Fe  Fe121     1.0  0.13508  0.43425  0.20721  1.0000
  C   C672      1.0  0.09416  0.56121  0.31638  1.0000
  H   H645      1.0  0.06823  0.39917  0.31046  1.0000
  H   H646      1.0  0.38565  0.57522  0.08066  1.0000
  H   H647      1.0  0.37185  0.54276  0.00159  1.0000
  N   N49       1.0  0.13412  0.54222  0.06646  1.0000
  H   H648      1.0  0.17553  0.47731  0.18591  1.0000
  H   H649      1.0  0.22706  0.53624  0.04532  1.0000
  H   H650      1.0  0.23733  0.57684  0.07117  1.0000
  H   H651      1.0  0.05682  0.54346  0.29927  1.0000
  N   N50       1.0  0.17612  0.50656  0.15859  1.0000
  Fe  Fe122     1.0  0.12938  0.42863  0.23958  1.0000
  C   C673      1.0  0.38539  0.49253  0.98993  1.0000
  C   C674      1.0  0.35202  0.52423  0.99640  1.0000
  H   H652      1.0  0.22150  0.49520  0.07193  1.0000
  C   C675      1.0  0.23001  0.52713  0.05376  1.0000
  H   H653      1.0  0.00966  0.48305  0.15905  1.0000
  S   S236      1.0  0.36430  0.56565  0.04403  1.0000
  H   H654      1.0  0.12039  0.52607  0.25471  1.0000
  C   C676      1.0  0.18426  0.50008  0.14762  1.0000
  N   N51       1.0  0.13321  0.49210  0.24967  1.0000
  C   C677      1.0  0.12182  0.49063  0.24527  1.0000
  H   H655      1.0  0.17647  0.39707  0.18823  1.0000
  S   S237      1.0  0.45063  0.57662  0.01781  1.0000
  S   S238      1.0  0.03296  0.58155  0.40381  1.0000
  S   S239      1.0  0.12239  0.41406  0.26081  1.0000
  C   C678      1.0  0.14549  0.47987  0.25166  1.0000
  H   H656      1.0  0.12218  0.48079  0.24241  1.0000
  H   H657      1.0  0.23414  0.43757  0.04385  1.0000
  H   H658      1.0  0.29520  0.40782  0.08411  1.0000
  S   S240      1.0  0.37704  0.40223  0.00742  1.0000
  C   C679      1.0  0.44800  0.53643  0.98751  1.0000
  H   H659      1.0  0.14764  0.47317  0.24377  1.0000
  H   H660      1.0  0.15566  0.48350  0.25011  1.0000
  H   H661      1.0  0.14313  0.47308  0.26257  1.0000
  N   N52       1.0  0.08417  0.55593  0.31170  1.0000
  H   H662      1.0  0.24544  0.53606  0.05827  1.0000
  C   C680      1.0  0.23373  0.40668  0.06934  1.0000
  C   C681      1.0  0.04415  0.51352  0.10153  1.0000
  C   C682      1.0  0.04416  0.56866  0.34112  1.0000
  C   C683      1.0  0.24377  0.51527  0.07199  1.0000
  H   H663      1.0  0.38111  0.53385  0.03539  1.0000
  H   H664      1.0  0.10326  0.55227  0.31931  1.0000
  C   C684      1.0  0.17297  0.49855  0.17222  1.0000
  Fe  Fe123     1.0  0.20087  0.43190  0.12799  1.0000
  H   H665      1.0  0.14397  0.54941  0.04455  1.0000
  H   H666      1.0  0.24856  0.41248  0.04924  1.0000
  H   H667      1.0  0.19020  0.46539  0.16602  1.0000
  H   H668      1.0  0.19563  0.48009  0.14136  1.0000
  N   N53       1.0  0.07794  0.41873  0.27083  1.0000
  H   H669      1.0  0.21530  0.51549  0.05207  1.0000
  H   H670      1.0  0.05724  0.39571  0.29264  1.0000
  C   C685      1.0  0.12301  0.53609  0.07528  1.0000
  H   H671      1.0  0.46945  0.51994  0.01153  1.0000
  C   C686      1.0  0.02359  0.48326  0.12556  1.0000
  C   C687      1.0  0.25579  0.39658  0.09954  1.0000
  H   H672      1.0  0.21669  0.57783  0.09237  1.0000
  C   C688      1.0  0.39961  0.53438  0.04255  1.0000
  C   C689      1.0  0.41460  0.52958  0.04130  1.0000
  C   C690      1.0  0.13620  0.52739  0.09416  1.0000
  H   H673      1.0  0.25175  0.51537  0.07756  1.0000
  C   C691      1.0  0.38168  0.47049  0.98689  1.0000
  C   C692      1.0  0.10891  0.51456  0.24795  1.0000
  H   H674      1.0  0.21618  0.43068  0.18878  1.0000
  C   C693      1.0  0.12394  0.52843  0.08919  1.0000
  S   S241      1.0  0.05745  0.57704  0.34154  1.0000
  H   H675      1.0  0.12670  0.54528  0.04748  1.0000
  H   H676      1.0  0.00596  0.57999  0.36106  1.0000
  C   C694      1.0  0.14608  0.42747  0.17310  1.0000
  C   C695      1.0  0.08122  0.42648  0.25588  1.0000
  H   H677      1.0  0.27222  0.57307  0.10225  1.0000
  H   H678      1.0  0.09180  0.42763  0.27726  1.0000
  H   H679      1.0  0.01752  0.50047  0.08881  1.0000
  C   C696      1.0  0.21698  0.40118  0.09238  1.0000
  C   C697      1.0  0.35082  0.54916  0.98714  1.0000
  C   C698      1.0  0.42252  0.52045  0.03206  1.0000
  Fe  Fe124     1.0  0.34300  0.58144  0.04789  1.0000
  C   C699      1.0  0.17150  0.52224  0.15590  1.0000
  H   H680      1.0  0.13701  0.52157  0.10496  1.0000
  H   H681      1.0  0.09090  0.58066  0.48282  1.0000
  C   C700      1.0  0.12061  0.51601  0.25234  1.0000
  H   H682      1.0  0.19911  0.44366  0.19089  1.0000
  N   N54       1.0  0.19720  0.42242  0.19325  1.0000
  N   N55       1.0  0.35514  0.53673  0.99655  1.0000
  H   H683      1.0  0.07306  0.43672  0.25417  1.0000
  H   H684      1.0  0.09871  0.56973  0.30779  1.0000
  C   C701      1.0  0.20470  0.43246  0.19490  1.0000
  H   H685      1.0  0.01425  0.53858  0.42998  1.0000
  C   C702      1.0  0.06838  0.40987  0.27501  1.0000
  C   C703      1.0  0.21778  0.43459  0.06335  1.0000
  H   H686      1.0  0.43278  0.49884  0.01853  1.0000
  H   H687      1.0  0.04226  0.48583  0.08968  1.0000
  H   H688      1.0  0.07084  0.49493  0.08853  1.0000
  N   N56       1.0  0.08546  0.53571  0.20033  1.0000
  C   C704      1.0  0.08084  0.54732  0.19020  1.0000
  C   C705      1.0  0.08042  0.52346  0.20334  1.0000
  C   C706      1.0  0.07079  0.54689  0.18290  1.0000
  C   C707      1.0  0.07032  0.52270  0.19627  1.0000
  C   C708      1.0  0.06557  0.53447  0.18592  1.0000
  C   C709      1.0  0.09669  0.53600  0.20720  1.0000
  H   H689      1.0  0.08523  0.55684  0.18742  1.0000
  H   H690      1.0  0.08440  0.51410  0.21108  1.0000
  H   H691      1.0  0.06754  0.55589  0.17448  1.0000
  H   H692      1.0  0.06646  0.51293  0.19855  1.0000
  H   H693      1.0  0.05819  0.53385  0.17993  1.0000
  H   H694      1.0  0.09548  0.52923  0.21820  1.0000
  H   H695      1.0  0.10760  0.53195  0.20080  1.0000
  H   H696      1.0  0.09602  0.54706  0.20814  1.0000
  H   H697      1.0  0.22501  0.39885  0.09912  1.0000
  S   S242      1.0  0.21657  0.41948  0.14184  1.0000
  S   S243      1.0  0.42552  0.56883  0.04718  1.0000
  H   H698      1.0  0.35529  0.54265  0.01527  1.0000
  C   C710      1.0  0.31257  0.58162  0.00833  1.0000
  C   C711      1.0  0.17425  0.58603  0.15587  1.0000
  C   C712      1.0  0.21332  0.42492  0.07600  1.0000
  S   S244      1.0  0.39269  0.50150  0.99818  1.0000
  H   H699      1.0  0.20350  0.42857  0.08354  1.0000
  C   C713      1.0  0.18915  0.48518  0.15008  1.0000
  H   H700      1.0  0.35173  0.57910  0.99755  1.0000
  C   C714      1.0  0.23049  0.43013  0.05363  1.0000
  H   H701      1.0  0.08575  0.41524  0.30268  1.0000
  H   H702      1.0  0.06383  0.40789  0.26722  1.0000
  C   C715      1.0  0.22502  0.58374  0.09054  1.0000
  H   H703      1.0  0.17019  0.52691  0.14473  1.0000
  N   N57       1.0  0.04830  0.50059  0.09766  1.0000
  H   H704      1.0  0.20561  0.42578  0.17077  1.0000
  C   C716      1.0  0.28346  0.57427  0.08019  1.0000
  C   C717      1.0  0.13302  0.55003  0.05186  1.0000
  C   C718      1.0  0.18607  0.47693  0.16393  1.0000
  H   H705      1.0  0.09474  0.56075  0.28971  1.0000
  H   H706      1.0  0.08121  0.41991  0.24855  1.0000
  C   C719      1.0  0.24027  0.52704  0.06102  1.0000
  H   H707      1.0  0.12764  0.56145  0.05173  1.0000
  C   C720      1.0  0.40105  0.52100  0.02527  1.0000
  C   C721      1.0  0.06472  0.54664  0.30276  1.0000
  S   S245      1.0  0.16794  0.50183  0.99630  1.0000
  C   C722      1.0  0.02162  0.57757  0.29057  1.0000
  C   C723      1.0  0.15859  0.43262  0.17101  1.0000
  H   H708      1.0  0.13386  0.41948  0.16345  1.0000
  H   H709      1.0  0.21146  0.44552  0.06118  1.0000
  H   H710      1.0  0.08839  0.56613  0.32574  1.0000
  H   H711      1.0  0.07213  0.54939  0.33290  1.0000
  H   H712      1.0  0.43418  0.51682  0.03112  1.0000
  S   S246      1.0  0.42918  0.57890  0.08068  1.0000
  N   N58       1.0  0.23707  0.50400  0.07576  1.0000
  H   H713      1.0  0.06636  0.49271  0.10774  1.0000
  C   C724      1.0  0.24048  0.49176  0.08744  1.0000
  C   C725      1.0  0.06470  0.40282  0.28933  1.0000
  C   C726      1.0  0.22343  0.51548  0.05752  1.0000
  H   H714      1.0  0.35549  0.51432  0.00380  1.0000
  H   H715      1.0  0.16658  0.50368  0.18096  1.0000
  H   H716      1.0  0.07723  0.55310  0.28144  1.0000
  H   H717      1.0  0.16077  0.52563  0.16294  1.0000
  H   H718      1.0  0.17846  0.43712  0.15612  1.0000
  C   C727      1.0  0.23647  0.58338  0.07854  1.0000
  Fe  Fe125     1.0  0.46151  0.58266  0.03150  1.0000
  H   H719      1.0  0.29256  0.57323  0.05815  1.0000
  C   C728      1.0  0.08064  0.41384  0.29502  1.0000
  H   H720      1.0  0.41777  0.50268  0.01017  1.0000
  S   S247      1.0  0.06316  0.58879  0.29969  1.0000
  C   C729      1.0  0.30963  0.57196  0.00218  1.0000
  C   C730      1.0  0.07612  0.55207  0.29278  1.0000
  H   H721      1.0  0.20482  0.43128  0.20627  1.0000
  H   H722      1.0  0.25613  0.59047  0.06719  1.0000
  C   C731      1.0  0.14352  0.42343  0.16190  1.0000
  C   C732      1.0  0.26455  0.40827  0.07495  1.0000
  C   C733      1.0  0.39275  0.53001  0.03456  1.0000
  H   H723      1.0  0.42845  0.55281  0.99102  1.0000
  H   H724      1.0  0.03862  0.58580  0.29292  1.0000
  C   C734      1.0  0.02508  0.50442  0.09202  1.0000
  H   H725      1.0  0.42016  0.53307  0.04726  1.0000
  C   C735      1.0  0.00573  0.50875  0.13249  1.0000
  H   H726      1.0  0.30988  0.58030  0.01982  1.0000
  H   H727      1.0  0.35309  0.55912  0.98734  1.0000
  S   S248      1.0  0.02046  0.58519  0.47484  1.0000
  S   S249      1.0  0.00736  0.52802  0.40960  1.0000
  C   C736      1.0  0.18156  0.58629  0.14160  1.0000
  C   C737      1.0  0.02248  0.39288  0.32327  1.0000
  H   H728      1.0  0.39331  0.54165  0.04952  1.0000
  C   C738      1.0  0.01467  0.40446  0.32956  1.0000
  C   C739      1.0  0.38724  0.47757  0.99382  1.0000
  C   C740      1.0  0.03907  0.49611  0.09269  1.0000
  H   H729      1.0  0.39570  0.51782  0.01891  1.0000
  H   H730      1.0  0.02677  0.53202  0.10473  1.0000
  C   C741      1.0  0.06285  0.49167  0.09850  1.0000
  C   C742      1.0  0.01484  0.54276  0.40751  1.0000
  C   C743      1.0  0.02810  0.58852  0.29038  1.0000
  H   H731      1.0  0.02023  0.40979  0.33374  1.0000
  C   C744      1.0  0.01692  0.54560  0.41963  1.0000
  H   H732      1.0  0.11972  0.49912  0.99362  1.0000
  S   S250      1.0  0.01325  0.51477  0.37385  1.0000
  C   C745      1.0  0.28864  0.39263  0.10348  1.0000
  S   S251      1.0  0.01304  0.54439  0.33730  1.0000
  S   S252      1.0  0.32192  0.57937  0.04492  1.0000
  S   S253      1.0  0.00344  0.47694  0.11595  1.0000
  H   H733      1.0  0.06307  0.48011  0.10009  1.0000
  S   S254      1.0  0.24815  0.39718  0.11757  1.0000
  H   H734      1.0  0.09225  0.42882  0.25288  1.0000
  C   C746      1.0  0.00442  0.58507  0.35030  1.0000
  S   S255      1.0  0.29304  0.58684  0.08029  1.0000
  H   H735      1.0  0.00282  0.39246  0.37318  1.0000
  C   C747      1.0  0.27036  0.39490  0.07123  1.0000
  H   H736      1.0  0.07914  0.58386  0.26888  1.0000
  H   H737      1.0  0.46772  0.52005  0.98724  1.0000
  C   C748      1.0  0.38515  0.58470  0.07203  1.0000
  Fe  Fe126     1.0  0.00263  0.53353  0.35895  1.0000
  H   H738      1.0  0.04327  0.58883  0.37405  1.0000
  C   C749      1.0  0.13129  0.49674  0.98916  1.0000
  S   S256      1.0  0.10241  0.58958  0.27806  1.0000
  H   H739      1.0  0.00232  0.50646  0.16595  1.0000
  C   C750      1.0  0.15586  0.49669  0.98971  1.0000
  H   H740      1.0  0.28257  0.40077  0.10954  1.0000
  C   C751      1.0  0.24709  0.59110  0.07637  1.0000
  H   H741      1.0  0.09860  0.39171  0.23852  1.0000
  H   H742      1.0  0.34216  0.51399  0.98635  1.0000
  C   C752      1.0  0.34455  0.52394  0.98650  1.0000
  Fe  Fe127     1.0  0.40538  0.53464  0.95101  1.0000
  S   S257      1.0  0.40478  0.53127  0.92993  1.0000
  S   S258      1.0  0.41930  0.51766  0.96456  1.0000
  S   S259      1.0  0.38506  0.43990  0.94758  1.0000
  H   H743      1.0  0.18722  0.53206  0.94280  1.0000
  H   H744      1.0  0.05693  0.58950  0.68963  1.0000
  S   S260      1.0  0.36072  0.41921  0.94197  1.0000
  H   H745      1.0  0.06849  0.57930  0.60290  1.0000
  Fe  Fe128     1.0  0.11543  0.54243  0.71596  1.0000
  H   H746      1.0  0.18339  0.53821  0.87969  1.0000
  S   S261      1.0  0.13628  0.52995  0.72277  1.0000
  Fe  Fe129     1.0  0.09323  0.53491  0.70531  1.0000
  S   S262      1.0  0.08765  0.51752  0.69900  1.0000
  S   S263      1.0  0.09756  0.53072  0.72707  1.0000
  Fe  Fe130     1.0  0.05699  0.49432  0.63577  1.0000
  S   S264      1.0  0.04258  0.50636  0.62046  1.0000
  S   S265      1.0  0.05724  0.47135  0.64740  1.0000
  Fe  Fe131     1.0  0.07213  0.51900  0.62970  1.0000
  S   S266      1.0  0.05943  0.53255  0.61337  1.0000
  S   S267      1.0  0.08705  0.53030  0.63348  1.0000
  Fe  Fe132     1.0  0.04056  0.52522  0.62946  1.0000
  H   H747      1.0  0.01724  0.44511  0.84098  1.0000
  Fe  Fe133     1.0  0.06297  0.51232  0.60607  1.0000
  S   S268      1.0  0.06951  0.50880  0.58377  1.0000
  S   S269      1.0  0.05296  0.51267  0.64633  1.0000
  S   S270      1.0  0.07766  0.49935  0.62081  1.0000
  H   H748      1.0  0.01531  0.56887  0.61320  1.0000
  H   H749      1.0  0.05332  0.52632  0.67129  1.0000
  H   H750      1.0  0.04961  0.41324  0.66640  1.0000
  C   C753      1.0  0.13512  0.44471  0.82696  1.0000
  Fe  Fe134     1.0  0.04348  0.41070  0.62314  1.0000
  S   S271      1.0  0.03524  0.43474  0.61854  1.0000
  H   H751      1.0  0.05293  0.41857  0.89933  1.0000
  H   H752      1.0  0.06857  0.58601  0.70945  1.0000
  C   C754      1.0  0.38754  0.49597  0.93655  1.0000
  Fe  Fe135     1.0  0.12518  0.41979  0.79031  1.0000
  S   S272      1.0  0.10965  0.40811  0.78818  1.0000
  S   S273      1.0  0.12306  0.44361  0.78188  1.0000
  H   H753      1.0  0.45607  0.41741  0.93925  1.0000
  S   S274      1.0  0.36132  0.43043  0.97669  1.0000
  Fe  Fe136     1.0  0.15793  0.52070  0.79244  1.0000
  S   S275      1.0  0.15256  0.52372  0.81500  1.0000
  S   S276      1.0  0.15438  0.54007  0.77456  1.0000
  Fe  Fe137     1.0  0.16289  0.48839  0.80160  1.0000
  S   S277      1.0  0.15766  0.48874  0.82475  1.0000
  S   S278      1.0  0.16974  0.46637  0.79681  1.0000
  Fe  Fe138     1.0  0.13953  0.50718  0.81958  1.0000
  S   S279      1.0  0.11720  0.50958  0.83360  1.0000
  Fe  Fe139     1.0  0.17143  0.50507  0.81820  1.0000
  S   S280      1.0  0.18620  0.49967  0.83366  1.0000
  S   S281      1.0  0.14341  0.50554  0.79693  1.0000
  S   S282      1.0  0.17810  0.50339  0.79514  1.0000
  Fe  Fe140     1.0  0.24929  0.53191  0.88343  1.0000
  S   S283      1.0  0.22855  0.54629  0.87792  1.0000
  S   S284      1.0  0.26911  0.53966  0.88329  1.0000
  Fe  Fe141     1.0  0.23844  0.50483  0.88781  1.0000
  S   S285      1.0  0.21674  0.51697  0.88314  1.0000
  S   S286      1.0  0.24294  0.48063  0.89392  1.0000
  Fe  Fe142     1.0  0.22927  0.53080  0.86498  1.0000
  S   S287      1.0  0.22137  0.53880  0.84422  1.0000
  Fe  Fe143     1.0  0.21754  0.53132  0.89639  1.0000
  S   S288      1.0  0.19693  0.54028  0.91091  1.0000
  S   S289      1.0  0.25119  0.51762  0.86862  1.0000
  S   S290      1.0  0.23813  0.51796  0.90293  1.0000
  Fe  Fe144     1.0  0.22389  0.43110  0.85818  1.0000
  S   S291      1.0  0.20221  0.42693  0.85972  1.0000
  S   S292      1.0  0.22688  0.45378  0.85172  1.0000
  Fe  Fe145     1.0  0.20708  0.40973  0.87879  1.0000
  C   C755      1.0  0.02876  0.44368  0.83598  1.0000
  Fe  Fe146     1.0  0.21455  0.41021  0.84711  1.0000
  S   S293      1.0  0.22757  0.41550  0.87843  1.0000
  Fe  Fe147     1.0  0.16299  0.47231  0.92688  1.0000
  S   S294      1.0  0.15390  0.47957  0.90727  1.0000
  S   S295      1.0  0.18572  0.45929  0.92534  1.0000
  Fe  Fe148     1.0  0.13533  0.48594  0.94546  1.0000
  S   S296      1.0  0.12346  0.49419  0.92755  1.0000
  H   H754      1.0  0.04276  0.56192  0.49361  1.0000
  Fe  Fe149     1.0  0.13401  0.47273  0.92206  1.0000
  S   S297      1.0  0.12455  0.45812  0.91561  1.0000
  Fe  Fe150     1.0  0.14438  0.50023  0.91445  1.0000
  S   S298      1.0  0.14544  0.52175  0.89992  1.0000
  S   S299      1.0  0.14389  0.46383  0.94128  1.0000
  S   S300      1.0  0.15542  0.49368  0.93273  1.0000
  Fe  Fe151     1.0  0.07211  0.43798  0.87553  1.0000
  S   S301      1.0  0.06060  0.44376  0.85768  1.0000
  C   C756      1.0  0.34875  0.40010  0.93673  1.0000
  Fe  Fe152     1.0  0.06503  0.46845  0.87913  1.0000
  S   S302      1.0  0.05238  0.47688  0.86186  1.0000
  S   S303      1.0  0.06852  0.48368  0.89010  1.0000
  Fe  Fe153     1.0  0.04329  0.45714  0.87139  1.0000
  S   S304      1.0  0.01969  0.45809  0.87357  1.0000
  Fe  Fe154     1.0  0.07069  0.46273  0.84973  1.0000
  S   S305      1.0  0.08170  0.46927  0.82681  1.0000
  S   S306      1.0  0.05404  0.45001  0.89004  1.0000
  S   S307      1.0  0.08415  0.45571  0.86618  1.0000
  C   C757      1.0  0.07174  0.40404  0.85145  1.0000
  C   C758      1.0  0.01538  0.44273  0.87207  1.0000
  C   C759      1.0  0.02610  0.43030  0.87031  1.0000
  C   C760      1.0  0.09804  0.39796  0.84700  1.0000
  C   C761      1.0  0.05493  0.40584  0.68709  1.0000
  H   H755      1.0  0.02571  0.57356  0.58166  1.0000
  H   H756      1.0  0.10453  0.44872  0.83809  1.0000
  H   H757      1.0  0.03732  0.43015  0.86940  1.0000
  C   C762      1.0  0.01192  0.56069  0.65231  1.0000
  H   H758      1.0  0.07963  0.43249  0.82793  1.0000
  C   C763      1.0  0.15968  0.52234  0.94523  1.0000
  C   C764      1.0  0.10838  0.46523  0.90953  1.0000
  C   C765      1.0  0.10089  0.47943  0.90951  1.0000
  C   C766      1.0  0.08824  0.48492  0.90407  1.0000
  C   C767      1.0  0.08317  0.47625  0.89855  1.0000
  C   C768      1.0  0.09038  0.46192  0.89907  1.0000
  C   C769      1.0  0.10297  0.45643  0.90454  1.0000
  H   H759      1.0  0.10493  0.48623  0.91347  1.0000
  H   H760      1.0  0.08258  0.49599  0.90378  1.0000
  H   H761      1.0  0.08635  0.45509  0.89513  1.0000
  H   H762      1.0  0.10864  0.44538  0.90473  1.0000
  H   H763      1.0  0.15583  0.48396  0.96155  1.0000
  C   C770      1.0  0.18893  0.42069  0.90788  1.0000
  C   C771      1.0  0.17532  0.42919  0.91247  1.0000
  C   C772      1.0  0.17429  0.44092  0.91810  1.0000
  C   C773      1.0  0.18684  0.44396  0.91945  1.0000
  C   C774      1.0  0.20042  0.43512  0.91536  1.0000
  C   C775      1.0  0.20146  0.42354  0.90950  1.0000
  H   H764      1.0  0.16559  0.42703  0.91123  1.0000
  H   H765      1.0  0.16377  0.44768  0.92117  1.0000
  H   H766      1.0  0.21014  0.43741  0.91644  1.0000
  H   H767      1.0  0.21197  0.41685  0.90627  1.0000
  C   C776      1.0  0.18232  0.53502  0.90865  1.0000
  C   C777      1.0  0.16948  0.54517  0.90669  1.0000
  C   C778      1.0  0.15821  0.54121  0.90370  1.0000
  C   C779      1.0  0.15955  0.52697  0.90326  1.0000
  C   C780      1.0  0.17216  0.51676  0.90576  1.0000
  C   C781      1.0  0.18365  0.52080  0.90819  1.0000
  H   H768      1.0  0.16843  0.55618  0.90706  1.0000
  H   H769      1.0  0.14839  0.54911  0.90194  1.0000
  H   H770      1.0  0.17310  0.50569  0.90573  1.0000
  H   H771      1.0  0.19344  0.51286  0.90997  1.0000
  C   C782      1.0  0.23804  0.47322  0.88247  1.0000
  C   C783      1.0  0.23669  0.48112  0.86878  1.0000
  C   C784      1.0  0.23316  0.47504  0.85950  1.0000
  C   C785      1.0  0.23083  0.46107  0.86390  1.0000
  C   C786      1.0  0.23215  0.45313  0.87763  1.0000
  C   C787      1.0  0.23584  0.45918  0.88688  1.0000
  H   H772      1.0  0.23872  0.49183  0.86523  1.0000
  H   H773      1.0  0.23245  0.48115  0.84880  1.0000
  H   H774      1.0  0.23045  0.44233  0.88114  1.0000
  H   H775      1.0  0.23683  0.45304  0.89752  1.0000
  C   C788      1.0  0.19694  0.51054  0.83502  1.0000
  C   C789      1.0  0.20573  0.50493  0.84504  1.0000
  C   C790      1.0  0.21327  0.51352  0.84784  1.0000
  C   C791      1.0  0.21260  0.52767  0.84020  1.0000
  C   C792      1.0  0.20448  0.53310  0.82953  1.0000
  C   C793      1.0  0.19646  0.52463  0.82709  1.0000
  H   H776      1.0  0.20658  0.49390  0.85085  1.0000
  H   H777      1.0  0.21971  0.50914  0.85582  1.0000
  H   H778      1.0  0.20420  0.54396  0.82332  1.0000
  H   H779      1.0  0.18988  0.52901  0.81917  1.0000
  C   C794      1.0  0.10729  0.49896  0.83072  1.0000
  C   C795      1.0  0.09270  0.50002  0.83775  1.0000
  C   C796      1.0  0.08475  0.49115  0.83616  1.0000
  C   C797      1.0  0.09122  0.48152  0.82717  1.0000
  C   C798      1.0  0.10566  0.48082  0.81966  1.0000
  C   C799      1.0  0.11380  0.48934  0.82167  1.0000
  H   H780      1.0  0.08753  0.50758  0.84457  1.0000
  H   H781      1.0  0.07356  0.49184  0.84188  1.0000
  H   H782      1.0  0.11068  0.47335  0.81272  1.0000
  H   H783      1.0  0.12515  0.48821  0.81644  1.0000
  C   C800      1.0  0.13588  0.44992  0.78626  1.0000
  C   C801      1.0  0.13371  0.46457  0.78567  1.0000
  C   C802      1.0  0.14401  0.46974  0.78896  1.0000
  C   C803      1.0  0.15661  0.46030  0.79262  1.0000
  C   C804      1.0  0.15876  0.44565  0.79319  1.0000
  C   C805      1.0  0.14832  0.44044  0.79022  1.0000
  H   H784      1.0  0.12403  0.47193  0.78277  1.0000
  H   H785      1.0  0.14228  0.48104  0.78842  1.0000
  H   H786      1.0  0.16847  0.43830  0.79603  1.0000
  H   H787      1.0  0.15005  0.42912  0.79072  1.0000
  C   C806      1.0  0.02063  0.57249  0.74653  1.0000
  H   H788      1.0  0.37600  0.54388  0.94470  1.0000
  C   C807      1.0  0.10372  0.46818  0.96617  1.0000
  H   H789      1.0  0.06767  0.55990  0.56604  1.0000
  C   C808      1.0  0.40500  0.49154  0.95153  1.0000
  H   H790      1.0  0.26630  0.44817  0.89312  1.0000
  N   N59       1.0  0.01704  0.41945  0.90506  1.0000
  H   H791      1.0  0.10796  0.39825  0.64362  1.0000
  C   C809      1.0  0.16799  0.39496  0.82652  1.0000
  C   C810      1.0  0.09738  0.40161  0.85976  1.0000
  C   C811      1.0  0.03994  0.55692  0.65630  1.0000
  C   C812      1.0  0.07430  0.52378  0.57109  1.0000
  C   C813      1.0  0.08402  0.52210  0.55811  1.0000
  C   C814      1.0  0.08805  0.53412  0.54803  1.0000
  C   C815      1.0  0.08198  0.54783  0.55077  1.0000
  C   C816      1.0  0.07214  0.54945  0.56368  1.0000
  C   C817      1.0  0.06847  0.53744  0.57390  1.0000
  H   H792      1.0  0.08859  0.51150  0.55594  1.0000
  H   H793      1.0  0.09575  0.53279  0.53809  1.0000
  C   C818      1.0  0.06789  0.57966  0.65880  1.0000
  H   H794      1.0  0.06093  0.53880  0.58386  1.0000
  C   C819      1.0  0.04992  0.46127  0.64040  1.0000
  C   C820      1.0  0.04006  0.46787  0.63151  1.0000
  C   C821      1.0  0.03534  0.45961  0.62514  1.0000
  C   C822      1.0  0.04045  0.44469  0.62761  1.0000
  C   C823      1.0  0.05013  0.43812  0.63668  1.0000
  C   C824      1.0  0.05468  0.44634  0.64321  1.0000
  H   H795      1.0  0.03597  0.47931  0.62960  1.0000
  H   H796      1.0  0.42163  0.39997  0.97036  1.0000
  H   H797      1.0  0.05455  0.42681  0.63833  1.0000
  H   H798      1.0  0.06235  0.44116  0.65003  1.0000
  N   N60       1.0  0.12568  0.43583  0.83378  1.0000
  H   H799      1.0  0.04692  0.54400  0.64059  1.0000
  C   C825      1.0  0.13998  0.53279  0.73788  1.0000
  C   C826      1.0  0.13652  0.54650  0.74064  1.0000
  C   C827      1.0  0.14103  0.54868  0.75189  1.0000
  C   C828      1.0  0.14854  0.53709  0.76071  1.0000
  C   C829      1.0  0.15148  0.52330  0.75828  1.0000
  C   C830      1.0  0.14742  0.52120  0.74676  1.0000
  H   H800      1.0  0.13100  0.55553  0.73369  1.0000
  H   H801      1.0  0.13886  0.55939  0.75363  1.0000
  H   H802      1.0  0.15742  0.51433  0.76491  1.0000
  H   H803      1.0  0.15027  0.51060  0.74459  1.0000
  C   C831      1.0  0.08763  0.52117  0.68075  1.0000
  C   C832      1.0  0.08359  0.51154  0.67553  1.0000
  C   C833      1.0  0.08336  0.51433  0.66103  1.0000
  C   C834      1.0  0.08730  0.52668  0.65166  1.0000
  C   C835      1.0  0.09141  0.53628  0.65685  1.0000
  C   C836      1.0  0.09143  0.53361  0.67142  1.0000
  H   H804      1.0  0.08069  0.50189  0.68270  1.0000
  H   H805      1.0  0.08040  0.50675  0.65706  1.0000
  H   H806      1.0  0.09455  0.54578  0.64959  1.0000
  H   H807      1.0  0.09449  0.54111  0.67538  1.0000
  C   C837      1.0  0.43310  0.39944  0.96586  1.0000
  H   H808      1.0  0.18108  0.52784  0.85675  1.0000
  C   C838      1.0  0.17288  0.40585  0.81540  1.0000
  C   C839      1.0  0.25761  0.55383  0.90572  1.0000
  H   H809      1.0  0.24748  0.55094  0.90676  1.0000
  C   C840      1.0  0.19261  0.45446  0.88060  1.0000
  H   H810      1.0  0.02778  0.46479  0.61821  1.0000
  H   H811      1.0  0.09706  0.53834  0.75761  1.0000
  C   C841      1.0  0.18442  0.41127  0.81602  1.0000
  C   C842      1.0  0.17334  0.53821  0.85780  1.0000
  H   H812      1.0  0.18860  0.41922  0.80709  1.0000
  H   H813      1.0  0.16820  0.40965  0.80607  1.0000
  C   C843      1.0  0.19090  0.40611  0.82790  1.0000
  C   C844      1.0  0.38741  0.53443  0.92664  1.0000
  C   C845      1.0  0.38597  0.53096  0.91457  1.0000
  C   C846      1.0  0.37221  0.53379  0.91155  1.0000
  C   C847      1.0  0.35989  0.54019  0.92056  1.0000
  C   C848      1.0  0.36129  0.54338  0.93276  1.0000
  C   C849      1.0  0.37503  0.54065  0.93571  1.0000
  H   H814      1.0  0.39552  0.52622  0.90745  1.0000
  H   H815      1.0  0.37116  0.53131  0.90207  1.0000
  C   C850      1.0  0.11068  0.44042  0.83189  1.0000
  H   H816      1.0  0.02979  0.46500  0.83596  1.0000
  C   C851      1.0  0.01551  0.54347  0.60221  1.0000
  H   H817      1.0  0.08926  0.51652  0.77376  1.0000
  S   S308      1.0  0.23618  0.41561  0.84417  1.0000
  N   N61       1.0  0.20222  0.46148  0.81497  1.0000
  C   C852      1.0  0.20415  0.46924  0.80116  1.0000
  C   C853      1.0  0.20713  0.46481  0.82488  1.0000
  C   C854      1.0  0.21142  0.48050  0.79692  1.0000
  C   C855      1.0  0.21452  0.47593  0.82099  1.0000
  C   C856      1.0  0.21657  0.48388  0.80695  1.0000
  C   C857      1.0  0.19403  0.45015  0.81941  1.0000
  H   H818      1.0  0.19985  0.46690  0.79340  1.0000
  H   H819      1.0  0.20522  0.45898  0.83591  1.0000
  H   H820      1.0  0.21271  0.48678  0.78603  1.0000
  H   H821      1.0  0.21817  0.47866  0.82897  1.0000
  H   H822      1.0  0.22187  0.49282  0.80396  1.0000
  H   H823      1.0  0.18228  0.45481  0.82289  1.0000
  H   H824      1.0  0.19549  0.44491  0.81048  1.0000
  H   H825      1.0  0.19781  0.44160  0.82829  1.0000
  H   H826      1.0  0.06350  0.41171  0.68426  1.0000
  C   C858      1.0  0.10607  0.52464  0.79495  1.0000
  C   C859      1.0  0.06787  0.55336  0.51389  1.0000
  S   S309      1.0  0.44690  0.53597  0.97045  1.0000
  N   N62       1.0  0.11430  0.45621  0.96927  1.0000
  H   H827      1.0  0.37601  0.51180  0.97636  1.0000
  H   H828      1.0  0.13785  0.52260  0.94447  1.0000
  C   C860      1.0  0.28396  0.41641  0.86923  1.0000
  H   H829      1.0  0.26020  0.43784  0.84890  1.0000
  C   C861      1.0  0.14743  0.52936  0.97162  1.0000
  H   H830      1.0  0.05616  0.46143  0.82505  1.0000
  N   N63       1.0  0.39794  0.48620  0.94488  1.0000
  C   C862      1.0  0.33191  0.41204  0.98067  1.0000
  C   C863      1.0  0.09909  0.39207  0.66623  1.0000
  C   C864      1.0  0.01792  0.40586  0.90385  1.0000
  H   H831      1.0  0.09093  0.58077  0.55903  1.0000
  N   N64       1.0  0.12405  0.49620  0.72183  1.0000
  C   C865      1.0  0.13361  0.49375  0.73036  1.0000
  C   C866      1.0  0.11246  0.48974  0.72646  1.0000
  C   C867      1.0  0.13168  0.48461  0.74394  1.0000
  C   C868      1.0  0.11024  0.48049  0.73995  1.0000
  C   C869      1.0  0.11997  0.47786  0.74870  1.0000
  C   C870      1.0  0.12674  0.50495  0.70725  1.0000
  H   H832      1.0  0.14282  0.49887  0.72669  1.0000
  H   H833      1.0  0.10490  0.49169  0.71966  1.0000
  H   H834      1.0  0.13928  0.48267  0.75068  1.0000
  H   H835      1.0  0.10112  0.47527  0.74356  1.0000
  H   H836      1.0  0.11851  0.47053  0.75910  1.0000
  H   H837      1.0  0.13223  0.49793  0.69954  1.0000
  H   H838      1.0  0.11637  0.51153  0.70438  1.0000
  H   H839      1.0  0.13364  0.51251  0.70609  1.0000
  N   N65       1.0  0.05844  0.43978  0.82396  1.0000
  C   C871      1.0  0.05163  0.42872  0.82684  1.0000
  C   C872      1.0  0.05072  0.45276  0.82696  1.0000
  C   C873      1.0  0.03670  0.43050  0.83288  1.0000
  C   C874      1.0  0.37766  0.50034  0.97938  1.0000
  C   C875      1.0  0.32156  0.40290  0.96636  1.0000
  C   C876      1.0  0.03229  0.53860  0.58040  1.0000
  Fe  Fe155     1.0  0.39985  0.52061  0.98248  1.0000
  H   H840      1.0  0.02868  0.43478  0.90455  1.0000
  C   C877      1.0  0.37389  0.47842  0.97637  1.0000
  H   H841      1.0  0.00378  0.57836  0.60067  1.0000
  C   C878      1.0  0.09482  0.56026  0.57376  1.0000
  C   C879      1.0  0.03147  0.39657  0.90074  1.0000
  C   C880      1.0  0.35708  0.40223  0.94494  1.0000
  C   C881      1.0  0.00431  0.52773  0.68851  1.0000
  Fe  Fe156     1.0  0.23821  0.39946  0.86481  1.0000
  Fe  Fe157     1.0  0.42453  0.53610  0.96929  1.0000
  H   H842      1.0  0.15675  0.44795  0.82366  1.0000
  H   H843      1.0  0.12312  0.55216  0.78204  1.0000
  S   S310      1.0  0.00853  0.55703  0.71775  1.0000
  C   C882      1.0  0.05594  0.55259  0.50939  1.0000
  H   H844      1.0  0.18162  0.55994  0.83684  1.0000
  H   H845      1.0  0.16808  0.54203  0.84851  1.0000
  S   S311      1.0  0.05253  0.39974  0.64255  1.0000
  C   C883      1.0  0.02066  0.52653  0.70358  1.0000
  H   H846      1.0  0.06397  0.57114  0.66728  1.0000
  H   H847      1.0  0.39530  0.46758  0.94027  1.0000
  H   H848      1.0  0.00332  0.44043  0.90305  1.0000
  H   H849      1.0  0.05475  0.39420  0.89647  1.0000
  C   C884      1.0  0.06951  0.47285  0.60493  1.0000
  C   C885      1.0  0.16116  0.49117  0.97736  1.0000
  H   H850      1.0  0.16465  0.42495  0.84027  1.0000
  H   H851      1.0  0.26508  0.53138  0.93950  1.0000
  H   H852      1.0  0.37827  0.49106  0.93775  1.0000
  C   C886      1.0  0.14465  0.52417  0.95052  1.0000
  C   C887      1.0  0.00756  0.41761  0.87232  1.0000
  C   C888      1.0  0.01417  0.56719  0.66199  1.0000
  S   S312      1.0  0.12440  0.49014  0.96738  1.0000
  S   S313      1.0  0.02039  0.54180  0.63484  1.0000
  C   C889      1.0  0.04724  0.40657  0.67705  1.0000
  H   H853      1.0  0.00488  0.52205  0.68018  1.0000
  H   H854      1.0  0.35924  0.58666  0.88958  1.0000
  C   C890      1.0  0.07562  0.56401  0.50626  1.0000
  H   H855      1.0  0.32360  0.42193  0.98242  1.0000
  H   H856      1.0  0.32139  0.52908  0.90826  1.0000
  N   N66       1.0  0.27559  0.43990  0.87439  1.0000
  C   C891      1.0  0.28367  0.42617  0.87704  1.0000
  C   C892      1.0  0.26750  0.44416  0.86420  1.0000
  S   S314      1.0  0.39377  0.43257  0.97866  1.0000
  C   C893      1.0  0.11098  0.44682  0.95103  1.0000
  C   C894      1.0  0.43349  0.57882  0.96604  1.0000
  C   C895      1.0  0.02511  0.57307  0.75842  1.0000
  H   H857      1.0  0.07782  0.44745  0.81284  1.0000
  H   H858      1.0  0.26113  0.45504  0.86206  1.0000
  H   H859      1.0  0.03950  0.55705  0.56570  1.0000
  S   S315      1.0  0.05122  0.58489  0.52733  1.0000
  H   H860      1.0  0.10186  0.55491  0.56539  1.0000
  S   S316      1.0  0.30740  0.56266  0.97967  1.0000
  C   C896      1.0  0.07112  0.40812  0.86394  1.0000
  C   C897      1.0  0.04617  0.52616  0.69378  1.0000
  H   H861      1.0  0.40290  0.50300  0.95074  1.0000
  C   C898      1.0  0.19251  0.56853  0.84724  1.0000
  H   H862      1.0  0.38282  0.50611  0.94036  1.0000
  C   C899      1.0  0.09966  0.53432  0.76809  1.0000
  H   H863      1.0  0.39304  0.49856  0.92510  1.0000
  C   C900      1.0  0.03434  0.52627  0.70543  1.0000
  H   H864      1.0  0.43254  0.39483  0.93682  1.0000
  C   C901      1.0  0.03774  0.55047  0.64652  1.0000
  N   N67       1.0  0.19167  0.46927  0.88099  1.0000
  H   H865      1.0  0.20249  0.39235  0.78838  1.0000
  C   C902      1.0  0.03039  0.52655  0.67898  1.0000
  H   H866      1.0  0.02890  0.52687  0.66854  1.0000
  H   H867      1.0  0.28831  0.53799  0.93668  1.0000
  H   H868      1.0  0.10975  0.55060  0.79874  1.0000
  C   C903      1.0  0.45252  0.40931  0.94839  1.0000
  C   C904      1.0  0.31270  0.53275  0.91717  1.0000
  C   C905      1.0  0.27440  0.52807  0.93131  1.0000
  H   H869      1.0  0.03573  0.52631  0.71580  1.0000
  H   H870      1.0  0.05076  0.55518  0.65801  1.0000
  S   S317      1.0  0.34300  0.54502  0.91592  1.0000
  S   S318      1.0  0.20677  0.41153  0.82727  1.0000
  H   H871      1.0  0.10854  0.53424  0.58396  1.0000
  N   N68       1.0  0.07329  0.45717  0.60731  1.0000
  C   C906      1.0  0.06816  0.45044  0.60019  1.0000
  C   C907      1.0  0.08237  0.44938  0.61629  1.0000
  C   C908      1.0  0.07191  0.43551  0.60216  1.0000
  C   C909      1.0  0.08632  0.43440  0.61853  1.0000
  C   C910      1.0  0.08103  0.42745  0.61141  1.0000
  H   H872      1.0  0.17271  0.48908  0.97270  1.0000
  H   H873      1.0  0.06076  0.45656  0.59326  1.0000
  H   H874      1.0  0.08623  0.45472  0.62211  1.0000
  H   H875      1.0  0.06737  0.43023  0.59687  1.0000
  H   H876      1.0  0.09318  0.42817  0.62595  1.0000
  C   C911      1.0  0.12994  0.42315  0.84291  1.0000
  C   C912      1.0  0.43768  0.40996  0.95407  1.0000
  C   C913      1.0  0.02360  0.53374  0.59361  1.0000
  S   S319      1.0  0.08594  0.39709  0.82578  1.0000
  H   H877      1.0  0.03869  0.53116  0.57365  1.0000
  N   N69       1.0  0.16840  0.52365  0.95311  1.0000
  H   H878      1.0  0.47429  0.39775  0.95007  1.0000
  H   H879      1.0  0.20201  0.44700  0.88475  1.0000
  S   S320      1.0  0.27336  0.57279  0.92759  1.0000
  C   C914      1.0  0.18461  0.55904  0.84675  1.0000
  H   H880      1.0  0.18251  0.45099  0.88715  1.0000
  H   H881      1.0  0.19425  0.45355  0.86942  1.0000
  H   H882      1.0  0.10593  0.39704  0.66924  1.0000
  H   H883      1.0  0.17781  0.47798  0.86616  1.0000
  S   S321      1.0  0.11216  0.54510  0.69379  1.0000
  C   C915      1.0  0.18343  0.48021  0.87293  1.0000
  C   C916      1.0  0.28759  0.53179  0.92965  1.0000
  H   H884      1.0  0.20480  0.46345  0.89636  1.0000
  N   N70       1.0  0.29917  0.52833  0.91886  1.0000
  H   H885      1.0  0.31073  0.54464  0.91485  1.0000
  H   H886      1.0  0.08380  0.41583  0.61323  1.0000
  H   H887      1.0  0.16467  0.53645  0.86767  1.0000
  C   C917      1.0  0.18559  0.54692  0.87068  1.0000
  C   C918      1.0  0.19870  0.47211  0.88955  1.0000
  H   H888      1.0  0.31692  0.52830  0.92709  1.0000
  H   H889      1.0  0.09773  0.48045  0.86686  1.0000
  H   H890      1.0  0.11581  0.47972  0.85567  1.0000
  H   H891      1.0  0.34008  0.55910  0.96960  1.0000
  H   H892      1.0  0.06179  0.40487  0.84839  1.0000
  H   H893      1.0  0.07820  0.47748  0.59665  1.0000
  S   S322      1.0  0.38556  0.53637  0.96872  1.0000
  C   C919      1.0  0.02497  0.56240  0.58504  1.0000
  Fe  Fe158     1.0  0.10781  0.39912  0.81163  1.0000
  N   N71       1.0  0.01885  0.52663  0.69047  1.0000
  C   C920      1.0  0.10938  0.47912  0.86682  1.0000
  C   C921      1.0  0.18241  0.49446  0.87299  1.0000
  C   C922      1.0  0.27310  0.52082  0.92183  1.0000
  C   C923      1.0  0.15369  0.42805  0.83850  1.0000
  C   C924      1.0  0.37549  0.57239  0.91220  1.0000
  C   C925      1.0  0.19678  0.56719  0.85981  1.0000
  C   C926      1.0  0.19831  0.48623  0.88953  1.0000
  H   H894      1.0  0.17607  0.50306  0.86635  1.0000
  H   H895      1.0  0.09199  0.50494  0.86784  1.0000
  H   H896      1.0  0.08824  0.47932  0.95286  1.0000
  C   C927      1.0  0.40084  0.47179  0.94559  1.0000
  H   H897      1.0  0.44466  0.58070  0.96134  1.0000
  H   H898      1.0  0.33428  0.53657  0.96912  1.0000
  H   H899      1.0  0.11745  0.51997  0.88675  1.0000
  C   C928      1.0  0.19026  0.49746  0.88102  1.0000
  H   H900      1.0  0.20428  0.48837  0.89606  1.0000
  C   C929      1.0  0.29799  0.52119  0.90951  1.0000
  H   H901      1.0  0.26275  0.51843  0.92257  1.0000
  H   H902      1.0  0.11282  0.46829  0.87344  1.0000
  N   N72       1.0  0.11139  0.49025  0.87258  1.0000
  S   S323      1.0  0.42507  0.42360  0.94579  1.0000
  Fe  Fe159     1.0  0.06854  0.58214  0.53888  1.0000
  N   N73       1.0  0.11040  0.53659  0.78595  1.0000
  H   H903      1.0  0.04320  0.56848  0.76842  1.0000
  H   H904      1.0  0.19010  0.50847  0.88067  1.0000
  H   H905      1.0  0.13114  0.47766  0.87849  1.0000
  C   C930      1.0  0.28495  0.51731  0.91087  1.0000
  C   C931      1.0  0.12342  0.48791  0.87793  1.0000
  C   C932      1.0  0.10156  0.50312  0.87204  1.0000
  H   H906      1.0  0.37699  0.56294  0.90815  1.0000
  H   H907      1.0  0.07978  0.55339  0.60894  1.0000
  S   S324      1.0  0.08877  0.58627  0.68231  1.0000
  C   C933      1.0  0.04311  0.41491  0.90067  1.0000
  H   H908      1.0  0.30695  0.51886  0.90065  1.0000
  H   H909      1.0  0.04661  0.57631  0.70058  1.0000
  H   H910      1.0  0.12248  0.41612  0.84833  1.0000
  C   C934      1.0  0.28264  0.55401  0.89365  1.0000
  C   C935      1.0  0.41065  0.46224  0.95354  1.0000
  C   C936      1.0  0.02364  0.55188  0.64496  1.0000
  C   C937      1.0  0.11805  0.44565  0.96178  1.0000
  C   C938      1.0  0.10354  0.51399  0.87714  1.0000
  H   H911      1.0  0.04966  0.54456  0.51534  1.0000
  H   H912      1.0  0.26667  0.40508  0.90402  1.0000
  S   S325      1.0  0.03018  0.39438  0.62659  1.0000
  C   C939      1.0  0.35448  0.58357  0.90118  1.0000
  C   C940      1.0  0.11771  0.54454  0.79099  1.0000
  H   H913      1.0  0.09954  0.53376  0.60230  1.0000
  H   H914      1.0  0.28380  0.51229  0.90305  1.0000
  H   H915      1.0  0.09564  0.52411  0.87678  1.0000
  C   C941      1.0  0.12577  0.49857  0.88309  1.0000
  H   H916      1.0  0.29190  0.55130  0.88521  1.0000
  H   H917      1.0  0.42492  0.46018  0.96719  1.0000
  H   H918      1.0  0.41993  0.48649  0.96539  1.0000
  C   C942      1.0  0.15157  0.48846  0.97091  1.0000
  S   S326      1.0  0.00257  0.40144  0.87447  1.0000
  C   C943      1.0  0.26958  0.55008  0.89488  1.0000
  C   C944      1.0  0.18416  0.52151  0.94754  1.0000
  C   C945      1.0  0.13659  0.49166  0.97652  1.0000
  S   S327      1.0  0.03032  0.57031  0.67874  1.0000
  C   C946      1.0  0.02803  0.56473  0.66453  1.0000
  H   H919      1.0  0.24955  0.56385  0.92384  1.0000
  C   C947      1.0  0.11574  0.51167  0.88271  1.0000
  H   H920      1.0  0.13524  0.49671  0.88742  1.0000
  S   S328      1.0  0.41267  0.55292  0.95378  1.0000
  H   H921      1.0  0.35181  0.54803  0.93991  1.0000
  C   C948      1.0  0.25882  0.56113  0.91540  1.0000
  C   C949      1.0  0.37167  0.49337  0.97286  1.0000
  H   H922      1.0  0.07096  0.54597  0.52340  1.0000
  Fe  Fe160     1.0  0.32663  0.56103  0.92754  1.0000
  H   H923      1.0  0.01734  0.57790  0.76677  1.0000
  S   S329      1.0  0.30717  0.55462  0.94346  1.0000
  C   C950      1.0  0.10724  0.54150  0.77269  1.0000
  H   H924      1.0  0.02758  0.56614  0.72637  1.0000
  H   H925      1.0  0.12639  0.53706  0.79629  1.0000
  H   H926      1.0  0.06808  0.47628  0.61497  1.0000
  C   C951      1.0  0.03075  0.56627  0.73577  1.0000
  C   C952      1.0  0.27202  0.56466  0.91444  1.0000
  C   C953      1.0  0.28387  0.56124  0.90338  1.0000
  C   C954      1.0  0.04988  0.56178  0.74842  1.0000
  S   S330      1.0  0.29563  0.58849  0.94512  1.0000
  C   C955      1.0  0.03972  0.56773  0.75936  1.0000
  H   H927      1.0  0.09510  0.50769  0.79790  1.0000
  H   H928      1.0  0.11051  0.55105  0.76559  1.0000
  C   C956      1.0  0.04527  0.56077  0.73681  1.0000
  H   H929      1.0  0.05289  0.55582  0.72858  1.0000
  H   H930      1.0  0.34506  0.40878  0.92832  1.0000
  H   H931      1.0  0.18794  0.51518  0.93911  1.0000
  Fe  Fe161     1.0  0.08344  0.55242  0.72825  1.0000
  S   S331      1.0  0.10158  0.56410  0.71880  1.0000
  S   S332      1.0  0.14505  0.40229  0.78591  1.0000
  S   S333      1.0  0.36705  0.47021  0.96705  1.0000
  H   H932      1.0  0.11425  0.43867  0.94477  1.0000
  C   C957      1.0  0.34352  0.54920  0.97699  1.0000
  H   H933      1.0  0.16435  0.51959  0.93492  1.0000
  H   H934      1.0  0.29396  0.56420  0.90229  1.0000
  C   C958      1.0  0.18539  0.39589  0.83940  1.0000
  C   C959      1.0  0.08860  0.57490  0.57006  1.0000
  H   H935      1.0  0.11042  0.44497  0.82041  1.0000
  H   H936      1.0  0.03051  0.40812  0.86918  1.0000
  H   H937      1.0  0.27496  0.41279  0.85356  1.0000
  H   H938      1.0  0.10841  0.52090  0.80552  1.0000
  H   H939      1.0  0.41091  0.41149  0.92904  1.0000
  H   H940      1.0  0.05905  0.47744  0.60142  1.0000
  Fe  Fe162     1.0  0.40220  0.42464  0.95837  1.0000
  S   S334      1.0  0.33086  0.57343  0.94092  1.0000
  N   N74       1.0  0.09175  0.55273  0.58760  1.0000
  C   C960      1.0  0.40813  0.59006  0.96502  1.0000
  C   C961      1.0  0.08395  0.40723  0.86792  1.0000
  H   H941      1.0  0.41281  0.45081  0.95419  1.0000
  C   C962      1.0  0.04413  0.40117  0.89912  1.0000
  C   C963      1.0  0.04422  0.52625  0.68047  1.0000
  S   S335      1.0  0.08327  0.41501  0.88182  1.0000
  N   N75       1.0  0.18118  0.54846  0.85844  1.0000
  Fe  Fe163     1.0  0.39406  0.55301  0.97275  1.0000
  H   H942      1.0  0.12046  0.58240  0.67387  1.0000
  H   H943      1.0  0.39355  0.56316  0.92266  1.0000
  Fe  Fe164     1.0  0.29458  0.57446  0.93131  1.0000
  Fe  Fe165     1.0  0.30996  0.56901  0.95573  1.0000
  C   C964      1.0  0.03292  0.55305  0.57602  1.0000
  S   S336      1.0  0.06838  0.55654  0.74896  1.0000
  S   S337      1.0  0.19027  0.40722  0.89917  1.0000
  H   H944      1.0  0.12696  0.52851  0.96833  1.0000
  C   C965      1.0  0.27043  0.39627  0.89862  1.0000
  C   C966      1.0  0.41750  0.46753  0.96078  1.0000
  H   H945      1.0  0.36552  0.49956  0.96486  1.0000
  H   H946      1.0  0.05682  0.52607  0.69504  1.0000
  C   C967      1.0  0.13853  0.52760  0.96386  1.0000
  C   C968      1.0  0.03660  0.39850  0.68077  1.0000
  C   C969      1.0  0.09528  0.52207  0.77717  1.0000
  H   H947      1.0  0.14740  0.40888  0.85247  1.0000
  C   C970      1.0  0.07595  0.57403  0.59466  1.0000
  S   S338      1.0  0.07740  0.55555  0.70746  1.0000
  C   C971      1.0  0.46281  0.39820  0.95450  1.0000
  H   H948      1.0  0.19568  0.57658  0.83782  1.0000
  S   S339      1.0  0.31404  0.58020  0.91463  1.0000
  H   H949      1.0  0.13176  0.45474  0.81968  1.0000
  H   H950      1.0  0.09038  0.56909  0.65731  1.0000
  C   C972      1.0  0.03580  0.45488  0.83309  1.0000
  Fe  Fe166     1.0  0.09658  0.56580  0.69764  1.0000
  C   C973      1.0  0.10025  0.39276  0.65177  1.0000
  Fe  Fe167     1.0  0.37261  0.42253  0.95659  1.0000
  C   C974      1.0  0.41472  0.48227  0.95975  1.0000
  C   C975      1.0  0.27483  0.44980  0.88314  1.0000
  C   C976      1.0  0.14400  0.41905  0.84537  1.0000
  C   C977      1.0  0.02222  0.41780  0.87026  1.0000
  H   H951      1.0  0.05797  0.39641  0.70853  1.0000
  C   C978      1.0  0.34028  0.53654  0.97674  1.0000
  S   S340      1.0  0.05277  0.58737  0.55871  1.0000
  C   C979      1.0  0.06012  0.57274  0.48983  1.0000
  H   H952      1.0  0.25346  0.40379  0.88691  1.0000
  H   H953      1.0  0.09474  0.46006  0.93939  1.0000
  H   H954      1.0  0.10500  0.43138  0.83565  1.0000
  H   H955      1.0  0.09028  0.53126  0.59024  1.0000
  H   H956      1.0  0.01148  0.52674  0.71266  1.0000
  H   H957      1.0  0.00514  0.57401  0.66758  1.0000
  C   C980      1.0  0.08237  0.55940  0.59799  1.0000
  H   H958      1.0  0.06072  0.41231  0.87030  1.0000
  N   N76       1.0  0.01618  0.55763  0.59780  1.0000
  H   H959      1.0  0.31270  0.39383  0.95432  1.0000
  C   C981      1.0  0.09852  0.51715  0.79069  1.0000
  H   H960      1.0  0.28981  0.42259  0.88539  1.0000
  C   C982      1.0  0.02939  0.42397  0.90368  1.0000
  C   C983      1.0  0.09645  0.46972  0.95546  1.0000
  N   N77       1.0  0.36442  0.58398  0.90952  1.0000
  C   C984      1.0  0.08522  0.39953  0.84266  1.0000
  S   S341      1.0  0.12140  0.41252  0.81410  1.0000
  Fe  Fe168     1.0  0.00973  0.57148  0.69596  1.0000
  S   S342      1.0  0.06241  0.40026  0.60794  1.0000
  C   C985      1.0  0.14926  0.44095  0.82921  1.0000
  S   S343      1.0  0.08691  0.56283  0.53816  1.0000
  S   S344      1.0  0.39072  0.40651  0.96568  1.0000
  H   H961      1.0  0.08472  0.56473  0.50995  1.0000
  C   C986      1.0  0.07427  0.43730  0.81874  1.0000
  S   S345      1.0  0.37843  0.57304  0.97730  1.0000
  H   H962      1.0  0.32406  0.41169  0.95745  1.0000
  H   H963      1.0  0.10987  0.58233  0.64438  1.0000
  C   C987      1.0  0.10009  0.45892  0.94790  1.0000
  C   C988      1.0  0.16244  0.52735  0.96604  1.0000
  H   H964      1.0  0.19003  0.51552  0.95621  1.0000
  H   H965      1.0  0.40486  0.58193  0.97429  1.0000
  Fe  Fe169     1.0  0.37548  0.44648  0.96849  1.0000
  H   H966      1.0  0.35231  0.57265  0.90365  1.0000
  N   N78       1.0  0.08781  0.58923  0.64238  1.0000
  H   H967      1.0  0.27198  0.46120  0.87742  1.0000
  H   H968      1.0  0.28542  0.44814  0.88600  1.0000
  C   C989      1.0  0.09783  0.53725  0.59118  1.0000
  H   H969      1.0  0.03086  0.39888  0.67280  1.0000
  H   H970      1.0  0.02317  0.52249  0.59721  1.0000
  C   C990      1.0  0.07912  0.58182  0.58060  1.0000
  H   H971      1.0  0.19652  0.55521  0.88147  1.0000
  H   H972      1.0  0.36929  0.39353  0.98613  1.0000
  H   H973      1.0  0.29033  0.40549  0.87142  1.0000
  H   H974      1.0  0.43121  0.57845  0.97767  1.0000
  H   H975      1.0  0.16935  0.52820  0.97240  1.0000
  H   H976      1.0  0.05781  0.41835  0.82469  1.0000
  C   C991      1.0  0.26708  0.43451  0.85659  1.0000
  C   C992      1.0  0.19318  0.55641  0.87167  1.0000
  C   C993      1.0  0.38493  0.57249  0.92035  1.0000
  C   C994      1.0  0.27537  0.42052  0.85916  1.0000
  H   H977      1.0  0.03137  0.42162  0.83544  1.0000
  H   H978      1.0  0.00881  0.53958  0.61249  1.0000
  H   H979      1.0  0.07814  0.42981  0.81136  1.0000
  H   H980      1.0  0.10726  0.40054  0.86308  1.0000
  H   H981      1.0  0.20319  0.57425  0.86029  1.0000
  H   H982      1.0  0.00816  0.40233  0.90469  1.0000
  C   C995      1.0  0.05805  0.59071  0.71533  1.0000
  C   C996      1.0  0.10343  0.58739  0.63601  1.0000
  S   S346      1.0  0.01511  0.58487  0.55582  1.0000
  H   H983      1.0  0.12681  0.43642  0.96383  1.0000
  H   H984      1.0  0.10846  0.39399  0.84050  1.0000
  H   H985      1.0  0.19029  0.39182  0.84860  1.0000
  C   C997      1.0  0.08281  0.57851  0.65304  1.0000
  H   H986      1.0  0.43343  0.56819  0.96454  1.0000
  H   H987      1.0  0.38951  0.40214  0.93024  1.0000
  H   H988      1.0  0.14289  0.53159  0.98220  1.0000
  C   C998      1.0  0.05184  0.39722  0.70074  1.0000
  H   H989      1.0  0.21659  0.39595  0.92759  1.0000
  C   C999      1.0  0.41109  0.40011  0.93290  1.0000
  H   H990      1.0  0.10099  0.47675  0.97182  1.0000
  S   S347      1.0  0.00267  0.58054  0.74475  1.0000
  Fe  Fe170     1.0  0.14027  0.39432  0.80981  1.0000
  H   H991      1.0  0.02574  0.39406  0.59784  1.0000
  H   H992      1.0  0.10659  0.58055  0.62810  1.0000
  C   C1000     1.0  0.12234  0.45499  0.98004  1.0000
  N   N79       1.0  0.42254  0.59006  0.95943  1.0000
  C   C1001     1.0  0.31851  0.58542  0.97858  1.0000
  C   C1002     1.0  0.39909  0.39486  0.93361  1.0000
  S   S348      1.0  0.21775  0.39243  0.86649  1.0000
  H   H993      1.0  0.32054  0.58707  0.96712  1.0000
  C   C1003     1.0  0.04672  0.58791  0.69765  1.0000
  C   C1004     1.0  0.38309  0.58462  0.92559  1.0000
  C   C1005     1.0  0.26289  0.39554  0.88890  1.0000
  N   N80       1.0  0.32508  0.40143  0.97907  1.0000
  N   N81       1.0  0.07151  0.57370  0.49457  1.0000
  C   C1006     1.0  0.05207  0.56229  0.49723  1.0000
  H   H994      1.0  0.34038  0.41482  0.97093  1.0000
  H   H995      1.0  0.13308  0.45776  0.97467  1.0000
  C   C1007     1.0  0.00807  0.56767  0.60707  1.0000
  H   H996      1.0  0.39015  0.58473  0.93215  1.0000
  C   C1008     1.0  0.07936  0.58522  0.48732  1.0000
  C   C1009     1.0  0.31510  0.39288  0.96454  1.0000
  H   H997      1.0  0.01866  0.58899  0.50253  1.0000
  H   H998      1.0  0.36852  0.39251  0.96194  1.0000
  Fe  Fe171     1.0  0.38048  0.41583  0.98517  1.0000
  C   C1010     1.0  0.00278  0.42907  0.90832  1.0000
  H   H999      1.0  0.34375  0.59101  0.90378  1.0000
  Fe  Fe172     1.0  0.12945  0.74860  0.46054  1.0000
  S   S349      1.0  0.13129  0.77099  0.44906  1.0000
  H   H1000     1.0  0.00972  0.67219  0.31958  1.0000
  Fe  Fe173     1.0  0.12904  0.74009  0.43346  1.0000
  S   S350      1.0  0.13121  0.76186  0.41967  1.0000
  S   S351      1.0  0.12740  0.72101  0.42606  1.0000
  Fe  Fe174     1.0  0.14762  0.76093  0.43202  1.0000
  C   C1011     1.0  0.02090  0.60289  0.28699  1.0000
  Fe  Fe175     1.0  0.11487  0.77015  0.43785  1.0000
  H   H1001     1.0  0.45431  0.76040  0.03579  1.0000
  S   S352      1.0  0.14710  0.73826  0.44429  1.0000
  S   S353      1.0  0.11145  0.74857  0.45082  1.0000
  C   C1012     1.0  0.40981  0.62632  0.99841  1.0000
  H   H1002     1.0  0.01681  0.60627  0.38756  1.0000
  C   C1013     1.0  0.38681  0.67936  0.99556  1.0000
  Fe  Fe176     1.0  0.45045  0.75384  0.11292  1.0000
  S   S354      1.0  0.46715  0.73475  0.10689  1.0000
  S   S355      1.0  0.08189  0.60221  0.31354  1.0000
  Fe  Fe177     1.0  0.44814  0.74214  0.14462  1.0000
  S   S356      1.0  0.46378  0.72143  0.14112  1.0000
  S   S357      1.0  0.43930  0.74582  0.16715  1.0000
  Fe  Fe178     1.0  0.47702  0.73573  0.12421  1.0000
  C   C1014     1.0  0.01185  0.68532  0.37377  1.0000
  Fe  Fe179     1.0  0.45229  0.72237  0.12418  1.0000
  S   S358      1.0  0.44868  0.70233  0.12022  1.0000
  S   S359      1.0  0.46183  0.75624  0.12835  1.0000
  S   S360      1.0  0.43503  0.74158  0.12950  1.0000
  N   N82       1.0  0.01577  0.71768  0.35171  1.0000
  H   H1003     1.0  0.45668  0.61907  0.02481  1.0000
  C   C1015     1.0  0.18791  0.78854  0.44579  1.0000
  C   C1016     1.0  0.49167  0.63870  0.03381  1.0000
  H   H1004     1.0  0.04758  0.65143  0.29280  1.0000
  H   H1005     1.0  0.08010  0.63639  0.37089  1.0000
  N   N83       1.0  0.35342  0.62941  0.00306  1.0000
  H   H1006     1.0  0.45737  0.75009  0.07968  1.0000
  H   H1007     1.0  0.34312  0.65100  0.99614  1.0000
  C   C1017     1.0  0.40344  0.71056  0.13807  1.0000
  C   C1018     1.0  0.03584  0.65461  0.29616  1.0000
  C   C1019     1.0  0.44919  0.62806  0.01978  1.0000
  H   H1008     1.0  0.15512  0.74804  0.47060  1.0000
  C   C1020     1.0  0.37639  0.61471  0.00744  1.0000
  Fe  Fe180     1.0  0.40588  0.68190  0.07574  1.0000
  S   S361      1.0  0.40816  0.65866  0.08706  1.0000
  S   S362      1.0  0.40429  0.70041  0.08572  1.0000
  Fe  Fe181     1.0  0.40572  0.67564  0.04751  1.0000
  S   S363      1.0  0.40858  0.65200  0.05627  1.0000
  S   S364      1.0  0.40457  0.68577  0.02454  1.0000
  Fe  Fe182     1.0  0.39191  0.65793  0.07534  1.0000
  S   S365      1.0  0.37454  0.64494  0.08543  1.0000
  Fe  Fe183     1.0  0.42448  0.65466  0.06699  1.0000
  S   S366      1.0  0.44558  0.63849  0.06640  1.0000
  S   S367      1.0  0.38785  0.68165  0.06592  1.0000
  S   S368      1.0  0.42340  0.67783  0.05638  1.0000
  C   C1021     1.0  0.09519  0.77513  0.47302  1.0000
  C   C1022     1.0  0.40558  0.68628  0.12858  1.0000
  Fe  Fe184     1.0  0.33213  0.61302  0.04950  1.0000
  S   S369      1.0  0.31007  0.61372  0.04641  1.0000
  S   S370      1.0  0.34101  0.63265  0.04634  1.0000
  H   H1009     1.0  0.48518  0.74480  0.19866  1.0000
  H   H1010     1.0  0.18561  0.59566  0.13513  1.0000
  Fe  Fe185     1.0  0.32191  0.60082  0.02974  1.0000
  S   S371      1.0  0.31978  0.60697  0.00675  1.0000
  C   C1023     1.0  0.06928  0.63581  0.37732  1.0000
  S   S372      1.0  0.34358  0.60194  0.03163  1.0000
  Fe  Fe186     1.0  0.05359  0.69152  0.38245  1.0000
  S   S373      1.0  0.06362  0.66813  0.38588  1.0000
  S   S374      1.0  0.02984  0.69723  0.38147  1.0000
  Fe  Fe187     1.0  0.08114  0.69898  0.38458  1.0000
  S   S375      1.0  0.09312  0.67576  0.38804  1.0000
  S   S376      1.0  0.08924  0.71831  0.38505  1.0000
  Fe  Fe188     1.0  0.08344  0.67422  0.37061  1.0000
  S   S377      1.0  0.09507  0.65871  0.35588  1.0000
  Fe  Fe189     1.0  0.07207  0.67170  0.40281  1.0000
  S   S378      1.0  0.06845  0.65587  0.42379  1.0000
  S   S379      1.0  0.07296  0.69782  0.36584  1.0000
  S   S380      1.0  0.06066  0.69480  0.40055  1.0000
  C   C1024     1.0  0.39355  0.59457  0.07028  1.0000
  C   C1025     1.0  0.46144  0.77079  0.17581  1.0000
  C   C1026     1.0  0.05341  0.63116  0.40005  1.0000
  Fe  Fe190     1.0  0.04894  0.61082  0.29584  1.0000
  S   S381      1.0  0.04646  0.61415  0.31767  1.0000
  S   S382      1.0  0.02818  0.61681  0.28788  1.0000
  Fe  Fe191     1.0  0.06638  0.62340  0.30866  1.0000
  S   S383      1.0  0.06435  0.64441  0.31472  1.0000
  C   C1027     1.0  0.44839  0.59610  0.07278  1.0000
  S   S384      1.0  0.06757  0.62199  0.28618  1.0000
  C   C1028     1.0  0.18415  0.78710  0.42323  1.0000
  S   S385      1.0  0.46766  0.78487  0.02788  1.0000
  C   C1029     1.0  0.00253  0.64995  0.28832  1.0000
  C   C1030     1.0  0.02970  0.66221  0.30698  1.0000
  H   H1011     1.0  0.26372  0.60213  0.09250  1.0000
  H   H1012     1.0  0.45378  0.61903  0.98837  1.0000
  C   C1031     1.0  0.03246  0.64882  0.47091  1.0000
  H   H1013     1.0  0.03827  0.71352  0.35182  1.0000
  H   H1014     1.0  0.48915  0.62247  0.08152  1.0000
  C   C1032     1.0  0.02815  0.59611  0.48027  1.0000
  H   H1015     1.0  0.07447  0.59281  0.47850  1.0000
  H   H1016     1.0  0.42601  0.65933  0.02590  1.0000
  H   H1017     1.0  0.10149  0.76598  0.47973  1.0000
  S   S386      1.0  0.44411  0.77238  0.09546  1.0000
  C   C1033     1.0  0.42709  0.67374  0.13859  1.0000
  H   H1018     1.0  0.49050  0.76299  0.15701  1.0000
  C   C1034     1.0  0.49788  0.76886  0.21503  1.0000
  C   C1035     1.0  0.05101  0.65333  0.42597  1.0000
  C   C1036     1.0  0.04146  0.66356  0.41818  1.0000
  C   C1037     1.0  0.02830  0.66088  0.41810  1.0000
  C   C1038     1.0  0.02455  0.64798  0.42599  1.0000
  C   C1039     1.0  0.03357  0.63809  0.43462  1.0000
  C   C1040     1.0  0.04688  0.64074  0.43458  1.0000
  H   H1019     1.0  0.04426  0.67354  0.41195  1.0000
  H   H1020     1.0  0.02130  0.66868  0.41156  1.0000
  H   H1021     1.0  0.03038  0.62838  0.44123  1.0000
  H   H1022     1.0  0.05414  0.63290  0.44082  1.0000
  C   C1041     1.0  0.08663  0.65493  0.34422  1.0000
  C   C1042     1.0  0.07505  0.66481  0.33898  1.0000
  C   C1043     1.0  0.06870  0.66151  0.32965  1.0000
  C   C1044     1.0  0.07343  0.64812  0.32587  1.0000
  C   C1045     1.0  0.08496  0.63817  0.33117  1.0000
  C   C1046     1.0  0.09165  0.64165  0.34014  1.0000
  H   H1023     1.0  0.07120  0.67513  0.34187  1.0000
  H   H1024     1.0  0.05996  0.66938  0.32541  1.0000
  H   H1025     1.0  0.08896  0.62793  0.32811  1.0000
  H   H1026     1.0  0.10074  0.63400  0.34397  1.0000
  C   C1047     1.0  0.02620  0.68616  0.37255  1.0000
  H   H1027     1.0  0.47961  0.61524  0.07352  1.0000
  C   C1048     1.0  0.49888  0.75713  0.14982  1.0000
  C   C1049     1.0  0.02042  0.66965  0.35697  1.0000
  C   C1050     1.0  0.03464  0.67063  0.35575  1.0000
  C   C1051     1.0  0.03757  0.67873  0.36356  1.0000
  H   H1028     1.0  0.12058  0.78585  0.48501  1.0000
  H   H1029     1.0  0.06554  0.61836  0.34108  1.0000
  H   H1030     1.0  0.04345  0.66504  0.34871  1.0000
  H   H1031     1.0  0.04863  0.67955  0.36227  1.0000
  Fe  Fe192     1.0  0.31184  0.59216  0.06190  1.0000
  C   C1052     1.0  0.42999  0.65105  0.00712  1.0000
  C   C1053     1.0  0.48443  0.63309  0.04762  1.0000
  N   N84       1.0  0.03009  0.60920  0.36665  1.0000
  C   C1054     1.0  0.44990  0.78591  0.09870  1.0000
  H   H1032     1.0  0.00298  0.69136  0.38041  1.0000
  C   C1055     1.0  0.15287  0.74913  0.48152  1.0000
  H   H1033     1.0  0.38529  0.61225  0.01272  1.0000
  C   C1056     1.0  0.38431  0.60900  0.05008  1.0000
  C   C1057     1.0  0.36712  0.63951  0.07420  1.0000
  C   C1058     1.0  0.35773  0.62996  0.08012  1.0000
  C   C1059     1.0  0.35034  0.62687  0.07152  1.0000
  C   C1060     1.0  0.35212  0.63358  0.05702  1.0000
  C   C1061     1.0  0.36193  0.64263  0.05107  1.0000
  C   C1062     1.0  0.36955  0.64547  0.05954  1.0000
  H   H1034     1.0  0.35583  0.62527  0.09147  1.0000
  H   H1035     1.0  0.34272  0.61991  0.07627  1.0000
  H   H1036     1.0  0.36311  0.64798  0.03996  1.0000
  H   H1037     1.0  0.37669  0.65288  0.05489  1.0000
  C   C1063     1.0  0.38158  0.66695  0.00271  1.0000
  C   C1064     1.0  0.38476  0.65950  0.01599  1.0000
  C   C1065     1.0  0.39218  0.66496  0.02263  1.0000
  C   C1066     1.0  0.39662  0.67785  0.01589  1.0000
  C   C1067     1.0  0.39433  0.68479  0.00216  1.0000
  C   C1068     1.0  0.45676  0.76885  0.19075  1.0000
  H   H1038     1.0  0.38139  0.64953  0.02114  1.0000
  H   H1039     1.0  0.39421  0.65933  0.03302  1.0000
  C   C1069     1.0  0.44149  0.63903  0.02700  1.0000
  H   H1040     1.0  0.48573  0.76985  0.10340  1.0000
  C   C1070     1.0  0.22440  0.59163  0.10030  1.0000
  H   H1041     1.0  0.01893  0.72930  0.36513  1.0000
  C   C1071     1.0  0.43192  0.65064  0.02054  1.0000
  C   C1072     1.0  0.01673  0.60584  0.37662  1.0000
  C   C1073     1.0  0.42384  0.60646  0.08386  1.0000
  C   C1074     1.0  0.42740  0.61993  0.08007  1.0000
  C   C1075     1.0  0.44145  0.62148  0.07253  1.0000
  C   C1076     1.0  0.45201  0.60948  0.06915  1.0000
  H   H1042     1.0  0.49552  0.78988  0.13119  1.0000
  H   H1043     1.0  0.41285  0.60539  0.08925  1.0000
  H   H1044     1.0  0.41918  0.62913  0.08278  1.0000
  H   H1045     1.0  0.46280  0.61056  0.06318  1.0000
  H   H1046     1.0  0.44562  0.71377  0.05497  1.0000
  C   C1077     1.0  0.43768  0.70274  0.10874  1.0000
  C   C1078     1.0  0.43899  0.69023  0.10418  1.0000
  C   C1079     1.0  0.42919  0.68952  0.09661  1.0000
  C   C1080     1.0  0.41791  0.70133  0.09363  1.0000
  C   C1081     1.0  0.41694  0.71403  0.09772  1.0000
  C   C1082     1.0  0.42682  0.71477  0.10518  1.0000
  H   H1047     1.0  0.44743  0.68090  0.10681  1.0000
  H   H1048     1.0  0.43010  0.67971  0.09345  1.0000
  H   H1049     1.0  0.40825  0.72322  0.09544  1.0000
  H   H1050     1.0  0.42564  0.72445  0.10870  1.0000
  C   C1083     1.0  0.44585  0.75556  0.17551  1.0000
  C   C1084     1.0  0.44095  0.75406  0.19032  1.0000
  N   N85       1.0  0.49015  0.63135  0.05915  1.0000
  C   C1085     1.0  0.05789  0.76033  0.41687  1.0000
  S   S387      1.0  0.46588  0.77343  0.20131  1.0000
  C   C1086     1.0  0.45609  0.76407  0.16819  1.0000
  H   H1051     1.0  0.43309  0.74755  0.19610  1.0000
  C   C1087     1.0  0.04296  0.59933  0.36694  1.0000
  C   C1088     1.0  0.07058  0.76225  0.41904  1.0000
  H   H1052     1.0  0.45996  0.76538  0.15675  1.0000
  H   H1053     1.0  0.48373  0.75005  0.14304  1.0000
  H   H1054     1.0  0.03435  0.70471  0.34059  1.0000
  H   H1055     1.0  0.05168  0.62787  0.41157  1.0000
  H   H1056     1.0  0.38709  0.69838  0.11947  1.0000
  H   H1057     1.0  0.43727  0.67692  0.13803  1.0000
  C   C1089     1.0  0.00722  0.60623  0.28363  1.0000
  H   H1058     1.0  0.40294  0.72008  0.14158  1.0000
  H   H1059     1.0  0.17428  0.75200  0.47980  1.0000
  C   C1090     1.0  0.01462  0.66625  0.31120  1.0000
  C   C1091     1.0  0.37640  0.60624  0.99846  1.0000
  C   C1092     1.0  0.34139  0.64176  0.00525  1.0000
  C   C1093     1.0  0.11525  0.72062  0.41598  1.0000
  C   C1094     1.0  0.10771  0.73315  0.40826  1.0000
  C   C1095     1.0  0.09950  0.73227  0.39911  1.0000
  C   C1096     1.0  0.09851  0.71889  0.39776  1.0000
  C   C1097     1.0  0.10568  0.70639  0.40583  1.0000
  C   C1098     1.0  0.11407  0.70727  0.41478  1.0000
  H   H1060     1.0  0.10867  0.74348  0.40893  1.0000
  H   H1061     1.0  0.09410  0.74199  0.39283  1.0000
  H   H1062     1.0  0.10507  0.69603  0.40488  1.0000
  H   H1063     1.0  0.11986  0.69751  0.42068  1.0000
  C   C1099     1.0  0.44651  0.76042  0.19787  1.0000
  H   H1064     1.0  0.03460  0.64147  0.37373  1.0000
  H   H1065     1.0  0.42941  0.72129  0.06683  1.0000
  H   H1066     1.0  0.00681  0.61345  0.37364  1.0000
  H   H1067     1.0  0.49657  0.76646  0.19467  1.0000
  C   C1100     1.0  0.17251  0.77325  0.44534  1.0000
  H   H1068     1.0  0.39794  0.69466  0.99680  1.0000
  S   S388      1.0  0.00868  0.64435  0.42471  1.0000
  H   H1069     1.0  0.36877  0.60140  0.04417  1.0000
  H   H1070     1.0  0.16568  0.76570  0.45099  1.0000
  H   H1071     1.0  0.03663  0.66487  0.31217  1.0000
  H   H1072     1.0  0.42248  0.65999  0.00206  1.0000
  H   H1073     1.0  0.01652  0.60108  0.34718  1.0000
  H   H1074     1.0  0.03331  0.72387  0.33517  1.0000
  C   C1101     1.0  0.13064  0.78940  0.48259  1.0000
  H   H1075     1.0  0.42982  0.66721  0.13044  1.0000
  S   S389      1.0  0.41182  0.60479  0.02186  1.0000
  C   C1102     1.0  0.21358  0.77412  0.48265  1.0000
  H   H1076     1.0  0.17273  0.59518  0.16036  1.0000
  C   C1103     1.0  0.00600  0.71283  0.34787  1.0000
  H   H1077     1.0  0.43616  0.64025  0.98985  1.0000
  H   H1078     1.0  0.38511  0.72010  0.12812  1.0000
  C   C1104     1.0  0.04374  0.63857  0.37882  1.0000
  N   N86       1.0  0.48888  0.72730  0.17296  1.0000
  C   C1105     1.0  0.02085  0.64233  0.47315  1.0000
  H   H1079     1.0  0.05788  0.75054  0.41410  1.0000
  H   H1080     1.0  0.10225  0.78277  0.46681  1.0000
  H   H1081     1.0  0.03167  0.64490  0.28155  1.0000
  H   H1082     1.0  0.04216  0.63621  0.34076  1.0000
  N   N87       1.0  0.44730  0.62860  0.00659  1.0000
  C   C1106     1.0  0.02303  0.66711  0.45211  1.0000
  H   H1083     1.0  0.34069  0.64494  0.01527  1.0000
  H   H1084     1.0  0.46308  0.79075  0.07746  1.0000
  C   C1107     1.0  0.42751  0.60455  0.99443  1.0000
  C   C1108     1.0  0.31832  0.59330  0.99959  1.0000
  C   C1109     1.0  0.05564  0.61586  0.34843  1.0000
  H   H1085     1.0  0.42371  0.66704  0.14935  1.0000
  C   C1110     1.0  0.02973  0.62233  0.35746  1.0000
  N   N88       1.0  0.41549  0.68645  0.13575  1.0000
  C   C1111     1.0  0.48238  0.62532  0.07348  1.0000
  S   S390      1.0  0.33320  0.59247  0.06621  1.0000
  H   H1086     1.0  0.02396  0.67662  0.44362  1.0000
  C   C1112     1.0  0.04521  0.77104  0.41835  1.0000
  S   S391      1.0  0.47213  0.77182  0.99265  1.0000
  Fe  Fe193     1.0  0.00990  0.62075  0.43108  1.0000
  N   N89       1.0  0.06695  0.63235  0.39190  1.0000
  S   S392      1.0  0.02980  0.60323  0.43358  1.0000
  H   H1087     1.0  0.01299  0.61238  0.32242  1.0000
  H   H1088     1.0  0.05958  0.64235  0.35900  1.0000
  H   H1089     1.0  0.46723  0.61499  0.99879  1.0000
  H   H1090     1.0  0.46029  0.76636  0.05568  1.0000
  H   H1091     1.0  0.29427  0.61876  0.99356  1.0000
  C   C1113     1.0  0.49352  0.77341  0.10666  1.0000
  C   C1114     1.0  0.05592  0.60252  0.35787  1.0000
  H   H1092     1.0  0.17142  0.72800  0.39986  1.0000
  N   N90       1.0  0.15097  0.73102  0.39488  1.0000
  C   C1115     1.0  0.14289  0.74249  0.38712  1.0000
  C   C1116     1.0  0.15068  0.71732  0.39503  1.0000
  C   C1117     1.0  0.13429  0.74037  0.37918  1.0000
  C   C1118     1.0  0.14219  0.71482  0.38724  1.0000
  C   C1119     1.0  0.13394  0.72644  0.37929  1.0000
  C   C1120     1.0  0.15984  0.73324  0.40334  1.0000
  H   H1093     1.0  0.14287  0.75336  0.38722  1.0000
  S   S393      1.0  0.36950  0.66171  0.99618  1.0000
  H   H1094     1.0  0.12765  0.74946  0.37329  1.0000
  H   H1095     1.0  0.08034  0.77634  0.42419  1.0000
  H   H1096     1.0  0.08045  0.75391  0.41809  1.0000
  C   C1121     1.0  0.00831  0.60327  0.32868  1.0000
  C   C1122     1.0  0.00895  0.67693  0.36610  1.0000
  C   C1123     1.0  0.05771  0.63911  0.37055  1.0000
  H   H1097     1.0  0.47780  0.78165  0.12400  1.0000
  H   H1098     1.0  0.01953  0.63013  0.35720  1.0000
  N   N91       1.0  0.39319  0.60643  0.05931  1.0000
  Fe  Fe194     1.0  0.08164  0.59991  0.29174  1.0000
  H   H1099     1.0  0.38398  0.61841  0.04139  1.0000
  H   H1100     1.0  0.40166  0.63245  0.00556  1.0000
  H   H1101     1.0  0.44882  0.72788  0.08364  1.0000
  C   C1124     1.0  0.04248  0.62586  0.34822  1.0000
  H   H1102     1.0  0.18627  0.79030  0.41169  1.0000
  H   H1103     1.0  0.14153  0.70397  0.38782  1.0000
  S   S394      1.0  0.16757  0.77010  0.42061  1.0000
  C   C1125     1.0  0.03364  0.66118  0.46018  1.0000
  H   H1104     1.0  0.45170  0.60685  0.00555  1.0000
  H   H1105     1.0  0.03928  0.60505  0.45911  1.0000
  H   H1106     1.0  0.48722  0.63981  0.02469  1.0000
  C   C1126     1.0  0.45539  0.61683  0.99941  1.0000
  C   C1127     1.0  0.37572  0.59939  0.05155  1.0000
  N   N92       1.0  0.05800  0.78551  0.42371  1.0000
  H   H1107     1.0  0.05276  0.61748  0.46770  1.0000
  C   C1128     1.0  0.39345  0.71056  0.13053  1.0000
  H   H1108     1.0  0.12688  0.72462  0.37363  1.0000
  H   H1109     1.0  0.42242  0.69853  0.14614  1.0000
  H   H1110     1.0  0.40650  0.67697  0.12451  1.0000
  H   H1111     1.0  0.40293  0.62415  0.04719  1.0000
  C   C1129     1.0  0.40205  0.61661  0.05782  1.0000
  H   H1112     1.0  0.47431  0.62996  0.04908  1.0000
  H   H1113     1.0  0.07533  0.63159  0.40971  1.0000
  H   H1114     1.0  0.15596  0.72855  0.41485  1.0000
  C   C1130     1.0  0.04543  0.78359  0.42190  1.0000
  H   H1115     1.0  0.21557  0.59182  0.10973  1.0000
  C   C1131     1.0  0.36488  0.60956  0.99169  1.0000
  C   C1132     1.0  0.41686  0.61235  0.00370  1.0000
  N   N93       1.0  0.01196  0.65475  0.29422  1.0000
  H   H1116     1.0  0.15660  0.70826  0.40165  1.0000
  C   C1133     1.0  0.04157  0.63439  0.39367  1.0000
  N   N94       1.0  0.44693  0.73161  0.06204  1.0000
  C   C1134     1.0  0.45003  0.73493  0.07309  1.0000
  C   C1135     1.0  0.44823  0.74069  0.04883  1.0000
  C   C1136     1.0  0.45489  0.74746  0.07095  1.0000
  C   C1137     1.0  0.45312  0.75327  0.04632  1.0000
  C   C1138     1.0  0.45648  0.75664  0.05747  1.0000
  C   C1139     1.0  0.44151  0.71864  0.06448  1.0000
  H   H1117     1.0  0.41327  0.61079  0.05885  1.0000
  H   H1118     1.0  0.39722  0.62285  0.06631  1.0000
  H   H1119     1.0  0.03077  0.63384  0.40022  1.0000
  C   C1140     1.0  0.49502  0.74984  0.14183  1.0000
  C   C1141     1.0  0.35342  0.62126  0.99410  1.0000
  H   H1120     1.0  0.44513  0.71032  0.07362  1.0000
  H   H1121     1.0  0.47051  0.73740  0.18685  1.0000
  H   H1122     1.0  0.15925  0.74480  0.40229  1.0000
  H   H1123     1.0  0.44303  0.75855  0.20939  1.0000
  H   H1124     1.0  0.08665  0.63682  0.39267  1.0000
  H   H1125     1.0  0.38535  0.59718  0.99675  1.0000
  C   C1142     1.0  0.43778  0.63985  0.00026  1.0000
  H   H1126     1.0  0.46957  0.77704  0.17022  1.0000
  H   H1127     1.0  0.44290  0.63852  0.03753  1.0000
  C   C1143     1.0  0.17905  0.77865  0.45293  1.0000
  H   H1128     1.0  0.08525  0.61823  0.39929  1.0000
  N   N95       1.0  0.34404  0.67401  0.05512  1.0000
  C   C1144     1.0  0.34081  0.67310  0.04298  1.0000
  C   C1145     1.0  0.35442  0.68114  0.05421  1.0000
  C   C1146     1.0  0.34826  0.67922  0.02948  1.0000
  C   C1147     1.0  0.36202  0.68745  0.04088  1.0000
  C   C1148     1.0  0.35880  0.68657  0.02848  1.0000
  C   C1149     1.0  0.33607  0.66761  0.06919  1.0000
  H   H1129     1.0  0.33284  0.66713  0.04369  1.0000
  H   H1130     1.0  0.35710  0.68171  0.06382  1.0000
  H   H1131     1.0  0.34616  0.67800  0.01984  1.0000
  H   H1132     1.0  0.37056  0.69277  0.04011  1.0000
  H   H1133     1.0  0.36472  0.69129  0.01807  1.0000
  H   H1134     1.0  0.33273  0.65797  0.06879  1.0000
  H   H1135     1.0  0.34304  0.66390  0.07717  1.0000
  H   H1136     1.0  0.32627  0.67556  0.07295  1.0000
  C   C1150     1.0  0.02677  0.65093  0.28986  1.0000
  H   H1137     1.0  0.44553  0.73823  0.04011  1.0000
  S   S395      1.0  0.01768  0.65945  0.34660  1.0000
  H   H1138     1.0  0.40044  0.59265  0.07771  1.0000
  Fe  Fe195     1.0  0.02105  0.59187  0.42244  1.0000
  H   H1139     1.0  0.04063  0.64412  0.47729  1.0000
  H   H1140     1.0  0.36497  0.63310  0.01636  1.0000
  C   C1151     1.0  0.48905  0.78004  0.11820  1.0000
  H   H1141     1.0  0.17714  0.77520  0.46443  1.0000
  C   C1152     1.0  0.41443  0.69831  0.14065  1.0000
  C   C1153     1.0  0.36482  0.62643  0.00953  1.0000
  C   C1154     1.0  0.39449  0.69835  0.12577  1.0000
  C   C1155     1.0  0.03743  0.60453  0.47041  1.0000
  H   H1142     1.0  0.47219  0.63309  0.07683  1.0000
  C   C1156     1.0  0.07915  0.62951  0.39874  1.0000
  H   H1143     1.0  0.04288  0.66603  0.45796  1.0000
  H   H1144     1.0  0.43808  0.78323  0.12067  1.0000
  C   C1157     1.0  0.00587  0.66235  0.30472  1.0000
  C   C1158     1.0  0.44570  0.78874  0.11239  1.0000
  H   H1145     1.0  0.48617  0.72064  0.15552  1.0000
  H   H1146     1.0  0.00807  0.64756  0.27763  1.0000
  S   S396      1.0  0.50107  0.73290  0.12246  1.0000
  C   C1159     1.0  0.49918  0.78465  0.12225  1.0000
  S   S397      1.0  0.12630  0.74341  0.48457  1.0000
  C   C1160     1.0  0.03116  0.71486  0.34440  1.0000
  C   C1161     1.0  0.04513  0.61146  0.47529  1.0000
  H   H1147     1.0  0.26572  0.60612  0.07356  1.0000
  C   C1162     1.0  0.50078  0.60206  0.02874  1.0000
  C   C1163     1.0  0.07043  0.77496  0.42250  1.0000
  H   H1148     1.0  0.28534  0.59974  0.99159  1.0000
  H   H1149     1.0  0.47899  0.78593  0.05106  1.0000
  H   H1150     1.0  0.09221  0.77078  0.46543  1.0000
  S   S398      1.0  0.44096  0.59573  0.04201  1.0000
  H   H1151     1.0  0.48619  0.77133  0.21903  1.0000
  Fe  Fe196     1.0  0.46937  0.78900  0.00424  1.0000
  H   H1152     1.0  0.01580  0.59492  0.37689  1.0000
  Fe  Fe197     1.0  0.01475  0.59384  0.45334  1.0000
  C   C1164     1.0  0.49056  0.73874  0.19042  1.0000
  H   H1153     1.0  0.23480  0.60511  0.10558  1.0000
  C   C1165     1.0  0.25761  0.60678  0.08382  1.0000
  H   H1154     1.0  0.21313  0.75265  0.48263  1.0000
  C   C1166     1.0  0.01117  0.72558  0.36199  1.0000
  C   C1167     1.0  0.23526  0.59913  0.09787  1.0000
  H   H1155     1.0  0.25266  0.61827  0.08376  1.0000
  H   H1156     1.0  0.47053  0.73219  0.16383  1.0000
  H   H1157     1.0  0.03523  0.76964  0.41681  1.0000
  C   C1168     1.0  0.17513  0.77734  0.43043  1.0000
  H   H1158     1.0  0.21598  0.77755  0.47110  1.0000
  C   C1169     1.0  0.48228  0.73459  0.18364  1.0000
  N   N96       1.0  0.08214  0.78257  0.48165  1.0000
  H   H1159     1.0  0.00964  0.70650  0.33978  1.0000
  C   C1170     1.0  0.01163  0.66026  0.45456  1.0000
  N   N97       1.0  0.01094  0.64779  0.46467  1.0000
  C   C1171     1.0  0.01031  0.59692  0.34253  1.0000
  H   H1160     1.0  0.47568  0.71373  0.17296  1.0000
  H   H1161     1.0  0.43280  0.59366  0.99845  1.0000
  C   C1172     1.0  0.43427  0.59463  0.07982  1.0000
  C   C1173     1.0  0.47991  0.72319  0.16600  1.0000
  H   H1162     1.0  0.33085  0.63909  0.00621  1.0000
  H   H1163     1.0  0.06601  0.59449  0.35789  1.0000
  N   N98       1.0  0.24636  0.59886  0.08598  1.0000
  S   S399      1.0  0.48074  0.59300  0.02119  1.0000
  H   H1164     1.0  0.01999  0.63272  0.48150  1.0000
  Fe  Fe198     1.0  0.06203  0.59298  0.32088  1.0000
  C   C1174     1.0  0.48922  0.59504  0.03353  1.0000
  S   S400      1.0  0.00633  0.78629  0.42565  1.0000
  S   S401      1.0  0.09566  0.78855  0.43560  1.0000
  H   H1165     1.0  0.34452  0.62374  0.98878  1.0000
  H   H1166     1.0  0.00372  0.66464  0.44788  1.0000
  S   S402      1.0  0.00290  0.61061  0.41774  1.0000
  H   H1167     1.0  0.00294  0.62862  0.47049  1.0000
  Fe  Fe199     1.0  0.17022  0.73442  0.56047  1.0000
  S   S403      1.0  0.16977  0.75208  0.57079  1.0000
  S   S404      1.0  0.17045  0.71086  0.57010  1.0000
  Fe  Fe200     1.0  0.17180  0.75378  0.53071  1.0000
  S   S405      1.0  0.17129  0.77312  0.53817  1.0000
  S   S406      1.0  0.17529  0.75420  0.50734  1.0000
  Fe  Fe201     1.0  0.18693  0.75875  0.55145  1.0000
  S   S407      1.0  0.20751  0.76605  0.54966  1.0000
  Fe  Fe202     1.0  0.15429  0.76528  0.55674  1.0000
  C   C1175     1.0  0.01602  0.68490  0.60922  1.0000
  S   S408      1.0  0.18891  0.73977  0.54242  1.0000
  S   S409      1.0  0.15332  0.74720  0.54805  1.0000
  C   C1176     1.0  0.41623  0.61096  0.94131  1.0000
  H   H1168     1.0  0.37676  0.76137  0.93739  1.0000
  C   C1177     1.0  0.30894  0.63651  0.96068  1.0000
  N   N99       1.0  0.02384  0.66727  0.62913  1.0000
  H   H1169     1.0  0.15258  0.71544  0.49776  1.0000
  S   S410      1.0  0.43958  0.78003  0.97525  1.0000
  H   H1170     1.0  0.18080  0.71829  0.52234  1.0000
  N   N100      1.0  0.38429  0.74974  0.92093  1.0000
  H   H1171     1.0  0.37031  0.72520  0.91478  1.0000
  C   C1178     1.0  0.12441  0.60003  0.65584  1.0000
  Fe  Fe203     1.0  0.38508  0.67343  0.94124  1.0000
  S   S411      1.0  0.39314  0.65166  0.93554  1.0000
  S   S412      1.0  0.38701  0.69345  0.92365  1.0000
  Fe  Fe204     1.0  0.37315  0.64609  0.95168  1.0000
  S   S413      1.0  0.36219  0.62771  0.95515  1.0000
  Fe  Fe205     1.0  0.40387  0.64611  0.95397  1.0000
  H   H1172     1.0  0.13460  0.78013  0.50372  1.0000
  S   S414      1.0  0.36413  0.66827  0.95614  1.0000
  S   S415      1.0  0.39740  0.66800  0.95856  1.0000
  N   N101      1.0  0.29200  0.61624  0.97383  1.0000
  H   H1173     1.0  0.47109  0.77779  0.94634  1.0000
  H   H1174     1.0  0.05432  0.64192  0.52702  1.0000
  H   H1175     1.0  0.28685  0.59661  0.97454  1.0000
  C   C1179     1.0  0.16110  0.75226  0.50103  1.0000
  H   H1176     1.0  0.33484  0.59802  0.94705  1.0000
  H   H1177     1.0  0.37075  0.60621  0.92606  1.0000
  S   S416      1.0  0.32292  0.61380  0.92220  1.0000
  C   C1180     1.0  0.48991  0.76290  0.86811  1.0000
  C   C1181     1.0  0.03244  0.59852  0.71810  1.0000
  H   H1178     1.0  0.37787  0.73833  0.88972  1.0000
  Fe  Fe206     1.0  0.44039  0.78065  0.90151  1.0000
  S   S417      1.0  0.45241  0.75791  0.90728  1.0000
  H   H1179     1.0  0.00894  0.68875  0.60170  1.0000
  Fe  Fe207     1.0  0.42543  0.77383  0.88237  1.0000
  S   S418      1.0  0.43656  0.75052  0.88608  1.0000
  C   C1182     1.0  0.47652  0.76626  0.94822  1.0000
  Fe  Fe208     1.0  0.43145  0.75192  0.90901  1.0000
  S   S419      1.0  0.42241  0.73584  0.92804  1.0000
  Fe  Fe209     1.0  0.45636  0.75868  0.88396  1.0000
  S   S420      1.0  0.47910  0.75024  0.87274  1.0000
  S   S421      1.0  0.41895  0.77482  0.90549  1.0000
  C   C1183     1.0  0.15460  0.71536  0.50792  1.0000
  S   S422      1.0  0.01997  0.66516  0.57990  1.0000
  H   H1180     1.0  0.07392  0.66281  0.55495  1.0000
  H   H1181     1.0  0.39600  0.75941  0.92929  1.0000
  N   N102      1.0  0.23755  0.77714  0.58220  1.0000
  C   C1184     1.0  0.13384  0.71508  0.54573  1.0000
  C   C1185     1.0  0.48043  0.76347  0.92377  1.0000
  Fe  Fe210     1.0  0.08610  0.64893  0.61115  1.0000
  S   S423      1.0  0.10233  0.62864  0.60802  1.0000
  S   S424      1.0  0.06342  0.64562  0.62125  1.0000
  Fe  Fe211     1.0  0.10905  0.66710  0.59872  1.0000
  S   S425      1.0  0.12711  0.64811  0.59441  1.0000
  S   S426      1.0  0.11091  0.69020  0.59432  1.0000
  Fe  Fe212     1.0  0.11090  0.64172  0.58669  1.0000
  S   S427      1.0  0.11482  0.63230  0.56765  1.0000
  Fe  Fe213     1.0  0.11661  0.63685  0.61619  1.0000
  S   S428      1.0  0.12919  0.62191  0.63228  1.0000
  S   S429      1.0  0.09365  0.66165  0.58918  1.0000
  S   S430      1.0  0.09965  0.65624  0.62118  1.0000
  Fe  Fe214     1.0  0.05524  0.60980  0.54855  1.0000
  C   C1186     1.0  0.11327  0.77290  0.53773  1.0000
  S   S431      1.0  0.05561  0.62168  0.56429  1.0000
  Fe  Fe215     1.0  0.05353  0.60768  0.51941  1.0000
  H   H1182     1.0  0.04197  0.66983  0.63517  1.0000
  H   H1183     1.0  0.23570  0.75312  0.56498  1.0000
  C   C1187     1.0  0.07902  0.65235  0.53743  1.0000
  C   C1188     1.0  0.48453  0.77725  0.86203  1.0000
  S   S432      1.0  0.03668  0.61562  0.53754  1.0000
  C   C1189     1.0  0.00358  0.59452  0.56848  1.0000
  H   H1184     1.0  0.13277  0.71434  0.51938  1.0000
  H   H1185     1.0  0.46031  0.75228  0.85434  1.0000
  N   N103      1.0  0.04937  0.65326  0.54361  1.0000
  C   C1190     1.0  0.42336  0.62448  0.97442  1.0000
  C   C1191     1.0  0.04324  0.61028  0.48999  1.0000
  H   H1186     1.0  0.02841  0.70124  0.59936  1.0000
  C   C1192     1.0  0.46666  0.77074  0.83896  1.0000
  C   C1193     1.0  0.00768  0.60552  0.57154  1.0000
  C   C1194     1.0  0.45671  0.76239  0.84725  1.0000
  C   C1195     1.0  0.09864  0.62840  0.56712  1.0000
  C   C1196     1.0  0.09848  0.62134  0.55687  1.0000
  C   C1197     1.0  0.08538  0.61877  0.55614  1.0000
  C   C1198     1.0  0.07242  0.62345  0.56554  1.0000
  C   C1199     1.0  0.07266  0.63020  0.57595  1.0000
  C   C1200     1.0  0.08572  0.63262  0.57677  1.0000
  H   H1187     1.0  0.10848  0.61799  0.54943  1.0000
  H   H1188     1.0  0.08527  0.61350  0.54810  1.0000
  H   H1189     1.0  0.06267  0.63381  0.58326  1.0000
  H   H1190     1.0  0.08567  0.63795  0.58479  1.0000
  C   C1201     1.0  0.05283  0.64999  0.60849  1.0000
  C   C1202     1.0  0.05386  0.66189  0.59708  1.0000
  C   C1203     1.0  0.04244  0.64210  0.61040  1.0000
  H   H1191     1.0  0.06174  0.66815  0.59565  1.0000
  H   H1192     1.0  0.04178  0.63271  0.61901  1.0000
  C   C1204     1.0  0.11812  0.61232  0.64674  1.0000
  C   C1205     1.0  0.37940  0.74174  0.89848  1.0000
  H   H1193     1.0  0.02536  0.63982  0.60238  1.0000
  C   C1206     1.0  0.37502  0.73446  0.91255  1.0000
  C   C1207     1.0  0.09418  0.60879  0.66027  1.0000
  C   C1208     1.0  0.10298  0.61670  0.64903  1.0000
  H   H1194     1.0  0.01799  0.60830  0.56599  1.0000
  H   H1195     1.0  0.08995  0.77443  0.50088  1.0000
  N   N104      1.0  0.20840  0.77955  0.50576  1.0000
  H   H1196     1.0  0.09802  0.62618  0.64213  1.0000
  H   H1197     1.0  0.12607  0.74819  0.51173  1.0000
  H   H1198     1.0  0.37464  0.73255  0.93456  1.0000
  C   C1209     1.0  0.03385  0.65314  0.54757  1.0000
  C   C1210     1.0  0.43968  0.78585  0.95699  1.0000
  H   H1199     1.0  0.13612  0.59661  0.65412  1.0000
  C   C1211     1.0  0.42667  0.60033  0.94771  1.0000
  C   C1212     1.0  0.38668  0.75403  0.93281  1.0000
  H   H1200     1.0  0.08069  0.64114  0.52127  1.0000
  C   C1213     1.0  0.44212  0.76718  0.84651  1.0000
  C   C1214     1.0  0.05477  0.65906  0.55134  1.0000
  C   C1215     1.0  0.01454  0.67260  0.62003  1.0000
  H   H1201     1.0  0.03142  0.64563  0.55811  1.0000
  C   C1216     1.0  0.30336  0.63101  0.95249  1.0000
  C   C1217     1.0  0.13658  0.74905  0.50475  1.0000
  H   H1202     1.0  0.13586  0.70451  0.55327  1.0000
  S   S433      1.0  0.10230  0.78745  0.51413  1.0000
  C   C1218     1.0  0.05723  0.59420  0.72818  1.0000
  Fe  Fe216     1.0  0.37739  0.66108  0.97290  1.0000
  H   H1203     1.0  0.32626  0.60384  0.97790  1.0000
  S   S434      1.0  0.42548  0.63139  0.95603  1.0000
  H   H1204     1.0  0.15806  0.78757  0.49790  1.0000
  C   C1219     1.0  0.14927  0.68213  0.61283  1.0000
  C   C1220     1.0  0.10042  0.59635  0.66919  1.0000
  C   C1221     1.0  0.07344  0.64645  0.52956  1.0000
  C   C1222     1.0  0.39834  0.70392  0.92477  1.0000
  C   C1223     1.0  0.39948  0.70500  0.93804  1.0000
  C   C1224     1.0  0.40729  0.71450  0.93881  1.0000
  C   C1225     1.0  0.41397  0.72309  0.92635  1.0000
  C   C1226     1.0  0.41303  0.72190  0.91304  1.0000
  C   C1227     1.0  0.40528  0.71230  0.91227  1.0000
  H   H1205     1.0  0.39397  0.69884  0.94776  1.0000
  H   H1206     1.0  0.40796  0.71536  0.94915  1.0000
  H   H1207     1.0  0.41814  0.72845  0.90337  1.0000
  H   H1208     1.0  0.40443  0.71154  0.90196  1.0000
  C   C1228     1.0  0.35112  0.62452  0.94573  1.0000
  C   C1229     1.0  0.34684  0.63432  0.93376  1.0000
  C   C1230     1.0  0.33811  0.63100  0.92664  1.0000
  C   C1231     1.0  0.33367  0.61788  0.93142  1.0000
  C   C1232     1.0  0.33803  0.60815  0.94334  1.0000
  C   C1233     1.0  0.34668  0.61145  0.95046  1.0000
  H   H1209     1.0  0.35026  0.64442  0.92999  1.0000
  H   H1210     1.0  0.33484  0.63859  0.91736  1.0000
  H   H1211     1.0  0.13315  0.72365  0.55117  1.0000
  H   H1212     1.0  0.35006  0.60374  0.95965  1.0000
  H   H1213     1.0  0.12308  0.71688  0.54318  1.0000
  C   C1234     1.0  0.13433  0.68556  0.61844  1.0000
  H   H1214     1.0  0.09064  0.65156  0.53538  1.0000
  H   H1215     1.0  0.12818  0.65190  0.62971  1.0000
  H   H1216     1.0  0.43882  0.60457  0.97250  1.0000
  C   C1235     1.0  0.02698  0.69186  0.60789  1.0000
  S   S435      1.0  0.05364  0.61795  0.49623  1.0000
  H   H1217     1.0  0.15520  0.69061  0.60765  1.0000
  C   C1236     1.0  0.04372  0.60001  0.73601  1.0000
  C   C1237     1.0  0.06327  0.60282  0.64280  1.0000
  H   H1218     1.0  0.46871  0.76628  0.92486  1.0000
  S   S436      1.0  0.40839  0.78179  0.86933  1.0000
  C   C1238     1.0  0.39741  0.60058  0.95893  1.0000
  H   H1219     1.0  0.43329  0.76721  0.95605  1.0000
  H   H1220     1.0  0.15333  0.63526  0.63042  1.0000
  C   C1239     1.0  0.12671  0.67464  0.62454  1.0000
  S   S437      1.0  0.07239  0.60434  0.52944  1.0000
  H   H1221     1.0  0.17673  0.71764  0.49909  1.0000
  H   H1222     1.0  0.27172  0.61002  0.98140  1.0000
  C   C1240     1.0  0.22060  0.75826  0.58408  1.0000
  C   C1241     1.0  0.03328  0.65867  0.59026  1.0000
  Fe  Fe217     1.0  0.03574  0.59253  0.54619  1.0000
  H   H1223     1.0  0.04500  0.69165  0.61630  1.0000
  C   C1242     1.0  0.14745  0.75125  0.51000  1.0000
  C   C1243     1.0  0.37217  0.59662  0.92224  1.0000
  C   C1244     1.0  0.15374  0.70540  0.57578  1.0000
  C   C1245     1.0  0.14060  0.71512  0.57917  1.0000
  C   C1246     1.0  0.12752  0.71033  0.58452  1.0000
  C   C1247     1.0  0.12744  0.69584  0.58640  1.0000
  C   C1248     1.0  0.14053  0.68619  0.58258  1.0000
  C   C1249     1.0  0.15365  0.69095  0.57737  1.0000
  H   H1224     1.0  0.14055  0.72626  0.57804  1.0000
  H   H1225     1.0  0.11744  0.71787  0.58745  1.0000
  H   H1226     1.0  0.14059  0.67502  0.58395  1.0000
  H   H1227     1.0  0.16379  0.68339  0.57470  1.0000
  C   C1250     1.0  0.03124  0.60230  0.73091  1.0000
  H   H1228     1.0  0.20692  0.76637  0.60239  1.0000
  H   H1229     1.0  0.35461  0.60556  0.91133  1.0000
  H   H1230     1.0  0.48485  0.76069  0.90210  1.0000
  C   C1251     1.0  0.38601  0.75323  0.89576  1.0000
  C   C1252     1.0  0.13936  0.74778  0.49055  1.0000
  H   H1231     1.0  0.03257  0.64846  0.64340  1.0000
  H   H1232     1.0  0.47367  0.78066  0.86019  1.0000
  C   C1253     1.0  0.15616  0.64205  0.61954  1.0000
  C   C1254     1.0  0.15635  0.66775  0.61324  1.0000
  H   H1233     1.0  0.20808  0.74489  0.50914  1.0000
  H   H1234     1.0  0.12209  0.76164  0.55630  1.0000
  C   C1255     1.0  0.13417  0.66036  0.62500  1.0000
  H   H1235     1.0  0.08216  0.60982  0.62881  1.0000
  H   H1236     1.0  0.38962  0.74446  0.94130  1.0000
  H   H1237     1.0  0.03117  0.60223  0.51099  1.0000
  H   H1238     1.0  0.02259  0.59968  0.71463  1.0000
  C   C1256     1.0  0.43084  0.61067  0.97975  1.0000
  N   N105      1.0  0.48625  0.76283  0.93492  1.0000
  H   H1239     1.0  0.00615  0.66712  0.62088  1.0000
  H   H1240     1.0  0.39336  0.76614  0.90495  1.0000
  C   C1257     1.0  0.40152  0.61109  0.94703  1.0000
  H   H1241     1.0  0.11501  0.67726  0.62851  1.0000
  C   C1258     1.0  0.15901  0.71629  0.53380  1.0000
  S   S438      1.0  0.44570  0.78185  0.87802  1.0000
  C   C1259     1.0  0.41315  0.63240  0.98382  1.0000
  H   H1242     1.0  0.30582  0.63439  0.94092  1.0000
  H   H1243     1.0  0.08247  0.61225  0.66195  1.0000
  N   N106      1.0  0.14564  0.71548  0.53290  1.0000
  C   C1260     1.0  0.06964  0.65870  0.54839  1.0000
  H   H1244     1.0  0.16086  0.71662  0.54389  1.0000
  Fe  Fe218     1.0  0.48861  0.78278  0.97617  1.0000
  C   C1261     1.0  0.23303  0.75923  0.57317  1.0000
  H   H1245     1.0  0.02716  0.66398  0.54862  1.0000
  H   H1246     1.0  0.16818  0.64053  0.61644  1.0000
  C   C1262     1.0  0.28349  0.60519  0.98069  1.0000
  H   H1247     1.0  0.05581  0.61247  0.63873  1.0000
  C   C1263     1.0  0.04404  0.66628  0.58803  1.0000
  C   C1264     1.0  0.03447  0.67416  0.62806  1.0000
  C   C1265     1.0  0.21217  0.76009  0.48912  1.0000
  C   C1266     1.0  0.12012  0.77172  0.54868  1.0000
  H   H1248     1.0  0.10648  0.59787  0.63056  1.0000
  C   C1267     1.0  0.05850  0.64695  0.53286  1.0000
  C   C1268     1.0  0.03626  0.68650  0.61739  1.0000
  H   H1249     1.0  0.39330  0.61947  0.94240  1.0000
  H   H1250     1.0  0.43531  0.77424  0.92988  1.0000
  H   H1251     1.0  0.48245  0.76402  0.95687  1.0000
  H   H1252     1.0  0.01384  0.65733  0.64986  1.0000
  S   S439      1.0  0.38480  0.63880  0.96957  1.0000
  H   H1253     1.0  0.14522  0.75218  0.52095  1.0000
  C   C1269     1.0  0.48947  0.76042  0.91088  1.0000
  C   C1270     1.0  0.36298  0.59616  0.91402  1.0000
  Fe  Fe219     1.0  0.45611  0.78788  0.98076  1.0000
  C   C1271     1.0  0.24633  0.78739  0.58076  1.0000
  H   H1254     1.0  0.12857  0.69670  0.61759  1.0000
  H   H1255     1.0  0.03046  0.64965  0.53963  1.0000
  C   C1272     1.0  0.43648  0.77715  0.95001  1.0000
  H   H1256     1.0  0.06909  0.78894  0.51493  1.0000
  C   C1273     1.0  0.37757  0.73862  0.92371  1.0000
  H   H1257     1.0  0.15256  0.63808  0.61204  1.0000
  H   H1258     1.0  0.47802  0.76709  0.83961  1.0000
  C   C1274     1.0  0.50101  0.75935  0.93357  1.0000
  C   C1275     1.0  0.22545  0.77615  0.59303  1.0000
  H   H1259     1.0  0.21364  0.75138  0.58438  1.0000
  C   C1276     1.0  0.08128  0.78140  0.49581  1.0000
  H   H1260     1.0  0.04287  0.60229  0.74624  1.0000
  H   H1261     1.0  0.30988  0.63622  0.98207  1.0000
  H   H1262     1.0  0.41954  0.61943  0.93241  1.0000
  C   C1277     1.0  0.43768  0.78027  0.83738  1.0000
  H   H1263     1.0  0.43422  0.76090  0.85309  1.0000
  C   C1278     1.0  0.17041  0.71702  0.52169  1.0000
  N   N107      1.0  0.04574  0.59283  0.71047  1.0000
  C   C1279     1.0  0.38826  0.75718  0.90719  1.0000
  C   C1280     1.0  0.03287  0.64630  0.60117  1.0000
  H   H1264     1.0  0.29102  0.61627  0.95276  1.0000
  H   H1265     1.0  0.04759  0.66362  0.56012  1.0000
  C   C1281     1.0  0.29497  0.62074  0.95927  1.0000
  C   C1282     1.0  0.03326  0.60263  0.49970  1.0000
  H   H1266     1.0  0.42627  0.78390  0.83698  1.0000
  H   H1267     1.0  0.07411  0.59315  0.57785  1.0000
  N   N108      1.0  0.14880  0.65708  0.61939  1.0000
  H   H1268     1.0  0.20533  0.76221  0.52369  1.0000
  C   C1283     1.0  0.14338  0.71484  0.52021  1.0000
  H   H1269     1.0  0.04444  0.67589  0.57965  1.0000
  H   H1270     1.0  0.25083  0.76980  0.56362  1.0000
  C   C1284     1.0  0.43771  0.78109  0.93518  1.0000
  H   H1271     1.0  0.38953  0.75899  0.88487  1.0000
  H   H1272     1.0  0.16787  0.66524  0.60843  1.0000
  H   H1273     1.0  0.11006  0.76371  0.53683  1.0000
  H   H1274     1.0  0.46802  0.75982  0.95220  1.0000
  H   H1275     1.0  0.25742  0.78166  0.58229  1.0000
  C   C1285     1.0  0.24145  0.76876  0.57240  1.0000
  C   C1286     1.0  0.13856  0.78613  0.49310  1.0000
  S   S440      1.0  0.13421  0.78171  0.56253  1.0000
  H   H1276     1.0  0.40763  0.64323  0.97985  1.0000
  C   C1287     1.0  0.30548  0.63219  0.97555  1.0000
  C   C1288     1.0  0.21681  0.76670  0.59414  1.0000
  C   C1289     1.0  0.11557  0.59199  0.66703  1.0000
  C   C1290     1.0  0.06941  0.78946  0.50386  1.0000
  C   C1291     1.0  0.02595  0.59535  0.49488  1.0000
  C   C1292     1.0  0.16814  0.71659  0.50867  1.0000
  C   C1293     1.0  0.32167  0.59492  0.98471  1.0000
  C   C1294     1.0  0.20757  0.76565  0.51217  1.0000
  H   H1277     1.0  0.02060  0.60625  0.73719  1.0000
  C   C1295     1.0  0.20935  0.75574  0.50398  1.0000
  H   H1278     1.0  0.22204  0.78317  0.60049  1.0000
  C   C1296     1.0  0.46182  0.78387  0.83006  1.0000
  C   C1297     1.0  0.49345  0.78716  0.85775  1.0000
  H   H1279     1.0  0.38596  0.60070  0.96343  1.0000
  H   H1280     1.0  0.01827  0.64686  0.63658  1.0000
  Fe  Fe220     1.0  0.31650  0.59223  0.92957  1.0000
  C   C1298     1.0  0.07825  0.60126  0.63721  1.0000
  C   C1299     1.0  0.20740  0.78108  0.55590  1.0000
  H   H1281     1.0  0.07884  0.59162  0.49501  1.0000
  C   C1300     1.0  0.12446  0.78355  0.54971  1.0000
  H   H1282     1.0  0.43805  0.60066  0.94347  1.0000
  H   H1283     1.0  0.22719  0.78506  0.54083  1.0000
  C   C1301     1.0  0.29668  0.62222  0.98199  1.0000
  H   H1284     1.0  0.06696  0.59192  0.73226  1.0000
  C   C1302     1.0  0.21160  0.78379  0.49117  1.0000
  C   C1303     1.0  0.11057  0.78598  0.52798  1.0000
  H   H1285     1.0  0.03747  0.59385  0.69246  1.0000
  C   C1304     1.0  0.21904  0.78808  0.54996  1.0000
  C   C1305     1.0  0.19697  0.78504  0.56773  1.0000
  H   H1286     1.0  0.31601  0.64400  0.95549  1.0000
  H   H1287     1.0  0.46959  0.79040  0.82372  1.0000
  H   H1288     1.0  0.36473  0.60316  0.98459  1.0000
  C   C1306     1.0  0.02208  0.65435  0.64036  1.0000
  H   H1289     1.0  0.18800  0.77970  0.57246  1.0000
  H   H1290     1.0  0.19837  0.78757  0.52473  1.0000
  H   H1291     1.0  0.21709  0.78881  0.51721  1.0000
  N   N109      1.0  0.44748  0.78848  0.82940  1.0000
  C   C1307     1.0  0.20656  0.78972  0.51459  1.0000
  C   C1308     1.0  0.05808  0.59188  0.65362  1.0000
  H   H1292     1.0  0.04649  0.59284  0.65801  1.0000
  H   H1293     1.0  0.38450  0.68513  0.98524  1.0000
  C   C1309     1.0  0.15162  0.79050  0.48988  1.0000
  C   C1310     1.0  0.16372  0.75132  0.48676  1.0000
  S   S441      1.0  0.35182  0.93092  0.48505  1.0000
  Fe  Fe221     1.0  0.20367  0.84369  0.45319  1.0000
  S   S442      1.0  0.22627  0.84103  0.45566  1.0000
  S   S443      1.0  0.18698  0.86440  0.45284  1.0000
  Fe  Fe222     1.0  0.23280  0.82892  0.43831  1.0000
  S   S444      1.0  0.25223  0.83325  0.42033  1.0000
  H   H1294     1.0  0.32923  0.94013  0.37500  1.0000
  S   S445      1.0  0.21015  0.83294  0.43472  1.0000
  H   H1295     1.0  0.38376  0.90754  0.32700  1.0000
  C   C1311     1.0  0.38171  0.91855  0.32095  1.0000
  S   S446      1.0  0.41815  0.98081  0.29066  1.0000
  C   C1312     1.0  0.42188  0.90596  0.40663  1.0000
  S   S447      1.0  0.11505  0.83464  0.45293  1.0000
  H   H1296     1.0  0.44897  0.84209  0.08220  1.0000
  H   H1297     1.0  0.31327  0.92552  0.46544  1.0000
  S   S448      1.0  0.43723  0.83633  0.22681  1.0000
  Fe  Fe223     1.0  0.47613  0.82393  0.18542  1.0000
  H   H1298     1.0  0.16488  0.86459  0.48073  1.0000
  S   S449      1.0  0.47607  0.83040  0.20512  1.0000
  H   H1299     1.0  0.42246  0.83844  0.28867  1.0000
  C   C1313     1.0  0.29044  0.82563  0.44107  1.0000
  S   S450      1.0  0.47122  0.81518  0.10955  1.0000
  C   C1314     1.0  0.29935  0.97245  0.46699  1.0000
  C   C1315     1.0  0.48366  0.80694  0.04591  1.0000
  Fe  Fe224     1.0  0.44165  0.89557  0.29753  1.0000
  S   S451      1.0  0.43906  0.89426  0.27639  1.0000
  S   S452      1.0  0.45926  0.90474  0.29949  1.0000
  Fe  Fe225     1.0  0.41652  0.88143  0.31446  1.0000
  S   S453      1.0  0.41178  0.87842  0.29497  1.0000
  S   S454      1.0  0.40508  0.87549  0.33748  1.0000
  Fe  Fe226     1.0  0.43603  0.87198  0.28734  1.0000
  S   S455      1.0  0.44968  0.85271  0.27847  1.0000
  Fe  Fe227     1.0  0.41519  0.90090  0.28561  1.0000
  S   S456      1.0  0.39929  0.91632  0.27322  1.0000
  S   S457      1.0  0.44050  0.87279  0.30787  1.0000
  S   S458      1.0  0.41803  0.90437  0.30571  1.0000
  Fe  Fe228     1.0  0.32439  0.88859  0.37448  1.0000
  S   S459      1.0  0.30058  0.88861  0.38304  1.0000
  S   S460      1.0  0.33700  0.88041  0.35458  1.0000
  Fe  Fe229     1.0  0.32486  0.90547  0.39516  1.0000
  S   S461      1.0  0.30122  0.90705  0.40563  1.0000
  S   S462      1.0  0.33933  0.91755  0.39868  1.0000
  Fe  Fe230     1.0  0.30548  0.88388  0.40466  1.0000
  S   S463      1.0  0.29374  0.87003  0.42414  1.0000
  Fe  Fe231     1.0  0.29795  0.91157  0.38345  1.0000
  S   S464      1.0  0.27923  0.92801  0.37597  1.0000
  S   S465      1.0  0.32973  0.88178  0.39622  1.0000
  S   S466      1.0  0.32115  0.91206  0.37292  1.0000
  Fe  Fe232     1.0  0.46435  0.93730  0.37245  1.0000
  S   S467      1.0  0.48112  0.92494  0.35733  1.0000
  S   S468      1.0  0.45138  0.95911  0.36454  1.0000
  Fe  Fe233     1.0  0.46937  0.91397  0.39864  1.0000
  S   S469      1.0  0.48676  0.89941  0.38604  1.0000
  S   S470      1.0  0.45965  0.90761  0.42205  1.0000
  Fe  Fe234     1.0  0.20803  0.81256  0.45143  1.0000
  Fe  Fe235     1.0  0.47198  0.90599  0.37073  1.0000
  S   S471      1.0  0.46472  0.89009  0.36377  1.0000
  S   S472      1.0  0.47838  0.93363  0.38788  1.0000
  S   S473      1.0  0.45396  0.91888  0.38434  1.0000
  Fe  Fe236     1.0  0.35408  0.95220  0.47049  1.0000
  C   C1316     1.0  0.44276  0.88590  0.40321  1.0000
  N   N110      1.0  0.42766  0.91955  0.47343  1.0000
  Fe  Fe237     1.0  0.38061  0.93940  0.45029  1.0000
  S   S474      1.0  0.38076  0.91693  0.46311  1.0000
  S   S475      1.0  0.39616  0.94606  0.42969  1.0000
  Fe  Fe238     1.0  0.35667  0.92322  0.46483  1.0000
  S   S476      1.0  0.34332  0.90937  0.46248  1.0000
  Fe  Fe239     1.0  0.10175  0.83280  0.47539  1.0000
  S   S477      1.0  0.35685  0.94494  0.45047  1.0000
  H   H1300     1.0  0.16416  0.81269  0.45038  1.0000
  C   C1317     1.0  0.38504  0.92913  0.32540  1.0000
  C   C1318     1.0  0.44220  0.91854  0.42490  1.0000
  C   C1319     1.0  0.43128  0.91407  0.43643  1.0000
  C   C1320     1.0  0.41710  0.92257  0.43812  1.0000
  C   C1321     1.0  0.41387  0.93552  0.42830  1.0000
  C   C1322     1.0  0.42488  0.94006  0.41697  1.0000
  C   C1323     1.0  0.43901  0.93162  0.41530  1.0000
  H   H1301     1.0  0.43372  0.90394  0.44387  1.0000
  H   H1302     1.0  0.40871  0.91902  0.44693  1.0000
  H   H1303     1.0  0.42259  0.95017  0.40947  1.0000
  H   H1304     1.0  0.44747  0.93531  0.40657  1.0000
  C   C1324     1.0  0.34133  0.91390  0.41633  1.0000
  C   C1325     1.0  0.35152  0.91948  0.41924  1.0000
  C   C1326     1.0  0.35247  0.91776  0.43339  1.0000
  C   C1327     1.0  0.34317  0.91052  0.44467  1.0000
  C   C1328     1.0  0.33321  0.90467  0.44173  1.0000
  C   C1329     1.0  0.33229  0.90635  0.42757  1.0000
  H   H1305     1.0  0.35855  0.92529  0.41056  1.0000
  H   H1306     1.0  0.36034  0.92207  0.43557  1.0000
  H   H1307     1.0  0.32605  0.89901  0.45044  1.0000
  H   H1308     1.0  0.32441  0.90202  0.42537  1.0000
  H   H1309     1.0  0.41927  0.96610  0.37938  1.0000
  C   C1330     1.0  0.32400  0.97317  0.46625  1.0000
  H   H1310     1.0  0.28658  0.84801  0.46089  1.0000
  H   H1311     1.0  0.26224  0.97990  0.36359  1.0000
  C   C1331     1.0  0.37295  0.91059  0.30455  1.0000
  H   H1312     1.0  0.45324  0.82243  0.04776  1.0000
  S   S478      1.0  0.08685  0.81751  0.48435  1.0000
  N   N111      1.0  0.00629  0.86582  0.43921  1.0000
  C   C1332     1.0  0.26844  0.97107  0.37014  1.0000
  C   C1333     1.0  0.26947  0.95696  0.36945  1.0000
  C   C1334     1.0  0.27765  0.94547  0.37766  1.0000
  C   C1335     1.0  0.28454  0.94810  0.38685  1.0000
  C   C1336     1.0  0.28331  0.96227  0.38770  1.0000
  H   H1313     1.0  0.44145  0.87211  0.18440  1.0000
  H   H1314     1.0  0.26405  0.95496  0.36240  1.0000
  H   H1315     1.0  0.29077  0.93924  0.39330  1.0000
  H   H1316     1.0  0.28847  0.96421  0.39492  1.0000
  C   C1337     1.0  0.46113  0.90036  0.31726  1.0000
  C   C1338     1.0  0.45148  0.89317  0.32812  1.0000
  C   C1339     1.0  0.45279  0.88995  0.34234  1.0000
  C   C1340     1.0  0.46350  0.89425  0.34583  1.0000
  C   C1341     1.0  0.47307  0.90161  0.33502  1.0000
  C   C1342     1.0  0.47197  0.90454  0.32071  1.0000
  H   H1317     1.0  0.44291  0.89013  0.32563  1.0000
  H   H1318     1.0  0.44539  0.88422  0.35065  1.0000
  H   H1319     1.0  0.48146  0.90482  0.33766  1.0000
  H   H1320     1.0  0.47942  0.91018  0.31236  1.0000
  C   C1343     1.0  0.38605  0.87780  0.34178  1.0000
  C   C1344     1.0  0.37853  0.87813  0.33168  1.0000
  C   C1345     1.0  0.36344  0.87899  0.33569  1.0000
  C   C1346     1.0  0.35577  0.87994  0.34968  1.0000
  C   C1347     1.0  0.36325  0.88009  0.35962  1.0000
  C   C1348     1.0  0.37838  0.87881  0.35572  1.0000
  H   H1321     1.0  0.38436  0.87734  0.32091  1.0000
  H   H1322     1.0  0.35767  0.87886  0.32799  1.0000
  H   H1323     1.0  0.35742  0.88079  0.37042  1.0000
  H   H1324     1.0  0.38415  0.87855  0.36358  1.0000
  C   C1349     1.0  0.42049  0.95710  0.33922  1.0000
  C   C1350     1.0  0.43680  0.96919  0.34309  1.0000
  C   C1351     1.0  0.43940  0.95826  0.35499  1.0000
  C   C1352     1.0  0.43238  0.94682  0.35914  1.0000
  C   C1353     1.0  0.42284  0.94629  0.35130  1.0000
  C   C1354     1.0  0.44584  0.83483  0.07789  1.0000
  H   H1325     1.0  0.43416  0.93849  0.36847  1.0000
  H   H1326     1.0  0.41744  0.93746  0.35446  1.0000
  C   C1355     1.0  0.39439  0.96425  0.26868  1.0000
  C   C1356     1.0  0.38757  0.95931  0.26108  1.0000
  C   C1357     1.0  0.38940  0.94458  0.26238  1.0000
  C   C1358     1.0  0.39829  0.93467  0.27109  1.0000
  C   C1359     1.0  0.40541  0.93955  0.27851  1.0000
  C   C1360     1.0  0.40333  0.95437  0.27742  1.0000
  H   H1327     1.0  0.38068  0.96691  0.25430  1.0000
  H   H1328     1.0  0.38389  0.94087  0.25662  1.0000
  H   H1329     1.0  0.41230  0.93196  0.28524  1.0000
  H   H1330     1.0  0.40864  0.95814  0.28328  1.0000
  N   N112      1.0  0.43095  0.89711  0.39798  1.0000
  H   H1331     1.0  0.36986  0.91449  0.29400  1.0000
  H   H1332     1.0  0.36394  0.90629  0.31262  1.0000
  Fe  Fe240     1.0  0.39639  0.98882  0.28488  1.0000
  H   H1333     1.0  0.15307  0.88178  0.48265  1.0000
  C   C1361     1.0  0.10926  0.82424  0.44499  1.0000
  H   H1334     1.0  0.17350  0.90874  0.46961  1.0000
  C   C1362     1.0  0.44095  0.84114  0.24089  1.0000
  C   C1363     1.0  0.45400  0.83478  0.24539  1.0000
  C   C1364     1.0  0.45661  0.83856  0.25681  1.0000
  C   C1365     1.0  0.44633  0.84892  0.26363  1.0000
  C   C1366     1.0  0.43346  0.85560  0.25887  1.0000
  C   C1367     1.0  0.43074  0.85164  0.24759  1.0000
  H   H1335     1.0  0.46195  0.82671  0.24026  1.0000
  H   H1336     1.0  0.46658  0.83332  0.26045  1.0000
  H   H1337     1.0  0.42549  0.86363  0.26403  1.0000
  H   H1338     1.0  0.42067  0.85666  0.24409  1.0000
  H   H1339     1.0  0.43744  0.83591  0.30569  1.0000
  H   H1340     1.0  0.30145  0.83270  0.46394  1.0000
  H   H1341     1.0  0.43508  0.95055  0.44082  1.0000
  H   H1342     1.0  0.42621  0.97655  0.32548  1.0000
  C   C1368     1.0  0.40801  0.97182  0.37999  1.0000
  H   H1343     1.0  0.13249  0.88643  0.44443  1.0000
  C   C1369     1.0  0.38958  0.99017  0.36965  1.0000
  C   C1370     1.0  0.13579  0.79729  0.46899  1.0000
  H   H1344     1.0  0.45467  0.92885  0.44541  1.0000
  S   S479      1.0  0.48390  0.84163  0.07534  1.0000
  C   C1371     1.0  0.31377  0.95220  0.36197  1.0000
  H   H1345     1.0  0.38967  0.92637  0.33473  1.0000
  C   C1372     1.0  0.29437  0.83902  0.45639  1.0000
  Fe  Fe241     1.0  0.40491  0.97681  0.31309  1.0000
  C   C1373     1.0  0.42828  0.83992  0.33236  1.0000
  H   H1346     1.0  0.39549  0.84559  0.29590  1.0000
  C   C1374     1.0  0.26302  0.84448  0.42103  1.0000
  C   C1375     1.0  0.26083  0.84981  0.43319  1.0000
  C   C1376     1.0  0.27002  0.85806  0.43377  1.0000
  C   C1377     1.0  0.28151  0.86110  0.42221  1.0000
  C   C1378     1.0  0.28353  0.85616  0.40986  1.0000
  C   C1379     1.0  0.27435  0.84781  0.40931  1.0000
  H   H1347     1.0  0.25240  0.84724  0.44235  1.0000
  H   H1348     1.0  0.26837  0.86188  0.44335  1.0000
  H   H1349     1.0  0.29245  0.85836  0.40091  1.0000
  H   H1350     1.0  0.27618  0.84373  0.39985  1.0000
  C   C1380     1.0  0.18976  0.87622  0.46140  1.0000
  C   C1381     1.0  0.20132  0.87254  0.46826  1.0000
  C   C1382     1.0  0.46176  0.94826  0.32349  1.0000
  H   H1351     1.0  0.46807  0.87095  0.27928  1.0000
  C   C1383     1.0  0.04443  0.83636  0.48220  1.0000
  H   H1352     1.0  0.12394  0.86382  0.44934  1.0000
  H   H1353     1.0  0.20867  0.86224  0.46854  1.0000
  C   C1384     1.0  0.32750  0.97457  0.45144  1.0000
  C   C1385     1.0  0.05912  0.79935  0.48300  1.0000
  H   H1354     1.0  0.17104  0.89240  0.45630  1.0000
  Fe  Fe242     1.0  0.22316  0.82011  0.47040  1.0000
  C   C1386     1.0  0.17994  0.88943  0.46166  1.0000
  H   H1355     1.0  0.13081  0.81556  0.43389  1.0000
  N   N113      1.0  0.43906  0.81508  0.06734  1.0000
  C   C1387     1.0  0.43246  0.81682  0.08095  1.0000
  C   C1388     1.0  0.44838  0.82351  0.05867  1.0000
  C   C1389     1.0  0.43582  0.82666  0.08646  1.0000
  C   C1390     1.0  0.45207  0.83337  0.06385  1.0000
  H   H1356     1.0  0.06893  0.80111  0.42428  1.0000
  C   C1391     1.0  0.43589  0.80430  0.06195  1.0000
  H   H1357     1.0  0.42512  0.81009  0.08787  1.0000
  C   C1392     1.0  0.30993  0.97215  0.47404  1.0000
  H   H1358     1.0  0.43117  0.82748  0.09750  1.0000
  C   C1393     1.0  0.41757  0.90912  0.37960  1.0000
  C   C1394     1.0  0.45180  0.79826  0.11558  1.0000
  N   N114      1.0  0.28651  0.82980  0.45382  1.0000
  H   H1359     1.0  0.50012  0.84980  0.23132  1.0000
  Fe  Fe243     1.0  0.49777  0.82943  0.05876  1.0000
  N   N115      1.0  0.14851  0.80174  0.46595  1.0000
  C   C1395     1.0  0.48713  0.85669  0.27003  1.0000
  C   C1396     1.0  0.48338  0.82012  0.03609  1.0000
  C   C1397     1.0  0.15337  0.87030  0.48364  1.0000
  H   H1360     1.0  0.02770  0.85931  0.44312  1.0000
  C   C1398     1.0  0.41060  0.91682  0.40188  1.0000
  H   H1361     1.0  0.38279  0.90181  0.30327  1.0000
  C   C1399     1.0  0.49560  0.86837  0.99850  1.0000
  H   H1362     1.0  0.29882  0.96694  0.34974  1.0000
  H   H1363     1.0  0.48101  0.85104  0.26683  1.0000
  H   H1364     1.0  0.46842  0.95103  0.32889  1.0000
  H   H1365     1.0  0.31965  0.97605  0.43293  1.0000
  C   C1400     1.0  0.14048  0.85625  0.47703  1.0000
  C   C1401     1.0  0.27114  0.81273  0.44897  1.0000
  H   H1366     1.0  0.43565  0.89112  0.37800  1.0000
  C   C1402     1.0  0.13474  0.87785  0.45353  1.0000
  C   C1403     1.0  0.37352  0.93584  0.30141  1.0000
  C   C1404     1.0  0.37663  0.94671  0.30561  1.0000
  C   C1405     1.0  0.38248  0.94329  0.31765  1.0000
  H   H1367     1.0  0.36933  0.93855  0.29181  1.0000
  H   H1368     1.0  0.37484  0.95765  0.29933  1.0000
  H   H1369     1.0  0.38512  0.95157  0.32093  1.0000
  H   H1370     1.0  0.12318  0.79705  0.42733  1.0000
  C   C1406     1.0  0.45976  0.79296  0.08804  1.0000
  H   H1371     1.0  0.19719  0.80044  0.42525  1.0000
  C   C1407     1.0  0.35929  0.98992  0.35768  1.0000
  C   C1408     1.0  0.49976  0.82801  0.98963  1.0000
  S   S480      1.0  0.46754  0.79969  0.22293  1.0000
  C   C1409     1.0  0.48676  0.84142  0.12382  1.0000
  H   H1372     1.0  0.33840  0.97532  0.44543  1.0000
  N   N116      1.0  0.50144  0.83581  0.12655  1.0000
  H   H1373     1.0  0.49431  0.87865  0.00095  1.0000
  S   S481      1.0  0.19511  0.79536  0.45626  1.0000
  Fe  Fe244     1.0  0.48903  0.82101  0.09093  1.0000
  H   H1374     1.0  0.47294  0.80834  0.08286  1.0000
  N   N117      1.0  0.41926  0.84179  0.32225  1.0000
  H   H1375     1.0  0.28546  0.81436  0.42809  1.0000
  N   N118      1.0  0.24875  0.88686  0.41382  1.0000
  C   C1410     1.0  0.24507  0.87717  0.40887  1.0000
  C   C1411     1.0  0.24036  0.89125  0.42595  1.0000
  C   C1412     1.0  0.23290  0.87137  0.41630  1.0000
  C   C1413     1.0  0.22804  0.88576  0.43359  1.0000
  C   C1414     1.0  0.22433  0.87574  0.42871  1.0000
  C   C1415     1.0  0.26147  0.89295  0.40592  1.0000
  H   H1376     1.0  0.25172  0.87360  0.39930  1.0000
  H   H1377     1.0  0.24321  0.89902  0.42980  1.0000
  H   H1378     1.0  0.23030  0.86334  0.41258  1.0000
  H   H1379     1.0  0.22138  0.88923  0.44322  1.0000
  H   H1380     1.0  0.21483  0.87135  0.43454  1.0000
  H   H1381     1.0  0.25801  0.90410  0.39988  1.0000
  H   H1382     1.0  0.26798  0.89306  0.41335  1.0000
  H   H1383     1.0  0.26889  0.88652  0.39820  1.0000
  H   H1384     1.0  0.36497  0.97930  0.36210  1.0000
  C   C1416     1.0  0.01122  0.86355  0.42458  1.0000
  H   H1385     1.0  0.45178  0.88287  0.39421  1.0000
  C   C1417     1.0  0.45910  0.95669  0.31035  1.0000
  H   H1386     1.0  0.02061  0.85421  0.42382  1.0000
  C   C1418     1.0  0.32728  0.96294  0.37123  1.0000
  H   H1387     1.0  0.41062  0.95209  0.45720  1.0000
  H   H1388     1.0  0.44757  0.88975  0.40988  1.0000
  C   C1419     1.0  0.40850  0.91843  0.38822  1.0000
  H   H1389     1.0  0.45995  0.83960  0.05709  1.0000
  N   N119      1.0  0.37616  0.92196  0.30901  1.0000
  C   C1420     1.0  0.37236  0.97222  0.40643  1.0000
  H   H1390     1.0  0.40355  0.92387  0.40878  1.0000
  C   C1421     1.0  0.13284  0.85433  0.46808  1.0000
  H   H1391     1.0  0.31062  0.94258  0.40590  1.0000
  C   C1422     1.0  0.10057  0.80350  0.43731  1.0000
  H   H1392     1.0  0.46480  0.86485  0.22605  1.0000
  H   H1393     1.0  0.26485  0.80650  0.44684  1.0000
  S   S482      1.0  0.48960  0.80188  0.19125  1.0000
  H   H1394     1.0  0.07884  0.81311  0.44716  1.0000
  C   C1423     1.0  0.14240  0.87940  0.46267  1.0000
  S   S483      1.0  0.23138  0.80744  0.45335  1.0000
  C   C1424     1.0  0.11515  0.80454  0.43313  1.0000
  N   N120      1.0  0.31011  0.97784  0.35716  1.0000
  C   C1425     1.0  0.44409  0.92983  0.45276  1.0000
  C   C1426     1.0  0.31153  0.93712  0.46023  1.0000
  C   C1427     1.0  0.40402  0.98264  0.36854  1.0000
  H   H1395     1.0  0.05058  0.80634  0.47783  1.0000
  C   C1428     1.0  0.47985  0.86787  0.27700  1.0000
  H   H1396     1.0  0.40611  0.93208  0.47800  1.0000
  N   N121      1.0  0.44411  0.94142  0.31015  1.0000
  C   C1429     1.0  0.44644  0.93327  0.32315  1.0000
  C   C1430     1.0  0.45023  0.95306  0.30377  1.0000
  C   C1431     1.0  0.45540  0.93648  0.32994  1.0000
  H   H1397     1.0  0.48945  0.82760  0.98736  1.0000
  H   H1398     1.0  0.44967  0.90904  0.46615  1.0000
  C   C1432     1.0  0.43491  0.93787  0.30295  1.0000
  H   H1399     1.0  0.44136  0.92424  0.32839  1.0000
  H   H1400     1.0  0.44817  0.95964  0.29356  1.0000
  H   H1401     1.0  0.45717  0.93001  0.34028  1.0000
  H   H1402     1.0  0.47682  0.83298  0.01674  1.0000
  C   C1433     1.0  0.19300  0.89508  0.47588  1.0000
  H   H1403     1.0  0.42519  0.94672  0.30181  1.0000
  H   H1404     1.0  0.44117  0.93601  0.29223  1.0000
  H   H1405     1.0  0.43109  0.92792  0.30902  1.0000
  C   C1434     1.0  0.47857  0.79618  0.04353  1.0000
  C   C1435     1.0  0.15354  0.81008  0.45160  1.0000
  H   H1406     1.0  0.48947  0.86638  0.21068  1.0000
  H   H1407     1.0  0.44558  0.86329  0.21546  1.0000
  H   H1408     1.0  0.12955  0.79986  0.46089  1.0000
  H   H1409     1.0  0.11063  0.89216  0.47709  1.0000
  S   S484      1.0  0.48751  0.79855  0.98880  1.0000
  H   H1410     1.0  0.47965  0.84694  0.13239  1.0000
  S   S485      1.0  0.03684  0.82841  0.44245  1.0000
  S   S486      1.0  0.37790  0.94884  0.46897  1.0000
  S   S487      1.0  0.48249  0.83831  0.16401  1.0000
  H   H1411     1.0  0.39979  0.92680  0.38438  1.0000
  Fe  Fe245     1.0  0.37600  0.92681  0.48205  1.0000
  H   H1412     1.0  0.32053  0.94119  0.46131  1.0000
  H   H1413     1.0  0.48683  0.84911  0.11328  1.0000
  N   N122      1.0  0.45921  0.86350  0.19462  1.0000
  C   C1436     1.0  0.47252  0.86491  0.18598  1.0000
  C   C1437     1.0  0.45624  0.86406  0.20870  1.0000
  C   C1438     1.0  0.48359  0.86602  0.19161  1.0000
  H   H1414     1.0  0.48783  0.80495  0.05530  1.0000
  C   C1439     1.0  0.48087  0.86590  0.20612  1.0000
  S   S488      1.0  0.33747  0.97183  0.47506  1.0000
  H   H1415     1.0  0.47479  0.86471  0.17476  1.0000
  H   H1416     1.0  0.28847  0.97158  0.47301  1.0000
  H   H1417     1.0  0.37323  0.97717  0.41474  1.0000
  H   H1418     1.0  0.01451  0.87327  0.41710  1.0000
  H   H1419     1.0  0.49429  0.86659  0.18482  1.0000
  C   C1440     1.0  0.28280  0.81707  0.43845  1.0000
  H   H1420     1.0  0.44230  0.97799  0.33982  1.0000
  H   H1421     1.0  0.29147  0.93179  0.45067  1.0000
  H   H1422     1.0  0.14593  0.88933  0.46059  1.0000
  C   C1441     1.0  0.37930  0.98672  0.38226  1.0000
  C   C1442     1.0  0.05230  0.83547  0.45714  1.0000
  H   H1423     1.0  0.33521  0.96197  0.37732  1.0000
  Fe  Fe246     1.0  0.49446  0.91961  0.37383  1.0000
  H   H1424     1.0  0.06035  0.83667  0.44719  1.0000
  H   H1425     1.0  0.39930  0.84762  0.33698  1.0000
  H   H1426     1.0  0.05431  0.79742  0.43946  1.0000
  H   H1427     1.0  0.30123  0.84403  0.44632  1.0000
  C   C1443     1.0  0.47763  0.82263  0.02408  1.0000
  C   C1444     1.0  0.39738  0.96846  0.39230  1.0000
  C   C1445     1.0  0.40443  0.84552  0.32641  1.0000
  C   C1446     1.0  0.32026  0.97650  0.36469  1.0000
  S   S489      1.0  0.45468  0.81741  0.19416  1.0000
  C   C1447     1.0  0.03951  0.83152  0.45782  1.0000
  H   H1428     1.0  0.00248  0.86114  0.42116  1.0000
  C   C1448     1.0  0.09457  0.82382  0.44828  1.0000
  C   C1449     1.0  0.05478  0.83781  0.46934  1.0000
  C   C1450     1.0  0.20314  0.88210  0.47524  1.0000
  C   C1451     1.0  0.44115  0.91860  0.46448  1.0000
  H   H1429     1.0  0.08663  0.83124  0.45417  1.0000
  Fe  Fe247     1.0  0.01536  0.82319  0.44528  1.0000
  S   S490      1.0  0.19985  0.82390  0.46962  1.0000
  C   C1452     1.0  0.44802  0.86153  0.18871  1.0000
  C   C1453     1.0  0.26744  0.81672  0.46205  1.0000
  C   C1454     1.0  0.11947  0.81508  0.43677  1.0000
  H   H1430     1.0  0.42305  0.84722  0.33988  1.0000
  C   C1455     1.0  0.42872  0.89838  0.38473  1.0000
  H   H1431     1.0  0.07205  0.79237  0.46395  1.0000
  S   S491      1.0  0.48970  0.83384  0.03865  1.0000
  C   C1456     1.0  0.46566  0.80265  0.09120  1.0000
  S   S492      1.0  0.01101  0.80120  0.45466  1.0000
  H   H1432     1.0  0.16664  0.80172  0.47374  1.0000
  S   S493      1.0  0.45163  0.80406  0.99399  1.0000
  H   H1433     1.0  0.40053  0.96000  0.40110  1.0000
  S   S494      1.0  0.38336  0.98308  0.30712  1.0000
  H   H1434     1.0  0.46374  0.96606  0.30538  1.0000
  C   C1457     1.0  0.31688  0.97509  0.44437  1.0000
  H   H1435     1.0  0.41599  0.91017  0.36901  1.0000
  H   H1436     1.0  0.27233  0.82844  0.47450  1.0000
  S   S495      1.0  0.39120  0.98280  0.26728  1.0000
  C   C1458     1.0  0.46207  0.80493  0.10507  1.0000
  H   H1437     1.0  0.03546  0.79179  0.42316  1.0000
  C   C1459     1.0  0.39565  0.84693  0.31702  1.0000
  N   N123      1.0  0.31114  0.93910  0.44524  1.0000
  C   C1460     1.0  0.32194  0.94399  0.43450  1.0000
  C   C1461     1.0  0.30002  0.93565  0.44213  1.0000
  C   C1462     1.0  0.32178  0.94554  0.42019  1.0000
  C   C1463     1.0  0.29959  0.93694  0.42794  1.0000
  C   C1464     1.0  0.31061  0.94185  0.41693  1.0000
  N   N124      1.0  0.38320  0.97576  0.39326  1.0000
  H   H1438     1.0  0.33089  0.94647  0.43696  1.0000
  C   C1465     1.0  0.15643  0.79843  0.47618  1.0000
  H   H1439     1.0  0.33052  0.94912  0.41171  1.0000
  H   H1440     1.0  0.29087  0.93405  0.42549  1.0000
  S   S496      1.0  0.30453  0.97889  0.40175  1.0000
  H   H1441     1.0  0.48223  0.88391  0.28630  1.0000
  C   C1466     1.0  0.46707  0.86505  0.21472  1.0000
  H   H1442     1.0  0.29914  0.82939  0.43263  1.0000
  C   C1467     1.0  0.12994  0.86522  0.45628  1.0000
  H   H1443     1.0  0.05049  0.80806  0.42253  1.0000
  H   H1444     1.0  0.43860  0.87623  0.40964  1.0000
  C   C1468     1.0  0.18139  0.89872  0.46912  1.0000
  H   H1445     1.0  0.45303  0.85548  0.18006  1.0000
  Fe  Fe248     1.0  0.48787  0.80787  0.21180  1.0000
  H   H1446     1.0  0.46841  0.81381  0.01221  1.0000
  H   H1447     1.0  0.42340  0.90467  0.41727  1.0000
  C   C1469     1.0  0.05794  0.79862  0.42769  1.0000
  C   C1470     1.0  0.19039  0.79284  0.43089  1.0000
  C   C1471     1.0  0.01168  0.86494  0.46147  1.0000
  H   H1448     1.0  0.48204  0.83259  0.12359  1.0000
  H   H1449     1.0  0.43900  0.84257  0.32669  1.0000
  C   C1472     1.0  0.27533  0.82528  0.46433  1.0000
  C   C1473     1.0  0.01621  0.86313  0.44739  1.0000
  C   C1474     1.0  0.32396  0.95072  0.36989  1.0000
  C   C1475     1.0  0.02899  0.83027  0.47063  1.0000
  C   C1476     1.0  0.40213  0.84437  0.30336  1.0000
  H   H1450     1.0  0.06468  0.84086  0.46880  1.0000
  H   H1451     1.0  0.38390  0.85012  0.32032  1.0000
  H   H1452     1.0  0.43000  0.82868  0.33861  1.0000
  Fe  Fe249     1.0  0.45581  0.82207  0.21459  1.0000
  C   C1477     1.0  0.41725  0.84035  0.29930  1.0000
  C   C1478     1.0  0.42569  0.83902  0.30897  1.0000
  C   C1479     1.0  0.09018  0.81358  0.44428  1.0000
  H   H1453     1.0  0.24119  0.83639  0.47928  1.0000
  H   H1454     1.0  0.12912  0.84451  0.47026  1.0000
  S   S497      1.0  0.40918  0.95605  0.32904  1.0000
  H   H1455     1.0  0.01958  0.86245  0.46803  1.0000
  C   C1480     1.0  0.42752  0.96849  0.33509  1.0000
  C   C1481     1.0  0.47279  0.81180  0.02155  1.0000
  C   C1482     1.0  0.30695  0.96592  0.35561  1.0000
  S   S498      1.0  0.28958  0.97476  0.44333  1.0000
  H   H1456     1.0  0.25839  0.81337  0.47031  1.0000
  H   H1457     1.0  0.31088  0.94282  0.36101  1.0000
  H   H1458     1.0  0.44070  0.85510  0.19705  1.0000
  H   H1459     1.0  0.21254  0.79471  0.48603  1.0000
  C   C1483     1.0  0.47340  0.79851  0.03120  1.0000
  C   C1484     1.0  0.41936  0.94284  0.45932  1.0000
  C   C1485     1.0  0.27542  0.97379  0.37918  1.0000
  C   C1486     1.0  0.43309  0.94199  0.45016  1.0000
  H   H1460     1.0  0.30118  0.94300  0.46598  1.0000
  H   H1461     1.0  0.15498  0.80384  0.44347  1.0000
  H   H1462     1.0  0.14548  0.82030  0.44934  1.0000
  C   C1487     1.0  0.41683  0.93145  0.47099  1.0000
  N   N125      1.0  0.14507  0.86871  0.47431  1.0000
  C   C1488     1.0  0.48781  0.87514  0.28095  1.0000
  C   C1489     1.0  0.30283  0.97400  0.45216  1.0000
  H   H1463     1.0  0.01909  0.82719  0.47124  1.0000
  H   H1464     1.0  0.42594  0.80885  0.05759  1.0000
  C   C1490     1.0  0.49844  0.84309  0.16375  1.0000
  H   H1465     1.0  0.37413  0.96041  0.41064  1.0000
  H   H1466     1.0  0.49221  0.83089  0.22555  1.0000
  H   H1467     1.0  0.49549  0.81799  0.14274  1.0000
  Fe  Fe250     1.0  0.46817  0.79553  0.20159  1.0000
  S   S499      1.0  0.00781  0.82628  0.42524  1.0000
  H   H1468     1.0  0.21198  0.87917  0.48069  1.0000
  C   C1491     1.0  0.03142  0.83280  0.48281  1.0000
  H   H1469     1.0  0.43435  0.79461  0.07060  1.0000
  H   H1470     1.0  0.44895  0.80003  0.12633  1.0000
  H   H1471     1.0  0.36110  0.97603  0.40460  1.0000
  C   C1492     1.0  0.07126  0.79137  0.47522  1.0000
  H   H1472     1.0  0.44508  0.80056  0.05338  1.0000
  H   H1473     1.0  0.49887  0.85816  0.14345  1.0000
  S   S500      1.0  0.12725  0.90716  0.48486  1.0000
  H   H1474     1.0  0.41214  0.98525  0.35887  1.0000
  Fe  Fe251     1.0  0.29464  0.98801  0.42119  1.0000
  S   S501      1.0  0.08629  0.85082  0.48489  1.0000
  H   H1475     1.0  0.37419  0.99122  0.33708  1.0000
  H   H1476     1.0  0.32288  0.98596  0.36577  1.0000
  S   S502      1.0  0.34084  0.98835  0.38405  1.0000
  N   N126      1.0  0.49840  0.84191  0.99271  1.0000
  H   H1477     1.0  0.41611  0.90304  0.48401  1.0000
  C   C1493     1.0  0.49014  0.86754  0.98737  1.0000
  H   H1478     1.0  0.50118  0.82889  0.18396  1.0000
  H   H1479     1.0  0.30731  0.97086  0.48554  1.0000
  S   S503      1.0  0.50139  0.80828  0.07432  1.0000
  H   H1480     1.0  0.50184  0.81900  0.99887  1.0000
  C   C1494     1.0  0.42448  0.90768  0.48555  1.0000
  H   H1481     1.0  0.14255  0.84780  0.48628  1.0000
  Fe  Fe252     1.0  0.22358  0.86138  0.56212  1.0000
  S   S504      1.0  0.24719  0.86074  0.55239  1.0000
  S   S505      1.0  0.20895  0.88322  0.56206  1.0000
  Fe  Fe253     1.0  0.24591  0.84395  0.54216  1.0000
  S   S506      1.0  0.25508  0.84584  0.51852  1.0000
  Fe  Fe254     1.0  0.25119  0.84287  0.57131  1.0000
  S   S507      1.0  0.26966  0.84160  0.58174  1.0000
  S   S508      1.0  0.22189  0.84621  0.55017  1.0000
  S   S509      1.0  0.22744  0.84455  0.58181  1.0000
  S   S510      1.0  0.14570  0.97215  0.56560  1.0000
  Fe  Fe255     1.0  0.14522  0.93489  0.50919  1.0000
  S   S511      1.0  0.13040  0.91945  0.51831  1.0000
  S   S512      1.0  0.13687  0.95780  0.51144  1.0000
  H   H1482     1.0  0.45231  0.93071  0.56125  1.0000
  Fe  Fe256     1.0  0.46993  0.81248  0.97761  1.0000
  C   C1495     1.0  0.17263  0.96443  0.50570  1.0000
  C   C1496     1.0  0.41947  0.80575  0.85464  1.0000
  Fe  Fe257     1.0  0.14995  0.90417  0.52534  1.0000
  S   S513      1.0  0.14928  0.88903  0.54672  1.0000
  H   H1483     1.0  0.44577  0.98212  0.55845  1.0000
  S   S514      1.0  0.16415  0.92009  0.51783  1.0000
  H   H1484     1.0  0.48967  0.81699  0.76538  1.0000
  H   H1485     1.0  0.18524  0.95363  0.52169  1.0000
  C   C1497     1.0  0.44723  0.96574  0.67605  1.0000
  H   H1486     1.0  0.33262  0.94352  0.72586  1.0000
  S   S515      1.0  0.33471  0.98578  0.66099  1.0000
  C   C1498     1.0  0.19587  0.88666  0.51945  1.0000
  H   H1487     1.0  0.37736  0.90882  0.74414  1.0000
  C   C1499     1.0  0.37498  0.96776  0.60373  1.0000
  S   S516      1.0  0.08136  0.82639  0.51500  1.0000
  H   H1488     1.0  0.14868  0.86596  0.49502  1.0000
  Fe  Fe258     1.0  0.17051  0.91286  0.49730  1.0000
  H   H1489     1.0  0.48724  0.85352  0.97603  1.0000
  S   S517      1.0  0.46663  0.83636  0.96988  1.0000
  H   H1490     1.0  0.43076  0.80525  0.82108  1.0000
  H   H1491     1.0  0.18854  0.87193  0.50539  1.0000
  C   C1500     1.0  0.42642  0.96586  0.69588  1.0000
  S   S518      1.0  0.48284  0.85491  0.87694  1.0000
  S   S519      1.0  0.11367  0.82403  0.49313  1.0000
  Fe  Fe259     1.0  0.07217  0.83474  0.49537  1.0000
  C   C1501     1.0  0.42109  0.83447  0.87137  1.0000
  H   H1492     1.0  0.13140  0.80790  0.57386  1.0000
  N   N127      1.0  0.49220  0.82406  0.90892  1.0000
  Fe  Fe260     1.0  0.09700  0.84071  0.50359  1.0000
  S   S520      1.0  0.48648  0.88059  0.89999  1.0000
  Fe  Fe261     1.0  0.38547  0.93972  0.58608  1.0000
  S   S521      1.0  0.40253  0.92259  0.59563  1.0000
  Fe  Fe262     1.0  0.40333  0.94141  0.55579  1.0000
  S   S522      1.0  0.42218  0.92461  0.56252  1.0000
  S   S523      1.0  0.40257  0.95302  0.53320  1.0000
  Fe  Fe263     1.0  0.40520  0.91299  0.57707  1.0000
  S   S524      1.0  0.40671  0.88999  0.57800  1.0000
  Fe  Fe264     1.0  0.41789  0.93585  0.58036  1.0000
  S   S525      1.0  0.43651  0.93826  0.58774  1.0000
  S   S526      1.0  0.38666  0.92892  0.56889  1.0000
  S   S527      1.0  0.40054  0.95385  0.57218  1.0000
  H   H1493     1.0  0.45446  0.84344  0.88948  1.0000
  H   H1494     1.0  0.48721  0.84621  0.90886  1.0000
  S   S528      1.0  0.44551  0.97885  0.63251  1.0000
  H   H1495     1.0  0.20279  0.80095  0.50897  1.0000
  C   C1502     1.0  0.24762  0.83634  0.51109  1.0000
  H   H1496     1.0  0.39119  0.93434  0.63543  1.0000
  C   C1503     1.0  0.49100  0.94774  0.88279  1.0000
  S   S529      1.0  0.48079  0.97548  0.64573  1.0000
  C   C1504     1.0  0.45059  0.96082  0.55458  1.0000
  C   C1505     1.0  0.49493  0.83412  0.95491  1.0000
  C   C1506     1.0  0.16323  0.97712  0.50055  1.0000
  H   H1497     1.0  0.48380  0.95300  0.87552  1.0000
  Fe  Fe265     1.0  0.38703  0.91632  0.68872  1.0000
  S   S530      1.0  0.38992  0.91648  0.71010  1.0000
  S   S531      1.0  0.40372  0.92197  0.66883  1.0000
  Fe  Fe266     1.0  0.35649  0.91117  0.69967  1.0000
  S   S532      1.0  0.35646  0.91118  0.72224  1.0000
  S   S533      1.0  0.33618  0.91322  0.69191  1.0000
  Fe  Fe267     1.0  0.36728  0.92982  0.71278  1.0000
  S   S534      1.0  0.36001  0.94951  0.72208  1.0000
  Fe  Fe268     1.0  0.37927  0.89772  0.71814  1.0000
  S   S535      1.0  0.38581  0.87942  0.73631  1.0000
  S   S536      1.0  0.36514  0.93118  0.69072  1.0000
  S   S537      1.0  0.37845  0.89616  0.69621  1.0000
  Fe  Fe269     1.0  0.32626  0.89301  0.60059  1.0000
  S   S538      1.0  0.30529  0.90814  0.59717  1.0000
  S   S539      1.0  0.34272  0.88620  0.58168  1.0000
  Fe  Fe270     1.0  0.31739  0.88920  0.63279  1.0000
  S   S540      1.0  0.29525  0.90369  0.63215  1.0000
  S   S541      1.0  0.32764  0.87811  0.65185  1.0000
  Fe  Fe271     1.0  0.29489  0.89249  0.61539  1.0000
  S   S542      1.0  0.27444  0.88735  0.61324  1.0000
  Fe  Fe272     1.0  0.30754  0.91791  0.61388  1.0000
  S   S543      1.0  0.30595  0.94170  0.60942  1.0000
  S   S544      1.0  0.31589  0.87668  0.61782  1.0000
  S   S545      1.0  0.32950  0.90411  0.61564  1.0000
  Fe  Fe273     1.0  0.44858  0.86561  0.81301  1.0000
  S   S546      1.0  0.46065  0.86036  0.79182  1.0000
  S   S547      1.0  0.45579  0.87985  0.82224  1.0000
  Fe  Fe274     1.0  0.42559  0.84952  0.81630  1.0000
  S   S548      1.0  0.43564  0.84271  0.79546  1.0000
  S   S549      1.0  0.40458  0.84407  0.82971  1.0000
  Fe  Fe275     1.0  0.45658  0.83842  0.80240  1.0000
  S   S550      1.0  0.47273  0.81770  0.80055  1.0000
  Fe  Fe276     1.0  0.43861  0.86529  0.78679  1.0000
  S   S551      1.0  0.43572  0.87935  0.76518  1.0000
  S   S552      1.0  0.44624  0.84322  0.82404  1.0000
  S   S553      1.0  0.42684  0.87254  0.80712  1.0000
  H   H1498     1.0  0.45594  0.85465  0.75831  1.0000
  C   C1507     1.0  0.30574  0.96039  0.64637  1.0000
  C   C1508     1.0  0.30258  0.94685  0.64915  1.0000
  C   C1509     1.0  0.30299  0.94085  0.63786  1.0000
  C   C1510     1.0  0.30624  0.94853  0.62374  1.0000
  C   C1511     1.0  0.30952  0.96201  0.62094  1.0000
  C   C1512     1.0  0.30942  0.96786  0.63222  1.0000
  H   H1499     1.0  0.29974  0.94101  0.66007  1.0000
  H   H1500     1.0  0.30048  0.93044  0.64010  1.0000
  H   H1501     1.0  0.31220  0.96792  0.61002  1.0000
  H   H1502     1.0  0.31200  0.97823  0.62992  1.0000
  C   C1513     1.0  0.40070  0.87854  0.74342  1.0000
  C   C1514     1.0  0.40975  0.88831  0.73729  1.0000
  C   C1515     1.0  0.42064  0.88819  0.74392  1.0000
  C   C1516     1.0  0.42263  0.87830  0.75672  1.0000
  C   C1517     1.0  0.41393  0.86821  0.76264  1.0000
  C   C1518     1.0  0.40303  0.86831  0.75597  1.0000
  H   H1503     1.0  0.40832  0.89601  0.72748  1.0000
  H   H1504     1.0  0.42743  0.89595  0.73919  1.0000
  H   H1505     1.0  0.41540  0.86049  0.77247  1.0000
  H   H1506     1.0  0.39615  0.86064  0.76073  1.0000
  C   C1519     1.0  0.33472  0.90357  0.68018  1.0000
  C   C1520     1.0  0.32436  0.90973  0.67169  1.0000
  C   C1521     1.0  0.32260  0.90232  0.66243  1.0000
  C   C1522     1.0  0.33079  0.88840  0.66204  1.0000
  C   C1523     1.0  0.34117  0.88224  0.67049  1.0000
  C   C1524     1.0  0.34330  0.88987  0.67937  1.0000
  H   H1507     1.0  0.31773  0.92036  0.67220  1.0000
  H   H1508     1.0  0.31462  0.90723  0.65592  1.0000
  H   H1509     1.0  0.34751  0.87145  0.67029  1.0000
  H   H1510     1.0  0.35124  0.88497  0.68594  1.0000
  H   H1511     1.0  0.18452  0.89045  0.51893  1.0000
  C   C1525     1.0  0.37975  0.97633  0.72979  1.0000
  C   C1526     1.0  0.36941  0.97045  0.72745  1.0000
  C   C1527     1.0  0.37329  0.95665  0.72473  1.0000
  C   C1528     1.0  0.38752  0.94868  0.72456  1.0000
  C   C1529     1.0  0.39771  0.95434  0.72740  1.0000
  H   H1512     1.0  0.45618  0.97056  0.66935  1.0000
  H   H1513     1.0  0.35840  0.97663  0.72773  1.0000
  H   H1514     1.0  0.39063  0.93808  0.72250  1.0000
  H   H1515     1.0  0.40860  0.94799  0.72760  1.0000
  C   C1530     1.0  0.40834  0.96727  0.66483  1.0000
  C   C1531     1.0  0.39833  0.96116  0.67626  1.0000
  C   C1532     1.0  0.39703  0.94720  0.67757  1.0000
  C   C1533     1.0  0.40552  0.93936  0.66733  1.0000
  C   C1534     1.0  0.41546  0.94549  0.65583  1.0000
  C   C1535     1.0  0.41681  0.95946  0.65456  1.0000
  H   H1516     1.0  0.39180  0.96705  0.68433  1.0000
  H   H1517     1.0  0.38953  0.94252  0.68663  1.0000
  H   H1518     1.0  0.42204  0.93947  0.64788  1.0000
  H   H1519     1.0  0.42428  0.96416  0.64556  1.0000
  C   C1536     1.0  0.39946  0.89697  0.78111  1.0000
  C   C1537     1.0  0.43589  0.95512  0.59035  1.0000
  C   C1538     1.0  0.44625  0.95652  0.59674  1.0000
  C   C1539     1.0  0.44635  0.96998  0.59846  1.0000
  N   N128      1.0  0.44675  0.95176  0.54895  1.0000
  H   H1520     1.0  0.44796  0.81268  0.92835  1.0000
  C   C1540     1.0  0.42555  0.96722  0.58578  1.0000
  H   H1521     1.0  0.45427  0.94718  0.60029  1.0000
  H   H1522     1.0  0.45450  0.97102  0.60323  1.0000
  C   C1541     1.0  0.42442  0.95349  0.69347  1.0000
  H   H1523     1.0  0.41752  0.96628  0.58089  1.0000
  C   C1542     1.0  0.39810  0.94261  0.52422  1.0000
  C   C1543     1.0  0.39252  0.94923  0.51195  1.0000
  C   C1544     1.0  0.38866  0.94105  0.50483  1.0000
  C   C1545     1.0  0.39068  0.92618  0.50975  1.0000
  C   C1546     1.0  0.39622  0.91957  0.52206  1.0000
  C   C1547     1.0  0.39980  0.92777  0.52936  1.0000
  H   H1524     1.0  0.39103  0.96073  0.50804  1.0000
  H   H1525     1.0  0.39780  0.90806  0.52594  1.0000
  H   H1526     1.0  0.40409  0.92256  0.53885  1.0000
  C   C1548     1.0  0.38905  0.88809  0.57994  1.0000
  C   C1549     1.0  0.37726  0.89651  0.58767  1.0000
  C   C1550     1.0  0.36304  0.89563  0.58859  1.0000
  C   C1551     1.0  0.36053  0.88653  0.58158  1.0000
  C   C1552     1.0  0.37232  0.87813  0.57381  1.0000
  C   C1553     1.0  0.38659  0.87876  0.57316  1.0000
  H   H1527     1.0  0.37913  0.90375  0.59291  1.0000
  H   H1528     1.0  0.35409  0.90239  0.59431  1.0000
  H   H1529     1.0  0.37046  0.87113  0.56830  1.0000
  H   H1530     1.0  0.39571  0.87231  0.56709  1.0000
  H   H1531     1.0  0.38488  0.96388  0.59657  1.0000
  C   C1554     1.0  0.47561  0.86171  0.86159  1.0000
  C   C1555     1.0  0.47309  0.85230  0.85488  1.0000
  C   C1556     1.0  0.46699  0.85771  0.84276  1.0000
  C   C1557     1.0  0.46342  0.87253  0.83735  1.0000
  C   C1558     1.0  0.46612  0.88186  0.84398  1.0000
  C   C1559     1.0  0.47216  0.87648  0.85608  1.0000
  H   H1532     1.0  0.47584  0.84085  0.85906  1.0000
  H   H1533     1.0  0.46515  0.85043  0.83759  1.0000
  H   H1534     1.0  0.46340  0.89333  0.83983  1.0000
  H   H1535     1.0  0.47387  0.88381  0.86130  1.0000
  H   H1536     1.0  0.31886  0.98235  0.72188  1.0000
  C   C1560     1.0  0.37804  0.89366  0.76998  1.0000
  H   H1537     1.0  0.44799  0.80182  0.80863  1.0000
  S   S554      1.0  0.38704  0.91550  0.50041  1.0000
  S   S555      1.0  0.21412  0.81204  0.57862  1.0000
  C   C1561     1.0  0.42101  0.84730  0.86108  1.0000
  C   C1562     1.0  0.48073  0.84239  0.95640  1.0000
  H   H1538     1.0  0.42436  0.99070  0.54725  1.0000
  H   H1539     1.0  0.50073  0.96509  0.94514  1.0000
  H   H1540     1.0  0.12632  0.98304  0.52276  1.0000
  C   C1563     1.0  0.48908  0.86130  0.93702  1.0000
  C   C1564     1.0  0.47784  0.85604  0.94756  1.0000
  H   H1541     1.0  0.02339  0.83164  0.49278  1.0000
  H   H1542     1.0  0.20411  0.85737  0.50598  1.0000
  H   H1543     1.0  0.48677  0.87185  0.93023  1.0000
  H   H1544     1.0  0.46687  0.86254  0.94882  1.0000
  H   H1545     1.0  0.50014  0.97290  0.66363  1.0000
  H   H1546     1.0  0.40817  0.89811  0.78511  1.0000
  C   C1565     1.0  0.12006  0.89206  0.49414  1.0000
  H   H1547     1.0  0.31163  0.98166  0.70073  1.0000
  C   C1566     1.0  0.49531  0.83156  0.79400  1.0000
  H   H1548     1.0  0.41727  0.97393  0.53737  1.0000
  H   H1549     1.0  0.49647  0.96730  0.88267  1.0000
  C   C1567     1.0  0.39595  0.90613  0.76851  1.0000
  H   H1550     1.0  0.24134  0.79436  0.58862  1.0000
  C   C1568     1.0  0.11028  0.86670  0.50808  1.0000
  C   C1569     1.0  0.12243  0.88495  0.50776  1.0000
  H   H1551     1.0  0.44162  0.83346  0.90198  1.0000
  C   C1570     1.0  0.49877  0.81179  0.88969  1.0000
  C   C1571     1.0  0.13935  0.96156  0.52660  1.0000
  C   C1572     1.0  0.14774  0.95133  0.53559  1.0000
  C   C1573     1.0  0.14995  0.95474  0.54737  1.0000
  C   C1574     1.0  0.14357  0.96833  0.55035  1.0000
  C   C1575     1.0  0.13506  0.97852  0.54144  1.0000
  C   C1576     1.0  0.13296  0.97514  0.52959  1.0000
  H   H1552     1.0  0.15258  0.94080  0.53350  1.0000
  H   H1553     1.0  0.15652  0.94681  0.55426  1.0000
  H   H1554     1.0  0.43026  0.82065  0.88891  1.0000
  H   H1555     1.0  0.41115  0.98765  0.62202  1.0000
  C   C1577     1.0  0.27065  0.85425  0.59078  1.0000
  C   C1578     1.0  0.28374  0.85311  0.59461  1.0000
  C   C1579     1.0  0.28514  0.86317  0.60139  1.0000
  C   C1580     1.0  0.27336  0.87441  0.60460  1.0000
  C   C1581     1.0  0.26024  0.87546  0.60092  1.0000
  C   C1582     1.0  0.25891  0.86554  0.59393  1.0000
  H   H1556     1.0  0.29289  0.84443  0.59223  1.0000
  H   H1557     1.0  0.29531  0.86218  0.60415  1.0000
  H   H1558     1.0  0.25102  0.88406  0.60341  1.0000
  H   H1559     1.0  0.24875  0.86656  0.59112  1.0000
  C   C1583     1.0  0.19181  0.88455  0.55912  1.0000
  C   C1584     1.0  0.18710  0.87230  0.55985  1.0000
  C   C1585     1.0  0.17378  0.87367  0.55646  1.0000
  C   C1586     1.0  0.16533  0.88729  0.55206  1.0000
  C   C1587     1.0  0.16994  0.89952  0.55156  1.0000
  C   C1588     1.0  0.18304  0.89815  0.55533  1.0000
  H   H1560     1.0  0.19366  0.86178  0.56312  1.0000
  H   H1561     1.0  0.17020  0.86419  0.55697  1.0000
  H   H1562     1.0  0.16338  0.91007  0.54837  1.0000
  H   H1563     1.0  0.18661  0.90762  0.55489  1.0000
  C   C1589     1.0  0.24743  0.84054  0.49651  1.0000
  N   N129      1.0  0.47735  0.85818  0.75412  1.0000
  Fe  Fe277     1.0  0.09718  0.81052  0.50308  1.0000
  C   C1590     1.0  0.38577  0.96819  0.63994  1.0000
  S   S556      1.0  0.44462  0.79823  0.90869  1.0000
  H   H1564     1.0  0.28236  0.98706  0.64685  1.0000
  H   H1565     1.0  0.11952  0.86681  0.52520  1.0000
  H   H1566     1.0  0.22982  0.80350  0.55169  1.0000
  C   C1591     1.0  0.38201  0.91401  0.74978  1.0000
  S   S557      1.0  0.10462  0.85065  0.51692  1.0000
  C   C1592     1.0  0.16528  0.98787  0.51807  1.0000
  C   C1593     1.0  0.37398  0.97944  0.60946  1.0000
  H   H1567     1.0  0.42803  0.82427  0.84228  1.0000
  C   C1594     1.0  0.41877  0.81940  0.84548  1.0000
  C   C1595     1.0  0.17828  0.96354  0.51733  1.0000
  C   C1596     1.0  0.43011  0.83074  0.88106  1.0000
  H   H1568     1.0  0.12592  0.80550  0.54011  1.0000
  N   N130      1.0  0.35997  0.90913  0.63745  1.0000
  C   C1597     1.0  0.35931  0.91278  0.64987  1.0000
  C   C1598     1.0  0.35223  0.91825  0.62779  1.0000
  C   C1599     1.0  0.35081  0.92592  0.65279  1.0000
  C   C1600     1.0  0.34331  0.93126  0.63056  1.0000
  C   C1601     1.0  0.34265  0.93515  0.64312  1.0000
  C   C1602     1.0  0.36818  0.89499  0.63486  1.0000
  H   H1569     1.0  0.36514  0.90542  0.65774  1.0000
  H   H1570     1.0  0.35293  0.91553  0.61782  1.0000
  H   H1571     1.0  0.35013  0.92868  0.66276  1.0000
  H   H1572     1.0  0.33711  0.93834  0.62287  1.0000
  H   H1573     1.0  0.33579  0.94525  0.64537  1.0000
  H   H1574     1.0  0.36071  0.88747  0.63834  1.0000
  H   H1575     1.0  0.37329  0.89563  0.62330  1.0000
  H   H1576     1.0  0.37707  0.89053  0.64077  1.0000
  C   C1603     1.0  0.48315  0.81505  0.91685  1.0000
  S   S558      1.0  0.41047  0.98436  0.66406  1.0000
  C   C1604     1.0  0.21777  0.86887  0.51714  1.0000
  C   C1605     1.0  0.39205  0.88600  0.78820  1.0000
  H   H1577     1.0  0.22212  0.89627  0.52835  1.0000
  C   C1606     1.0  0.48169  0.80419  0.91134  1.0000
  H   H1578     1.0  0.48853  0.79423  0.89324  1.0000
  C   C1607     1.0  0.49325  0.93284  0.88799  1.0000
  C   C1608     1.0  0.49635  0.83716  0.75810  1.0000
  S   S559      1.0  0.36369  0.94718  0.59965  1.0000
  N   N131      1.0  0.43862  0.83966  0.88069  1.0000
  S   S560      1.0  0.15805  0.89549  0.50554  1.0000
  C   C1609     1.0  0.48957  0.80257  0.89768  1.0000
  C   C1610     1.0  0.38122  0.88435  0.78266  1.0000
  C   C1611     1.0  0.49818  0.95585  0.88682  1.0000
  N   N132      1.0  0.29003  0.87240  0.66216  1.0000
  C   C1612     1.0  0.29990  0.86134  0.65685  1.0000
  C   C1613     1.0  0.27722  0.87810  0.65775  1.0000
  C   C1614     1.0  0.29697  0.85558  0.64698  1.0000
  C   C1615     1.0  0.27392  0.87257  0.64793  1.0000
  C   C1616     1.0  0.28390  0.86128  0.64248  1.0000
  C   C1617     1.0  0.29339  0.87878  0.67207  1.0000
  H   H1579     1.0  0.31026  0.85707  0.66001  1.0000
  H   H1580     1.0  0.26958  0.88715  0.66159  1.0000
  H   H1581     1.0  0.30495  0.84702  0.64257  1.0000
  H   H1582     1.0  0.26390  0.87731  0.64416  1.0000
  H   H1583     1.0  0.28161  0.85724  0.63451  1.0000
  H   H1584     1.0  0.30278  0.87183  0.67663  1.0000
  H   H1585     1.0  0.29634  0.88922  0.66629  1.0000
  H   H1586     1.0  0.28393  0.88049  0.68111  1.0000
  C   C1618     1.0  0.11258  0.88661  0.48759  1.0000
  C   C1619     1.0  0.49103  0.81893  0.79508  1.0000
  H   H1587     1.0  0.46692  0.93649  0.54707  1.0000
  N   N133      1.0  0.12054  0.93750  0.55766  1.0000
  C   C1620     1.0  0.12745  0.92333  0.55901  1.0000
  C   C1621     1.0  0.12137  0.94523  0.56665  1.0000
  C   C1622     1.0  0.13573  0.91666  0.56936  1.0000
  C   C1623     1.0  0.12978  0.93896  0.57693  1.0000
  C   C1624     1.0  0.13704  0.92459  0.57824  1.0000
  C   C1625     1.0  0.11195  0.94425  0.54671  1.0000
  H   H1588     1.0  0.12673  0.91712  0.55198  1.0000
  H   H1589     1.0  0.11605  0.95650  0.56553  1.0000
  H   H1590     1.0  0.14126  0.90544  0.57031  1.0000
  H   H1591     1.0  0.13100  0.94537  0.58352  1.0000
  H   H1592     1.0  0.14378  0.91964  0.58603  1.0000
  H   H1593     1.0  0.11801  0.94126  0.53638  1.0000
  H   H1594     1.0  0.10146  0.94080  0.55011  1.0000
  H   H1595     1.0  0.10975  0.95615  0.54455  1.0000
  H   H1596     1.0  0.40193  0.91449  0.76294  1.0000
  H   H1597     1.0  0.48528  0.86121  0.81003  1.0000
  H   H1598     1.0  0.17506  0.95521  0.50099  1.0000
  H   H1599     1.0  0.48156  0.87904  0.74363  1.0000
  H   H1600     1.0  0.32856  0.96629  0.73187  1.0000
  C   C1626     1.0  0.20255  0.89512  0.52345  1.0000
  H   H1601     1.0  0.36995  0.89202  0.76548  1.0000
  H   H1602     1.0  0.23162  0.80791  0.52020  1.0000
  C   C1627     1.0  0.39484  0.80664  0.85390  1.0000
  C   C1628     1.0  0.49313  0.98580  0.64449  1.0000
  H   H1603     1.0  0.42979  0.86635  0.85280  1.0000
  H   H1604     1.0  0.49819  0.79737  0.79176  1.0000
  C   C1629     1.0  0.11323  0.81718  0.56363  1.0000
  C   C1630     1.0  0.49992  0.82256  0.89550  1.0000
  S   S561      1.0  0.40699  0.97501  0.73322  1.0000
  H   H1605     1.0  0.36338  0.91815  0.53765  1.0000
  H   H1606     1.0  0.48901  0.87765  0.81028  1.0000
  H   H1607     1.0  0.42935  0.80012  0.85821  1.0000
  C   C1631     1.0  0.40741  0.96276  0.62255  1.0000
  H   H1608     1.0  0.41422  0.85020  0.85335  1.0000
  C   C1632     1.0  0.32696  0.97211  0.72099  1.0000
  H   H1609     1.0  0.46362  0.82830  0.76572  1.0000
  S   S562      1.0  0.30445  0.96785  0.66080  1.0000
  H   H1610     1.0  0.12810  0.88916  0.51291  1.0000
  H   H1611     1.0  0.44483  0.85968  0.87071  1.0000
  C   C1633     1.0  0.35044  0.96633  0.61666  1.0000
  N   N134      1.0  0.10610  0.82909  0.55548  1.0000
  H   H1612     1.0  0.10530  0.85101  0.54481  1.0000
  S   S563      1.0  0.49998  0.88968  0.86544  1.0000
  H   H1613     1.0  0.09835  0.82455  0.53990  1.0000
  C   C1634     1.0  0.12307  0.84241  0.55547  1.0000
  C   C1635     1.0  0.12555  0.81755  0.56779  1.0000
  C   C1636     1.0  0.13048  0.83026  0.56367  1.0000
  C   C1637     1.0  0.36309  0.96136  0.60713  1.0000
  H   H1614     1.0  0.38419  0.94630  0.49551  1.0000
  S   S564      1.0  0.15301  0.92921  0.48767  1.0000
  H   H1615     1.0  0.12687  0.85234  0.55209  1.0000
  C   C1638     1.0  0.47252  0.87383  0.75031  1.0000
  H   H1616     1.0  0.14012  0.83065  0.56669  1.0000
  H   H1617     1.0  0.39294  0.98889  0.69196  1.0000
  C   C1639     1.0  0.39399  0.82044  0.84513  1.0000
  S   S565      1.0  0.47280  0.79767  0.96336  1.0000
  N   N135      1.0  0.35594  0.92724  0.55612  1.0000
  C   C1640     1.0  0.34643  0.92634  0.56916  1.0000
  C   C1641     1.0  0.36132  0.93933  0.54971  1.0000
  C   C1642     1.0  0.34236  0.93757  0.57631  1.0000
  C   C1643     1.0  0.35747  0.95079  0.55652  1.0000
  C   C1644     1.0  0.34806  0.94980  0.56999  1.0000
  C   C1645     1.0  0.44207  0.79379  0.92733  1.0000
  H   H1618     1.0  0.34210  0.91681  0.57423  1.0000
  H   H1619     1.0  0.36900  0.93999  0.53946  1.0000
  H   H1620     1.0  0.33505  0.93672  0.58679  1.0000
  H   H1621     1.0  0.36218  0.96013  0.55160  1.0000
  H   H1622     1.0  0.34539  0.95835  0.57568  1.0000
  H   H1623     1.0  0.48734  0.84062  0.79735  1.0000
  H   H1624     1.0  0.39200  0.91692  0.74225  1.0000
  H   H1625     1.0  0.41700  0.96577  0.61516  1.0000
  N   N136      1.0  0.20355  0.87383  0.51611  1.0000
  C   C1646     1.0  0.34969  0.97751  0.62289  1.0000
  C   C1647     1.0  0.09402  0.82811  0.55017  1.0000
  H   H1626     1.0  0.37172  0.90840  0.55258  1.0000
  H   H1627     1.0  0.38406  0.82612  0.84155  1.0000
  N   N137      1.0  0.38549  0.90429  0.76302  1.0000
  H   H1628     1.0  0.39488  0.87862  0.79782  1.0000
  H   H1629     1.0  0.45606  0.82508  0.88922  1.0000
  H   H1630     1.0  0.43427  0.89897  0.48692  1.0000
  H   H1631     1.0  0.33747  0.97469  0.71441  1.0000
  C   C1648     1.0  0.42969  0.85636  0.86080  1.0000
  C   C1649     1.0  0.11479  0.79782  0.52910  1.0000
  C   C1650     1.0  0.22471  0.87693  0.52139  1.0000
  C   C1651     1.0  0.44276  0.80226  0.81995  1.0000
  C   C1652     1.0  0.19873  0.79520  0.57412  1.0000
  H   H1632     1.0  0.38301  0.98466  0.60641  1.0000
  C   C1653     1.0  0.12194  0.79655  0.53982  1.0000
  C   C1654     1.0  0.48624  0.82855  0.76209  1.0000
  C   C1655     1.0  0.38321  0.95456  0.64191  1.0000
  H   H1633     1.0  0.23592  0.87287  0.52240  1.0000
  H   H1634     1.0  0.24161  0.82158  0.53094  1.0000
  H   H1635     1.0  0.35346  0.90770  0.55307  1.0000
  H   H1636     1.0  0.46790  0.87811  0.76018  1.0000
  H   H1637     1.0  0.37560  0.87568  0.78792  1.0000
  C   C1656     1.0  0.23593  0.81707  0.51358  1.0000
  C   C1657     1.0  0.23584  0.82116  0.49899  1.0000
  C   C1658     1.0  0.45506  0.93689  0.55007  1.0000
  H   H1638     1.0  0.50152  0.97250  0.92626  1.0000
  N   N138      1.0  0.32231  0.96344  0.71419  1.0000
  C   C1659     1.0  0.32637  0.94880  0.71773  1.0000
  C   C1660     1.0  0.31469  0.97006  0.70371  1.0000
  C   C1661     1.0  0.32268  0.94040  0.71078  1.0000
  C   C1662     1.0  0.31082  0.96198  0.69656  1.0000
  C   C1663     1.0  0.31497  0.94706  0.70002  1.0000
  H   H1639     1.0  0.11285  0.80791  0.52155  1.0000
  C   C1664     1.0  0.43791  0.97202  0.68716  1.0000
  Fe  Fe278     1.0  0.49532  0.89917  0.88461  1.0000
  H   H1640     1.0  0.32597  0.92881  0.71357  1.0000
  H   H1641     1.0  0.30477  0.96730  0.68829  1.0000
  H   H1642     1.0  0.31235  0.94066  0.69430  1.0000
  Fe  Fe279     1.0  0.13988  0.91233  0.49757  1.0000
  C   C1665     1.0  0.44816  0.83527  0.89082  1.0000
  H   H1643     1.0  0.08775  0.82038  0.55792  1.0000
  H   H1644     1.0  0.34112  0.96165  0.61918  1.0000
  H   H1645     1.0  0.34003  0.98087  0.63056  1.0000
  C   C1666     1.0  0.36135  0.91479  0.54951  1.0000
  S   S566      1.0  0.25187  0.82565  0.56016  1.0000
  N   N139      1.0  0.50061  0.85877  0.82239  1.0000
  C   C1667     1.0  0.21701  0.89011  0.52462  1.0000
  C   C1668     1.0  0.24161  0.82477  0.51967  1.0000
  H   H1646     1.0  0.22376  0.85854  0.51489  1.0000
  H   H1647     1.0  0.42011  0.91162  0.49563  1.0000
  C   C1669     1.0  0.42589  0.98075  0.58714  1.0000
  C   C1670     1.0  0.40598  0.82680  0.84078  1.0000
  H   H1648     1.0  0.37410  0.92395  0.75214  1.0000
  C   C1671     1.0  0.11085  0.84161  0.55140  1.0000
  Fe  Fe280     1.0  0.22765  0.82905  0.56895  1.0000
  H   H1649     1.0  0.41902  0.97074  0.70441  1.0000
  N   N140      1.0  0.28832  0.87580  0.56219  1.0000
  C   C1672     1.0  0.30245  0.86833  0.56117  1.0000
  C   C1673     1.0  0.28332  0.88722  0.56865  1.0000
  C   C1674     1.0  0.31192  0.87208  0.56695  1.0000
  C   C1675     1.0  0.29248  0.89125  0.57455  1.0000
  C   C1676     1.0  0.30687  0.88360  0.57369  1.0000
  C   C1677     1.0  0.27863  0.87200  0.55575  1.0000
  H   H1650     1.0  0.30641  0.85928  0.55604  1.0000
  H   H1651     1.0  0.27207  0.89304  0.56963  1.0000
  H   H1652     1.0  0.32309  0.86607  0.56631  1.0000
  H   H1653     1.0  0.28831  0.89999  0.58010  1.0000
  H   H1654     1.0  0.31407  0.88648  0.57835  1.0000
  H   H1655     1.0  0.28185  0.86043  0.55546  1.0000
  H   H1656     1.0  0.26728  0.87377  0.56220  1.0000
  H   H1657     1.0  0.27883  0.87852  0.54471  1.0000
  H   H1658     1.0  0.41537  0.94875  0.70002  1.0000
  N   N141      1.0  0.44498  0.95380  0.67355  1.0000
  C   C1678     1.0  0.43386  0.94756  0.68219  1.0000
  C   C1679     1.0  0.40000  0.98660  0.62820  1.0000
  C   C1680     1.0  0.21068  0.80178  0.56852  1.0000
  C   C1681     1.0  0.17463  0.97533  0.52356  1.0000
  C   C1682     1.0  0.45464  0.94737  0.66177  1.0000
  H   H1659     1.0  0.43200  0.93815  0.68016  1.0000
  H   H1660     1.0  0.47439  0.79716  0.91758  1.0000
  H   H1661     1.0  0.37803  0.97567  0.64598  1.0000
  H   H1662     1.0  0.46142  0.93691  0.66606  1.0000
  H   H1663     1.0  0.44816  0.94570  0.65512  1.0000
  H   H1664     1.0  0.46206  0.95435  0.65458  1.0000
  Fe  Fe281     1.0  0.49344  0.87029  0.88110  1.0000
  H   H1665     1.0  0.45950  0.95697  0.56006  1.0000
  H   H1666     1.0  0.41426  0.82742  0.87180  1.0000
  C   C1683     1.0  0.44487  0.80272  0.93434  1.0000
  H   H1667     1.0  0.43947  0.98170  0.68891  1.0000
  H   H1668     1.0  0.19006  0.85896  0.52206  1.0000
  C   C1684     1.0  0.44367  0.79874  0.94917  1.0000
  H   H1669     1.0  0.43170  0.94919  0.53852  1.0000
  C   C1685     1.0  0.11754  0.87230  0.51472  1.0000
  H   H1670     1.0  0.44564  0.80574  0.95461  1.0000
  C   C1686     1.0  0.49166  0.85207  0.75430  1.0000
  H   H1671     1.0  0.50232  0.83801  0.81925  1.0000
  C   C1687     1.0  0.43831  0.85245  0.87088  1.0000
  H   H1672     1.0  0.48852  0.83449  0.92610  1.0000
  H   H1673     1.0  0.36513  0.98813  0.68087  1.0000
  H   H1674     1.0  0.37374  0.95145  0.64957  1.0000
  H   H1675     1.0  0.41283  0.94176  0.61784  1.0000
  C   C1688     1.0  0.47162  0.83489  0.76226  1.0000
  S   S567      1.0  0.48495  0.92276  0.88204  1.0000
  H   H1676     1.0  0.50025  0.87809  0.82783  1.0000
  H   H1677     1.0  0.37671  0.98702  0.73178  1.0000
  C   C1689     1.0  0.39297  0.94498  0.63393  1.0000
  H   H1678     1.0  0.17871  0.97470  0.53279  1.0000
  C   C1690     1.0  0.19620  0.86504  0.51222  1.0000
  C   C1691     1.0  0.40513  0.94911  0.62412  1.0000
  H   H1679     1.0  0.25187  0.84964  0.48992  1.0000
  N   N142      1.0  0.39778  0.97211  0.63038  1.0000
  C   C1692     1.0  0.49165  0.85413  0.98459  1.0000
  H   H1680     1.0  0.24705  0.79469  0.57000  1.0000
  C   C1693     1.0  0.36130  0.98431  0.61909  1.0000
  C   C1694     1.0  0.39388  0.96820  0.72992  1.0000
  H   H1681     1.0  0.48465  0.87717  0.98098  1.0000
  H   H1682     1.0  0.45264  0.93148  0.54296  1.0000
  C   C1695     1.0  0.43075  0.97982  0.54755  1.0000
  C   C1696     1.0  0.43629  0.98212  0.59349  1.0000
  C   C1697     1.0  0.49407  0.86619  0.81004  1.0000
  C   C1698     1.0  0.50128  0.98218  0.65496  1.0000
  H   H1683     1.0  0.10972  0.80712  0.56658  1.0000
  H   H1684     1.0  0.47697  0.81625  0.92748  1.0000
  C   C1699     1.0  0.46734  0.84981  0.75816  1.0000
  C   C1700     1.0  0.40753  0.79929  0.85877  1.0000
  H   H1685     1.0  0.44595  0.81093  0.82253  1.0000
  C   C1701     1.0  0.50142  0.80716  0.79091  1.0000
  C   C1702     1.0  0.24134  0.83309  0.49050  1.0000
  H   H1686     1.0  0.19644  0.90532  0.52596  1.0000
  C   C1703     1.0  0.10778  0.87387  0.49451  1.0000
  Fe  Fe282     1.0  0.46140  0.98863  0.63675  1.0000
  S   S568      1.0  0.04807  0.83823  0.49765  1.0000
  C   C1704     1.0  0.22057  0.79853  0.55611  1.0000
  H   H1687     1.0  0.37399  0.98917  0.70006  1.0000
  H   H1688     1.0  0.10211  0.86967  0.48936  1.0000
  H   H1689     1.0  0.49720  0.82358  0.96172  1.0000
  N   N143      1.0  0.15950  0.98854  0.50690  1.0000
  H   H1690     1.0  0.38559  0.80170  0.85701  1.0000
  C   C1705     1.0  0.44281  0.97504  0.55376  1.0000
  C   C1706     1.0  0.42677  0.97045  0.54203  1.0000
  H   H1691     1.0  0.41803  0.99014  0.58338  1.0000
  H   H1692     1.0  0.26037  0.98997  0.61433  1.0000
  C   C1707     1.0  0.49317  0.83586  0.91441  1.0000
  H   H1693     1.0  0.46390  0.87695  0.74411  1.0000
  H   H1694     1.0  0.08637  0.83870  0.54813  1.0000
  Fe  Fe283     1.0  0.31309  0.98776  0.65655  1.0000
  H   H1695     1.0  0.39844  0.98933  0.63864  1.0000
  C   C1708     1.0  0.43496  0.95638  0.54279  1.0000
  H   H1696     1.0  0.48934  0.79818  0.85278  1.0000
  S   S569      1.0  0.22945  0.81070  0.49162  1.0000
  H   H1697     1.0  0.12982  0.98890  0.54386  1.0000
  H   H1698     1.0  0.49956  0.85868  0.75153  1.0000
  H   H1699     1.0  0.15849  0.97753  0.49184  1.0000
  H   H1700     1.0  0.04921  0.80522  0.50332  1.0000
  C   C1709     1.0  0.05829  0.79857  0.49736  1.0000
  H   H1701     1.0  0.19104  0.79763  0.58373  1.0000
  H   H1702     1.0  0.27906  0.97665  0.62855  1.0000
  C   C1710     1.0  0.27225  0.98689  0.63048  1.0000
  S   S570      1.0  0.19371  0.90597  0.48653  1.0000
  Fe  Fe284     1.0  0.81484  0.05999  0.43950  1.0000
  S   S571      1.0  0.79393  0.05645  0.45475  1.0000
  S   S572      1.0  0.83118  0.04213  0.43059  1.0000
  Fe  Fe285     1.0  0.80743  0.09192  0.43812  1.0000
  S   S573      1.0  0.78545  0.09123  0.45289  1.0000
  S   S574      1.0  0.81774  0.11116  0.42815  1.0000
  Fe  Fe286     1.0  0.79758  0.07152  0.46577  1.0000
  S   S575      1.0  0.59697  0.00861  0.11725  1.0000
  Fe  Fe287     1.0  0.78369  0.07613  0.44047  1.0000
  S   S576      1.0  0.76267  0.07672  0.43457  1.0000
  S   S577      1.0  0.81953  0.07316  0.45174  1.0000
  S   S578      1.0  0.80451  0.07883  0.42446  1.0000
  Fe  Fe288     1.0  0.89137  0.13684  0.46493  1.0000
  Fe  Fe289     1.0  0.63383  0.99761  0.45794  1.0000
  S   S579      1.0  0.63671  0.00185  0.30817  1.0000
  Fe  Fe290     1.0  0.89618  0.03281  0.45627  1.0000
  S   S580      1.0  0.89520  0.03963  0.43329  1.0000
  S   S581      1.0  0.91651  0.02059  0.46380  1.0000
  H   H1703     1.0  0.75582  0.10707  0.42338  1.0000
  C   C1711     1.0  0.83506  0.01607  0.46088  1.0000
  C   C1712     1.0  0.51153  0.18762  0.15758  1.0000
  S   S582      1.0  0.57097  0.00630  0.15274  1.0000
  H   H1704     1.0  0.53527  0.04879  0.20665  1.0000
  S   S583      1.0  0.88801  0.18072  0.42627  1.0000
  C   C1713     1.0  0.66096  0.00082  0.26582  1.0000
  Fe  Fe291     1.0  0.90934  0.03552  0.47885  1.0000
  H   H1705     1.0  0.69771  0.01244  0.45670  1.0000
  S   S584      1.0  0.89011  0.04884  0.46978  1.0000
  H   H1706     1.0  0.51649  0.14822  0.06577  1.0000
  Fe  Fe292     1.0  0.53118  0.09229  0.07809  1.0000
  S   S585      1.0  0.54753  0.10542  0.06481  1.0000
  Fe  Fe293     1.0  0.55168  0.06431  0.07279  1.0000
  S   S586      1.0  0.56984  0.07488  0.05948  1.0000
  S   S587      1.0  0.55365  0.04073  0.07661  1.0000
  Fe  Fe294     1.0  0.56331  0.08810  0.07598  1.0000
  S   S588      1.0  0.57806  0.09202  0.08733  1.0000
  Fe  Fe295     1.0  0.55229  0.09099  0.04951  1.0000
  S   S589      1.0  0.55772  0.09741  0.02539  1.0000
  S   S590      1.0  0.54668  0.07595  0.09029  1.0000
  S   S591      1.0  0.53447  0.07939  0.06191  1.0000
  C   C1714     1.0  0.54867  0.02329  0.21773  1.0000
  Fe  Fe296     1.0  0.59353  0.05602  0.22813  1.0000
  S   S592      1.0  0.60249  0.05374  0.20532  1.0000
  S   S593      1.0  0.59871  0.03796  0.24701  1.0000
  Fe  Fe297     1.0  0.57263  0.08444  0.21944  1.0000
  S   S594      1.0  0.58000  0.08469  0.19615  1.0000
  S   S595      1.0  0.55469  0.10246  0.22615  1.0000
  Fe  Fe298     1.0  0.57934  0.06146  0.20304  1.0000
  S   S596      1.0  0.56746  0.05412  0.19134  1.0000
  Fe  Fe299     1.0  0.60230  0.07725  0.20048  1.0000
  S   S597      1.0  0.62152  0.08587  0.18617  1.0000
  S   S598      1.0  0.57025  0.06176  0.22612  1.0000
  S   S599      1.0  0.59512  0.07903  0.22350  1.0000
  Fe  Fe300     1.0  0.59942  0.14955  0.12555  1.0000
  S   S600      1.0  0.61981  0.13289  0.12845  1.0000
  Fe  Fe301     1.0  0.57632  0.15909  0.10832  1.0000
  S   S601      1.0  0.56804  0.15650  0.09057  1.0000
  S   S602      1.0  0.59830  0.16394  0.10383  1.0000
  S   S603      1.0  0.57838  0.14324  0.12903  1.0000
  H   H1707     1.0  0.80393  0.11954  0.40406  1.0000
  H   H1708     1.0  0.88364  0.03543  0.41181  1.0000
  C   C1715     1.0  0.70037  0.00246  0.45315  1.0000
  S   S604      1.0  0.70122  0.01916  0.40085  1.0000
  C   C1716     1.0  0.51721  0.05752  0.13127  1.0000
  Fe  Fe302     1.0  0.73591  0.03360  0.39534  1.0000
  S   S605      1.0  0.71395  0.04813  0.39446  1.0000
  S   S606      1.0  0.75635  0.04138  0.39307  1.0000
  Fe  Fe303     1.0  0.70581  0.03191  0.41359  1.0000
  S   S607      1.0  0.69088  0.03906  0.43306  1.0000
  Fe  Fe304     1.0  0.71130  0.03400  0.38169  1.0000
  S   S608      1.0  0.69957  0.04349  0.36347  1.0000
  S   S609      1.0  0.72788  0.01823  0.41524  1.0000
  S   S610      1.0  0.73413  0.02077  0.38066  1.0000
  Fe  Fe305     1.0  0.63728  0.00305  0.33003  1.0000
  C   C1717     1.0  0.58477  0.04550  0.14529  1.0000
  S   S611      1.0  0.61777  0.00102  0.34801  1.0000
  Fe  Fe306     1.0  0.66880  0.00521  0.32196  1.0000
  C   C1718     1.0  0.60964  0.00912  0.15005  1.0000
  S   S612      1.0  0.68825  0.00227  0.33131  1.0000
  Fe  Fe307     1.0  0.64908  0.01924  0.30052  1.0000
  S   S613      1.0  0.64374  0.03759  0.28201  1.0000
  C   C1719     1.0  0.89619  0.08711  0.44051  1.0000
  S   S614      1.0  0.64786  0.02191  0.32258  1.0000
  H   H1709     1.0  0.51507  0.17356  0.12916  1.0000
  H   H1710     1.0  0.81029  0.03871  0.48050  1.0000
  H   H1711     1.0  0.86778  0.04609  0.45304  1.0000
  C   C1720     1.0  0.78415  0.12162  0.42030  1.0000
  H   H1712     1.0  0.53022  0.03702  0.13931  1.0000
  S   S615      1.0  0.55107  0.16158  0.15863  1.0000
  S   S616      1.0  0.92388  0.04857  0.48035  1.0000
  Fe  Fe308     1.0  0.87125  0.16093  0.47863  1.0000
  C   C1721     1.0  0.52156  0.08892  0.22066  1.0000
  C   C1722     1.0  0.53106  0.16810  0.14198  1.0000
  C   C1723     1.0  0.67393  0.03436  0.43866  1.0000
  C   C1724     1.0  0.67179  0.02264  0.43505  1.0000
  C   C1725     1.0  0.65839  0.01848  0.44053  1.0000
  C   C1726     1.0  0.64705  0.02632  0.44928  1.0000
  C   C1727     1.0  0.64911  0.03822  0.45261  1.0000
  C   C1728     1.0  0.66260  0.04209  0.44748  1.0000
  H   H1713     1.0  0.68061  0.01651  0.42847  1.0000
  H   H1714     1.0  0.51631  0.12395  0.13389  1.0000
  H   H1715     1.0  0.64037  0.04431  0.45935  1.0000
  H   H1716     1.0  0.66425  0.05115  0.45030  1.0000
  C   C1729     1.0  0.69624  0.03191  0.35480  1.0000
  C   C1730     1.0  0.68512  0.03683  0.34715  1.0000
  C   C1731     1.0  0.68247  0.02791  0.33988  1.0000
  C   C1732     1.0  0.69121  0.01414  0.33991  1.0000
  C   C1733     1.0  0.70243  0.00932  0.34739  1.0000
  C   C1734     1.0  0.70481  0.01805  0.35499  1.0000
  H   H1717     1.0  0.67849  0.04757  0.34690  1.0000
  H   H1718     1.0  0.67380  0.03176  0.33413  1.0000
  N   N144      1.0  0.67804  0.99612  0.39595  1.0000
  H   H1719     1.0  0.71343  0.01415  0.36079  1.0000
  Fe  Fe309     1.0  0.88014  0.16524  0.44654  1.0000
  C   C1735     1.0  0.52850  0.01145  0.19610  1.0000
  C   C1736     1.0  0.61528  0.11533  0.10131  1.0000
  N   N145      1.0  0.57605  0.12921  0.19010  1.0000
  C   C1737     1.0  0.56546  0.01058  0.23300  1.0000
  H   H1720     1.0  0.85846  0.03604  0.41098  1.0000
  C   C1738     1.0  0.82200  0.02542  0.46537  1.0000
  C   C1739     1.0  0.61126  0.03818  0.25649  1.0000
  C   C1740     1.0  0.61265  0.02775  0.26911  1.0000
  C   C1741     1.0  0.62276  0.02729  0.27683  1.0000
  C   C1742     1.0  0.63153  0.03732  0.27208  1.0000
  C   C1743     1.0  0.63014  0.04777  0.25945  1.0000
  C   C1744     1.0  0.62004  0.04821  0.25166  1.0000
  H   H1721     1.0  0.60589  0.01994  0.27291  1.0000
  H   H1722     1.0  0.62351  0.01932  0.28657  1.0000
  H   H1723     1.0  0.63686  0.05562  0.25568  1.0000
  H   H1724     1.0  0.61911  0.05626  0.24190  1.0000
  C   C1745     1.0  0.62033  0.09829  0.16980  1.0000
  C   C1746     1.0  0.60712  0.10464  0.16547  1.0000
  C   C1747     1.0  0.60670  0.11540  0.15279  1.0000
  C   C1748     1.0  0.61954  0.11955  0.14436  1.0000
  C   C1749     1.0  0.63269  0.11286  0.14852  1.0000
  C   C1750     1.0  0.63306  0.10241  0.16123  1.0000
  H   H1725     1.0  0.59723  0.10155  0.17201  1.0000
  H   H1726     1.0  0.59650  0.12044  0.14958  1.0000
  H   H1727     1.0  0.64265  0.11594  0.14202  1.0000
  H   H1728     1.0  0.64330  0.09755  0.16447  1.0000
  C   C1751     1.0  0.53734  0.10067  0.22618  1.0000
  C   C1752     1.0  0.52504  0.10990  0.23229  1.0000
  C   C1753     1.0  0.53561  0.09023  0.22022  1.0000
  H   H1729     1.0  0.52629  0.11799  0.23688  1.0000
  H   H1730     1.0  0.54506  0.08323  0.21524  1.0000
  C   C1754     1.0  0.57424  0.10997  0.08839  1.0000
  C   C1755     1.0  0.57488  0.11319  0.10090  1.0000
  C   C1756     1.0  0.57289  0.12747  0.10163  1.0000
  C   C1757     1.0  0.57036  0.13858  0.08983  1.0000
  C   C1758     1.0  0.56966  0.13537  0.07731  1.0000
  C   C1759     1.0  0.57158  0.12105  0.07659  1.0000
  H   H1731     1.0  0.57694  0.10464  0.11004  1.0000
  H   H1732     1.0  0.57321  0.12981  0.11136  1.0000
  H   H1733     1.0  0.56772  0.14393  0.06814  1.0000
  H   H1734     1.0  0.57134  0.11859  0.06681  1.0000
  C   C1760     1.0  0.54629  0.09422  0.01642  1.0000
  C   C1761     1.0  0.55129  0.09368  0.00194  1.0000
  H   H1735     1.0  0.53251  0.00492  0.20544  1.0000
  C   C1762     1.0  0.52872  0.08821  0.00191  1.0000
  C   C1763     1.0  0.52363  0.08903  0.01629  1.0000
  C   C1764     1.0  0.53242  0.09194  0.02355  1.0000
  C   C1765     1.0  0.62992  0.00135  0.25078  1.0000
  H   H1736     1.0  0.51426  0.18503  0.09311  1.0000
  H   H1737     1.0  0.52828  0.09275  0.03456  1.0000
  C   C1766     1.0  0.58168  0.00720  0.18872  1.0000
  C   C1767     1.0  0.56953  0.01604  0.18369  1.0000
  C   C1768     1.0  0.56528  0.03045  0.18451  1.0000
  C   C1769     1.0  0.57278  0.03593  0.19097  1.0000
  C   C1770     1.0  0.58447  0.02694  0.19675  1.0000
  C   C1771     1.0  0.58900  0.01257  0.19552  1.0000
  H   H1738     1.0  0.56321  0.01172  0.17938  1.0000
  H   H1739     1.0  0.55603  0.03729  0.18032  1.0000
  H   H1740     1.0  0.59017  0.03110  0.20191  1.0000
  H   H1741     1.0  0.59827  0.00569  0.19962  1.0000
  C   C1772     1.0  0.58589  0.01730  0.10499  1.0000
  C   C1773     1.0  0.57810  0.00966  0.10125  1.0000
  C   C1774     1.0  0.56867  0.01680  0.09199  1.0000
  C   C1775     1.0  0.56667  0.03165  0.08684  1.0000
  C   C1776     1.0  0.57456  0.03928  0.09048  1.0000
  C   C1777     1.0  0.58430  0.03207  0.09942  1.0000
  H   H1742     1.0  0.60993  0.14660  0.07660  1.0000
  H   H1743     1.0  0.56270  0.01084  0.08908  1.0000
  H   H1744     1.0  0.57315  0.05073  0.08646  1.0000
  H   H1745     1.0  0.59035  0.03799  0.10227  1.0000
  C   C1778     1.0  0.61496  0.12975  0.09464  1.0000
  H   H1746     1.0  0.72376  0.05180  0.34232  1.0000
  H   H1747     1.0  0.91809  0.08275  0.47132  1.0000
  H   H1748     1.0  0.54911  0.02407  0.11865  1.0000
  H   H1749     1.0  0.65682  0.00926  0.43799  1.0000
  S   S617      1.0  0.90859  0.11694  0.46933  1.0000
  H   H1750     1.0  0.61752  0.12687  0.18009  1.0000
  H   H1751     1.0  0.61859  0.18876  0.10749  1.0000
  C   C1779     1.0  0.79319  0.11715  0.40811  1.0000
  C   C1780     1.0  0.72322  0.06934  0.35835  1.0000
  C   C1781     1.0  0.76124  0.06571  0.42397  1.0000
  C   C1782     1.0  0.77350  0.05845  0.41556  1.0000
  C   C1783     1.0  0.77185  0.05094  0.40627  1.0000
  C   C1784     1.0  0.75797  0.05025  0.40554  1.0000
  C   C1785     1.0  0.74573  0.05721  0.41421  1.0000
  C   C1786     1.0  0.74737  0.06503  0.42322  1.0000
  H   H1752     1.0  0.78426  0.05882  0.41601  1.0000
  H   H1753     1.0  0.78140  0.04558  0.39964  1.0000
  H   H1754     1.0  0.73497  0.05682  0.41379  1.0000
  H   H1755     1.0  0.73780  0.07060  0.42965  1.0000
  C   C1787     1.0  0.82460  0.11714  0.43945  1.0000
  C   C1788     1.0  0.81949  0.11383  0.45426  1.0000
  C   C1789     1.0  0.82442  0.11932  0.46307  1.0000
  C   C1790     1.0  0.83487  0.12774  0.45726  1.0000
  C   C1791     1.0  0.60498  0.02927  0.16140  1.0000
  C   C1792     1.0  0.83498  0.12568  0.43357  1.0000
  H   H1756     1.0  0.81147  0.10733  0.45888  1.0000
  H   H1757     1.0  0.82011  0.11697  0.47448  1.0000
  S   S618      1.0  0.88213  0.01848  0.47165  1.0000
  H   H1758     1.0  0.56345  0.04747  0.04242  1.0000
  H   H1759     1.0  0.50502  0.07701  0.12011  1.0000
  C   C1793     1.0  0.84886  0.04183  0.43133  1.0000
  C   C1794     1.0  0.85149  0.04469  0.44319  1.0000
  C   C1795     1.0  0.86576  0.04401  0.44382  1.0000
  C   C1796     1.0  0.87734  0.04078  0.43244  1.0000
  C   C1797     1.0  0.87469  0.03804  0.42055  1.0000
  C   C1798     1.0  0.86047  0.03833  0.42011  1.0000
  H   H1760     1.0  0.84259  0.04709  0.45201  1.0000
  H   H1761     1.0  0.51248  0.10085  0.12105  1.0000
  C   C1799     1.0  0.55852  0.01084  0.22251  1.0000
  H   H1762     1.0  0.61841  0.11122  0.11155  1.0000
  C   C1800     1.0  0.52703  0.01443  0.17157  1.0000
  C   C1801     1.0  0.90446  0.08974  0.44846  1.0000
  H   H1763     1.0  0.59960  0.04729  0.17140  1.0000
  H   H1764     1.0  0.72877  0.99389  0.37591  1.0000
  N   N146      1.0  0.54587  0.03518  0.22317  1.0000
  C   C1802     1.0  0.60733  0.12630  0.07518  1.0000
  C   C1803     1.0  0.60809  0.11184  0.08198  1.0000
  C   C1804     1.0  0.67155  0.00409  0.38492  1.0000
  H   H1765     1.0  0.59018  0.02738  0.13572  1.0000
  H   H1766     1.0  0.57668  0.05159  0.13911  1.0000
  Fe  Fe310     1.0  0.85952  0.14527  0.46317  1.0000
  N   N147      1.0  0.52671  0.11494  0.11558  1.0000
  H   H1767     1.0  0.83895  0.12831  0.42210  1.0000
  C   C1805     1.0  0.92089  0.06728  0.44707  1.0000
  H   H1768     1.0  0.57518  0.14574  0.17114  1.0000
  C   C1806     1.0  0.91289  0.06431  0.43911  1.0000
  H   H1769     1.0  0.53974  0.99595  0.18326  1.0000
  C   C1807     1.0  0.90044  0.07427  0.43586  1.0000
  H   H1770     1.0  0.55449  0.13833  0.18639  1.0000
  H   H1771     1.0  0.93037  0.05931  0.44979  1.0000
  H   H1772     1.0  0.84829  0.13733  0.43785  1.0000
  H   H1773     1.0  0.91616  0.05422  0.43569  1.0000
  H   H1774     1.0  0.67834  0.99961  0.45974  1.0000
  H   H1775     1.0  0.89407  0.07190  0.42985  1.0000
  H   H1776     1.0  0.60312  0.00157  0.15772  1.0000
  C   C1808     1.0  0.64066  0.00567  0.25422  1.0000
  H   H1777     1.0  0.71232  0.06712  0.35995  1.0000
  C   C1809     1.0  0.51181  0.06641  0.11951  1.0000
  C   C1810     1.0  0.58471  0.11953  0.19867  1.0000
  C   C1811     1.0  0.59242  0.03175  0.14345  1.0000
  C   C1812     1.0  0.53614  0.13100  0.09425  1.0000
  C   C1813     1.0  0.74435  0.03714  0.34343  1.0000
  S   S619      1.0  0.84089  0.13393  0.46904  1.0000
  H   H1778     1.0  0.76363  0.12119  0.43542  1.0000
  H   H1779     1.0  0.60534  0.10492  0.07695  1.0000
  C   C1814     1.0  0.67395  0.00078  0.40947  1.0000
  H   H1780     1.0  0.72451  0.07876  0.34937  1.0000
  C   C1815     1.0  0.59692  0.13767  0.17442  1.0000
  H   H1781     1.0  0.60925  0.09011  0.11398  1.0000
  H   H1782     1.0  0.53152  0.09222  0.11807  1.0000
  H   H1783     1.0  0.83653  0.01221  0.45132  1.0000
  H   H1784     1.0  0.51282  0.08745  0.02183  1.0000
  C   C1816     1.0  0.53445  0.17040  0.15377  1.0000
  C   C1817     1.0  0.51913  0.02485  0.19663  1.0000
  H   H1785     1.0  0.53961  0.05159  0.02397  1.0000
  C   C1818     1.0  0.92480  0.08279  0.46031  1.0000
  S   S620      1.0  0.67107  0.00410  0.29920  1.0000
  C   C1819     1.0  0.53186  0.14202  0.10159  1.0000
  C   C1820     1.0  0.84026  0.13082  0.44246  1.0000
  C   C1821     1.0  0.84968  0.09416  0.47530  1.0000
  S   S621      1.0  0.63045  0.02103  0.45662  1.0000
  Fe  Fe311     1.0  0.72407  0.00675  0.40073  1.0000
  C   C1822     1.0  0.52390  0.04794  0.10620  1.0000
  H   H1786     1.0  0.85494  0.10316  0.47177  1.0000
  H   H1787     1.0  0.64132  0.01687  0.25073  1.0000
  H   H1788     1.0  0.61243  0.02280  0.16816  1.0000
  C   C1823     1.0  0.68949  0.99531  0.45477  1.0000
  H   H1789     1.0  0.66418  0.01438  0.38572  1.0000
  C   C1824     1.0  0.61068  0.13532  0.08163  1.0000
  C   C1825     1.0  0.52321  0.10090  0.12264  1.0000
  H   H1790     1.0  0.54940  0.04404  0.23863  1.0000
  N   N148      1.0  0.84596  0.01220  0.46812  1.0000
  C   C1826     1.0  0.53260  0.00634  0.18353  1.0000
  C   C1827     1.0  0.56218  0.02260  0.23885  1.0000
  Fe  Fe312     1.0  0.56890  0.16228  0.13891  1.0000
  C   C1828     1.0  0.53811  0.02487  0.11712  1.0000
  H   H1791     1.0  0.55863  0.11919  0.19335  1.0000
  C   C1829     1.0  0.78857  0.10904  0.40158  1.0000
  C   C1830     1.0  0.75816  0.04164  0.35754  1.0000
  H   H1792     1.0  0.55831  0.18999  0.08289  1.0000
  C   C1831     1.0  0.74701  0.05343  0.36053  1.0000
  C   C1832     1.0  0.53362  0.11742  0.10147  1.0000
  H   H1793     1.0  0.51903  0.12228  0.06799  1.0000
  N   N149      1.0  0.77525  0.10560  0.40698  1.0000
  H   H1794     1.0  0.82723  0.15780  0.48075  1.0000
  H   H1795     1.0  0.77098  0.10212  0.38868  1.0000
  C   C1833     1.0  0.51108  0.10856  0.23277  1.0000
  H   H1796     1.0  0.74301  0.03070  0.33695  1.0000
  H   H1797     1.0  0.76519  0.02404  0.34689  1.0000
  S   S622      1.0  0.53173  0.00779  0.15603  1.0000
  H   H1798     1.0  0.53374  0.15261  0.09602  1.0000
  C   C1834     1.0  0.55207  0.03478  0.23396  1.0000
  H   H1799     1.0  0.79586  0.10521  0.39238  1.0000
  C   C1835     1.0  0.84436  0.01780  0.47966  1.0000
  N   N150      1.0  0.60239  0.02384  0.15146  1.0000
  H   H1800     1.0  0.75986  0.09483  0.40539  1.0000
  C   C1836     1.0  0.77058  0.11808  0.42573  1.0000
  C   C1837     1.0  0.51091  0.14195  0.07539  1.0000
  H   H1801     1.0  0.51119  0.06855  0.09762  1.0000
  H   H1802     1.0  0.90112  0.09970  0.45214  1.0000
  H   H1803     1.0  0.55975  0.06684  0.03855  1.0000
  H   H1804     1.0  0.72311  0.00254  0.44518  1.0000
  C   C1838     1.0  0.61859  0.99566  0.40701  1.0000
  H   H1805     1.0  0.55561  0.13128  0.20482  1.0000
  H   H1806     1.0  0.54369  0.02356  0.20926  1.0000
  H   H1807     1.0  0.66444  0.99650  0.41650  1.0000
  C   C1839     1.0  0.56456  0.05798  0.99297  1.0000
  S   S623      1.0  0.89301  0.15926  0.46344  1.0000
  C   C1840     1.0  0.58745  0.05116  0.15532  1.0000
  H   H1808     1.0  0.56106  0.00163  0.21775  1.0000
  H   H1809     1.0  0.62069  0.00613  0.15225  1.0000
  H   H1810     1.0  0.92765  0.09343  0.45562  1.0000
  H   H1811     1.0  0.58414  0.06482  0.99089  1.0000
  H   H1812     1.0  0.68301  0.99671  0.41519  1.0000
  N   N151      1.0  0.55930  0.05790  0.02182  1.0000
  C   C1841     1.0  0.57168  0.06152  0.01273  1.0000
  C   C1842     1.0  0.54953  0.05427  0.01682  1.0000
  C   C1843     1.0  0.57448  0.06165  0.99816  1.0000
  S   S624      1.0  0.88042  0.14241  0.44665  1.0000
  S   S625      1.0  0.59019  0.16751  0.13725  1.0000
  C   C1844     1.0  0.55681  0.05747  0.03707  1.0000
  H   H1813     1.0  0.57926  0.06466  0.01668  1.0000
  H   H1814     1.0  0.60388  0.13052  0.06512  1.0000
  H   H1815     1.0  0.53870  0.16066  0.13586  1.0000
  C   C1845     1.0  0.85169  0.08536  0.46587  1.0000
  C   C1846     1.0  0.51394  0.03317  0.18452  1.0000
  N   N152      1.0  0.61160  0.10665  0.09508  1.0000
  H   H1816     1.0  0.52123  0.14801  0.12170  1.0000
  H   H1817     1.0  0.53679  0.10900  0.09558  1.0000
  C   C1847     1.0  0.51520  0.06163  0.10687  1.0000
  H   H1818     1.0  0.53944  0.02222  0.10669  1.0000
  H   H1819     1.0  0.61794  0.13655  0.09961  1.0000
  H   H1820     1.0  0.76759  0.03869  0.36225  1.0000
  H   H1821     1.0  0.86557  0.99687  0.47160  1.0000
  C   C1848     1.0  0.51249  0.12724  0.07671  1.0000
  S   S626      1.0  0.50416  0.07276  0.19988  1.0000
  H   H1822     1.0  0.54102  0.13306  0.08292  1.0000
  H   H1823     1.0  0.70919  0.99866  0.34748  1.0000
  C   C1849     1.0  0.77092  0.09681  0.40004  1.0000
  H   H1824     1.0  0.62231  0.00917  0.24482  1.0000
  H   H1825     1.0  0.56754  0.02259  0.24697  1.0000
  C   C1850     1.0  0.56043  0.12958  0.19378  1.0000
  C   C1851     1.0  0.55199  0.05428  0.00235  1.0000
  H   H1826     1.0  0.58130  0.06162  0.15723  1.0000
  N   N153      1.0  0.60370  0.04937  0.29770  1.0000
  C   C1852     1.0  0.59364  0.04225  0.29772  1.0000
  C   C1853     1.0  0.61146  0.04471  0.30819  1.0000
  C   C1854     1.0  0.59142  0.02988  0.30823  1.0000
  C   C1855     1.0  0.60932  0.03254  0.31899  1.0000
  C   C1856     1.0  0.59933  0.02502  0.31893  1.0000
  C   C1857     1.0  0.60570  0.06247  0.28680  1.0000
  H   H1827     1.0  0.58750  0.04594  0.28939  1.0000
  H   H1828     1.0  0.61951  0.05029  0.30812  1.0000
  H   H1829     1.0  0.58365  0.02410  0.30806  1.0000
  H   H1830     1.0  0.61541  0.02888  0.32734  1.0000
  H   H1831     1.0  0.59778  0.01543  0.32717  1.0000
  H   H1832     1.0  0.60312  0.06231  0.27671  1.0000
  H   H1833     1.0  0.59859  0.07202  0.29076  1.0000
  H   H1834     1.0  0.61723  0.06347  0.28401  1.0000
  H   H1835     1.0  0.57949  0.99820  0.10536  1.0000
  C   C1858     1.0  0.52482  0.13943  0.11599  1.0000
  Fe  Fe313     1.0  0.58720  0.18144  0.11575  1.0000
  C   C1859     1.0  0.76625  0.11006  0.41887  1.0000
  H   H1836     1.0  0.60663  0.11061  0.20182  1.0000
  H   H1837     1.0  0.88657  0.09497  0.43798  1.0000
  C   C1860     1.0  0.53595  0.04836  0.21769  1.0000
  H   H1838     1.0  0.53305  0.01667  0.12562  1.0000
  H   H1839     1.0  0.52024  0.08085  0.21616  1.0000
  C   C1861     1.0  0.52597  0.04391  0.13018  1.0000
  H   H1840     1.0  0.52646  0.04433  0.09632  1.0000
  H   H1841     1.0  0.58005  0.11230  0.20810  1.0000
  H   H1842     1.0  0.93504  0.07455  0.46118  1.0000
  H   H1843     1.0  0.66950  0.00561  0.36354  1.0000
  H   H1844     1.0  0.53967  0.17992  0.07901  1.0000
  H   H1845     1.0  0.62306  0.08497  0.09882  1.0000
  H   H1846     1.0  0.81351  0.02848  0.45944  1.0000
  H   H1847     1.0  0.60396  0.08749  0.09937  1.0000
  H   H1848     1.0  0.65642  0.01152  0.26857  1.0000
  S   S627      1.0  0.56499  0.17766  0.11862  1.0000
  H   H1849     1.0  0.52280  0.09839  0.13429  1.0000
  C   C1862     1.0  0.75678  0.03342  0.34898  1.0000
  H   H1850     1.0  0.72341  0.07198  0.36838  1.0000
  H   H1851     1.0  0.61523  0.01038  0.48460  1.0000
  H   H1852     1.0  0.54519  0.05797  0.04253  1.0000
  H   H1853     1.0  0.89983  0.99267  0.45915  1.0000
  S   S628      1.0  0.87067  0.13808  0.48146  1.0000
  S   S629      1.0  0.51734  0.08471  0.99311  1.0000
  C   C1863     1.0  0.85970  0.00270  0.46290  1.0000
  C   C1864     1.0  0.59776  0.04310  0.16330  1.0000
  C   C1865     1.0  0.50927  0.09803  0.22706  1.0000
  H   H1854     1.0  0.77856  0.08614  0.40068  1.0000
  S   S630      1.0  0.85819  0.16864  0.46166  1.0000
  H   H1855     1.0  0.85843  0.08749  0.45520  1.0000
  N   N154      1.0  0.91663  0.07987  0.45163  1.0000
  H   H1856     1.0  0.52489  0.04894  0.22469  1.0000
  H   H1857     1.0  0.61089  0.00778  0.13906  1.0000
  H   H1858     1.0  0.74811  0.05961  0.36740  1.0000
  H   H1859     1.0  0.78788  0.12748  0.42573  1.0000
  H   H1860     1.0  0.56202  0.09547  0.99636  1.0000
  N   N155      1.0  0.73475  0.05686  0.35525  1.0000
  C   C1866     1.0  0.73344  0.04904  0.34659  1.0000
  C   C1867     1.0  0.60582  0.12781  0.18310  1.0000
  C   C1868     1.0  0.54262  0.09048  0.99475  1.0000
  H   H1861     1.0  0.60165  0.14452  0.16468  1.0000
  H   H1862     1.0  0.51223  0.13100  0.18353  1.0000
  C   C1869     1.0  0.52215  0.12578  0.12282  1.0000
  C   C1870     1.0  0.58197  0.13820  0.17807  1.0000
  H   H1863     1.0  0.86678  0.00910  0.45423  1.0000
  H   H1864     1.0  0.53997  0.05795  0.21703  1.0000
  C   C1871     1.0  0.61204  0.09154  0.10216  1.0000
  C   C1872     1.0  0.59971  0.11866  0.19529  1.0000
  H   H1865     1.0  0.79433  0.09613  0.47809  1.0000
  N   N156      1.0  0.64996  0.99600  0.26213  1.0000
  N   N157      1.0  0.52911  0.03926  0.11780  1.0000
  C   C1873     1.0  0.51771  0.17539  0.13819  1.0000
  H   H1866     1.0  0.57342  0.00112  0.23650  1.0000
  C   C1874     1.0  0.62184  0.99317  0.39327  1.0000
  H   H1867     1.0  0.54399  0.05173  0.99846  1.0000
  C   C1875     1.0  0.67445  0.99918  0.37238  1.0000
  C   C1876     1.0  0.84464  0.07400  0.47019  1.0000
  C   C1877     1.0  0.50237  0.14848  0.08659  1.0000
  C   C1878     1.0  0.71461  0.99697  0.44656  1.0000
  S   S631      1.0  0.50970  0.10028  0.09201  1.0000
  H   H1868     1.0  0.67121  0.01268  0.40768  1.0000
  C   C1879     1.0  0.52455  0.17996  0.16169  1.0000
  S   S632      1.0  0.51316  0.03057  0.21279  1.0000
  H   H1869     1.0  0.84618  0.06702  0.46305  1.0000
  C   C1880     1.0  0.50567  0.11901  0.08928  1.0000
  C   C1881     1.0  0.51761  0.02783  0.17211  1.0000
  C   C1882     1.0  0.83153  0.02741  0.48428  1.0000
  H   H1870     1.0  0.52715  0.18178  0.17077  1.0000
  H   H1871     1.0  0.67046  0.00155  0.25666  1.0000
  H   H1872     1.0  0.91513  0.18275  0.44959  1.0000
  C   C1883     1.0  0.50808  0.18537  0.14586  1.0000
  H   H1873     1.0  0.62501  0.00129  0.40979  1.0000
  C   C1884     1.0  0.53670  0.18661  0.08674  1.0000
  H   H1874     1.0  0.50704  0.04368  0.18469  1.0000
  H   H1875     1.0  0.63069  0.99702  0.38516  1.0000
  H   H1876     1.0  0.85301  0.01495  0.48537  1.0000
  H   H1877     1.0  0.66472  0.99332  0.27531  1.0000
  H   H1878     1.0  0.51323  0.03413  0.16294  1.0000
  C   C1885     1.0  0.82027  0.03119  0.47709  1.0000
  H   H1879     1.0  0.85778  0.99442  0.45857  1.0000
  C   C1886     1.0  0.91248  0.11605  0.48567  1.0000
  H   H1880     1.0  0.51458  0.06110  0.14119  1.0000
  C   C1887     1.0  0.52248  0.18936  0.09475  1.0000
  Fe  Fe314     1.0  0.55443  0.99423  0.15426  1.0000
  H   H1881     1.0  0.50966  0.15579  0.16885  1.0000
  Fe  Fe315     1.0  0.58470  0.99480  0.13575  1.0000
  Fe  Fe316     1.0  0.90185  0.00750  0.48057  1.0000
  H   H1882     1.0  0.60443  0.99253  0.42802  1.0000
  H   H1883     1.0  0.89501  0.18933  0.46813  1.0000
  C   C1888     1.0  0.83546  0.07175  0.48369  1.0000
  H   H1884     1.0  0.93513  0.18949  0.42943  1.0000
  Fe  Fe317     1.0  0.87791  0.03337  0.48608  1.0000
  Fe  Fe318     1.0  0.80880  0.10929  0.53531  1.0000
  S   S633      1.0  0.83053  0.11428  0.53136  1.0000
  S   S634      1.0  0.79854  0.11544  0.51630  1.0000
  Fe  Fe319     1.0  0.80847  0.09608  0.56639  1.0000
  S   S635      1.0  0.83060  0.09963  0.56515  1.0000
  S   S636      1.0  0.79625  0.08321  0.58622  1.0000
  Fe  Fe320     1.0  0.82289  0.12141  0.55206  1.0000
  S   S637      1.0  0.83048  0.14167  0.54941  1.0000
  Fe  Fe321     1.0  0.83681  0.09242  0.54457  1.0000
  S   S638      1.0  0.85894  0.08081  0.53521  1.0000
  S   S639      1.0  0.80011  0.11864  0.55487  1.0000
  S   S640      1.0  0.81570  0.08668  0.54691  1.0000
  Fe  Fe322     1.0  0.88351  0.16426  0.57906  1.0000
  S   S641      1.0  0.86533  0.15226  0.58885  1.0000
  Fe  Fe323     1.0  0.91579  0.15637  0.57882  1.0000
  S   S642      1.0  0.93301  0.14051  0.58943  1.0000
  S   S643      1.0  0.89639  0.16705  0.59310  1.0000
  S   S644      1.0  0.90280  0.15195  0.56607  1.0000
  Fe  Fe324     1.0  0.94220  0.07583  0.56631  1.0000
  S   S645      1.0  0.94995  0.09446  0.55039  1.0000
  S   S646      1.0  0.93776  0.07612  0.58945  1.0000
  Fe  Fe325     1.0  0.94309  0.06108  0.54336  1.0000
  S   S647      1.0  0.95149  0.07838  0.52556  1.0000
  S   S648      1.0  0.93645  0.04227  0.54063  1.0000
  Fe  Fe326     1.0  0.96591  0.07780  0.53958  1.0000
  H   H1885     1.0  0.73267  0.01082  0.55431  1.0000
  Fe  Fe327     1.0  0.93471  0.09325  0.53817  1.0000
  S   S649      1.0  0.95925  0.05904  0.55633  1.0000
  S   S650      1.0  0.92536  0.07617  0.55512  1.0000
  H   H1886     1.0  0.98068  0.11332  0.51636  1.0000
  C   C1889     1.0  0.90276  0.07635  0.53069  1.0000
  H   H1887     1.0  0.54802  0.11982  0.97690  1.0000
  C   C1890     1.0  0.58842  0.04995  0.66288  1.0000
  C   C1891     1.0  0.50742  0.09320  0.81199  1.0000
  H   H1888     1.0  0.65589  0.02537  0.62704  1.0000
  C   C1892     1.0  0.50610  0.12795  0.83588  1.0000
  H   H1889     1.0  0.54845  0.04950  0.86800  1.0000
  Fe  Fe328     1.0  0.53759  0.09435  0.82129  1.0000
  S   S651      1.0  0.54638  0.08791  0.84088  1.0000
  S   S652      1.0  0.51374  0.09586  0.82551  1.0000
  Fe  Fe329     1.0  0.56677  0.09722  0.80196  1.0000
  S   S653      1.0  0.57818  0.09136  0.82025  1.0000
  S   S654      1.0  0.57545  0.10221  0.77803  1.0000
  Fe  Fe330     1.0  0.56517  0.07426  0.82886  1.0000
  S   S655      1.0  0.57262  0.05217  0.84147  1.0000
  Fe  Fe331     1.0  0.55829  0.10567  0.83098  1.0000
  S   S656      1.0  0.55281  0.11911  0.84754  1.0000
  S   S657      1.0  0.55521  0.07907  0.81004  1.0000
  S   S658      1.0  0.54802  0.11312  0.81191  1.0000
  C   C1893     1.0  0.59698  0.99825  0.68715  1.0000
  H   H1890     1.0  0.57954  0.99220  0.72212  1.0000
  Fe  Fe332     1.0  0.58174  0.14557  0.92084  1.0000
  S   S659      1.0  0.59060  0.12891  0.93852  1.0000
  S   S660      1.0  0.56873  0.14226  0.90739  1.0000
  S   S661      1.0  0.59741  0.15572  0.90235  1.0000
  H   H1891     1.0  0.79810  0.06575  0.51769  1.0000
  S   S662      1.0  0.54559  0.06967  0.93437  1.0000
  H   H1892     1.0  0.82679  0.07875  0.50341  1.0000
  C   C1894     1.0  0.71763  0.99679  0.59081  1.0000
  Fe  Fe333     1.0  0.55582  0.06997  0.95163  1.0000
  S   S663      1.0  0.57968  0.06675  0.94999  1.0000
  C   C1895     1.0  0.98940  0.09825  0.56250  1.0000
  C   C1896     1.0  0.83836  0.10131  0.49822  1.0000
  S   S664      1.0  0.54272  0.09157  0.95500  1.0000
  H   H1893     1.0  0.52817  0.08962  0.79719  1.0000
  H   H1894     1.0  0.52042  0.13404  0.85155  1.0000
  C   C1897     1.0  0.50548  0.03345  0.83742  1.0000
  C   C1898     1.0  0.61562  0.01059  0.49526  1.0000
  H   H1895     1.0  0.53465  0.15373  0.87037  1.0000
  S   S665      1.0  0.54455  0.01278  0.89940  1.0000
  H   H1896     1.0  0.90205  0.08129  0.59280  1.0000
  C   C1899     1.0  0.54809  0.13094  0.95499  1.0000
  H   H1897     1.0  0.63434  0.02511  0.67087  1.0000
  C   C1900     1.0  0.53479  0.07710  0.90024  1.0000
  S   S666      1.0  0.54314  0.02395  0.66592  1.0000
  S   S667      1.0  0.63628  0.00889  0.57432  1.0000
  S   S668      1.0  0.59557  0.00746  0.59333  1.0000
  C   C1901     1.0  0.83008  0.17002  0.52083  1.0000
  C   C1902     1.0  0.54665  0.04801  0.87977  1.0000
  Fe  Fe334     1.0  0.61911  0.04815  0.69750  1.0000
  S   S669      1.0  0.62818  0.03260  0.71573  1.0000
  S   S670      1.0  0.63054  0.05466  0.67439  1.0000
  Fe  Fe335     1.0  0.58778  0.05008  0.71422  1.0000
  S   S671      1.0  0.59419  0.03463  0.73357  1.0000
  S   S672      1.0  0.56419  0.06060  0.71509  1.0000
  Fe  Fe336     1.0  0.61142  0.04684  0.72952  1.0000
  S   S673      1.0  0.61481  0.05052  0.74957  1.0000
  Fe  Fe337     1.0  0.61004  0.02192  0.71833  1.0000
  S   S674      1.0  0.60393  0.06337  0.71097  1.0000
  S   S675      1.0  0.60209  0.03631  0.69920  1.0000
  Fe  Fe338     1.0  0.69772  0.04810  0.60441  1.0000
  S   S676      1.0  0.72009  0.04708  0.59036  1.0000
  S   S677      1.0  0.67798  0.04971  0.59634  1.0000
  Fe  Fe339     1.0  0.70729  0.04807  0.63057  1.0000
  S   S678      1.0  0.73077  0.04675  0.61912  1.0000
  S   S679      1.0  0.69890  0.04800  0.65403  1.0000
  Fe  Fe340     1.0  0.72202  0.06309  0.60123  1.0000
  S   S680      1.0  0.73171  0.08194  0.58764  1.0000
  Fe  Fe341     1.0  0.72730  0.03085  0.60906  1.0000
  S   S681      1.0  0.69875  0.06585  0.61349  1.0000
  S   S682      1.0  0.70478  0.03046  0.62235  1.0000
  C   C1903     1.0  0.64949  0.05331  0.66909  1.0000
  C   C1904     1.0  0.65808  0.05043  0.67901  1.0000
  C   C1905     1.0  0.67326  0.04889  0.67433  1.0000
  C   C1906     1.0  0.67988  0.05009  0.65976  1.0000
  C   C1907     1.0  0.67125  0.05296  0.64987  1.0000
  C   C1908     1.0  0.65611  0.05468  0.65452  1.0000
  H   H1898     1.0  0.65306  0.04942  0.69028  1.0000
  H   H1899     1.0  0.67988  0.04671  0.68203  1.0000
  H   H1900     1.0  0.67622  0.05387  0.63862  1.0000
  H   H1901     1.0  0.64953  0.05692  0.64678  1.0000
  C   C1909     1.0  0.68899  0.99755  0.56427  1.0000
  S   S683      1.0  0.52518  0.02518  0.70505  1.0000
  H   H1902     1.0  0.58036  0.17737  0.94741  1.0000
  H   H1903     1.0  0.71730  0.01592  0.59695  1.0000
  C   C1910     1.0  0.66766  0.00685  0.59991  1.0000
  C   C1911     1.0  0.67946  0.00728  0.60480  1.0000
  C   C1912     1.0  0.68258  0.02044  0.60379  1.0000
  C   C1913     1.0  0.67361  0.03325  0.59839  1.0000
  C   C1914     1.0  0.66130  0.03287  0.59417  1.0000
  C   C1915     1.0  0.65836  0.01965  0.59486  1.0000
  S   S684      1.0  0.58548  0.01401  0.65630  1.0000
  H   H1904     1.0  0.69214  0.02059  0.60688  1.0000
  C   C1916     1.0  0.59318  0.01098  0.61013  1.0000
  C   C1917     1.0  0.57909  0.01538  0.61788  1.0000
  H   H1905     1.0  0.92531  0.09442  0.48745  1.0000
  H   H1906     1.0  0.56987  0.01753  0.61312  1.0000
  C   C1918     1.0  0.72344  0.00535  0.59568  1.0000
  C   C1919     1.0  0.51879  0.13758  0.93528  1.0000
  H   H1907     1.0  0.60520  0.12174  0.91101  1.0000
  C   C1920     1.0  0.53628  0.03442  0.70837  1.0000
  C   C1921     1.0  0.55142  0.02949  0.70595  1.0000
  C   C1922     1.0  0.56007  0.03722  0.70846  1.0000
  C   C1923     1.0  0.55360  0.05000  0.71315  1.0000
  C   C1924     1.0  0.53850  0.05489  0.71558  1.0000
  C   C1925     1.0  0.52985  0.04703  0.71335  1.0000
  C   C1926     1.0  0.81300  0.14893  0.49995  1.0000
  H   H1908     1.0  0.57171  0.03343  0.70660  1.0000
  H   H1909     1.0  0.53345  0.06480  0.71916  1.0000
  H   H1910     1.0  0.51817  0.05087  0.71526  1.0000
  C   C1927     1.0  0.89347  0.10418  0.58888  1.0000
  C   C1928     1.0  0.54008  0.03477  0.92919  1.0000
  C   C1929     1.0  0.54584  0.02783  0.91775  1.0000
  Fe  Fe342     1.0  0.64212  0.99512  0.55828  1.0000
  H   H1911     1.0  0.56584  0.01976  0.63797  1.0000
  C   C1930     1.0  0.51626  0.11864  0.87124  1.0000
  Fe  Fe343     1.0  0.52882  0.00614  0.89139  1.0000
  H   H1912     1.0  0.57644  0.07816  0.68600  1.0000
  C   C1931     1.0  0.58783  0.11161  0.94123  1.0000
  C   C1932     1.0  0.59599  0.09999  0.94938  1.0000
  C   C1933     1.0  0.59377  0.08611  0.95180  1.0000
  C   C1934     1.0  0.58322  0.08388  0.94626  1.0000
  C   C1935     1.0  0.57531  0.09547  0.93786  1.0000
  C   C1936     1.0  0.57757  0.10930  0.93539  1.0000
  H   H1913     1.0  0.60396  0.10174  0.95391  1.0000
  H   H1914     1.0  0.59998  0.07718  0.95824  1.0000
  H   H1915     1.0  0.56754  0.09375  0.93308  1.0000
  H   H1916     1.0  0.57114  0.11814  0.92921  1.0000
  C   C1937     1.0  0.58681  0.08807  0.77001  1.0000
  C   C1938     1.0  0.59514  0.07627  0.77775  1.0000
  C   C1939     1.0  0.60393  0.06502  0.77121  1.0000
  C   C1940     1.0  0.60402  0.06519  0.75709  1.0000
  C   C1941     1.0  0.59554  0.07691  0.74940  1.0000
  C   C1942     1.0  0.58718  0.08845  0.75576  1.0000
  H   H1917     1.0  0.59503  0.07593  0.78869  1.0000
  H   H1918     1.0  0.61059  0.05606  0.77717  1.0000
  H   H1919     1.0  0.59561  0.07721  0.73849  1.0000
  H   H1920     1.0  0.58079  0.09757  0.74970  1.0000
  C   C1943     1.0  0.56485  0.12465  0.85393  1.0000
  C   C1944     1.0  0.55949  0.12963  0.86663  1.0000
  C   C1945     1.0  0.56807  0.13554  0.87150  1.0000
  C   C1946     1.0  0.58211  0.13660  0.86370  1.0000
  C   C1947     1.0  0.58770  0.13117  0.85122  1.0000
  C   C1948     1.0  0.57909  0.12520  0.84633  1.0000
  H   H1921     1.0  0.54853  0.12913  0.87264  1.0000
  H   H1922     1.0  0.56369  0.13954  0.88115  1.0000
  S   S685      1.0  0.54117  0.05766  0.96931  1.0000
  H   H1923     1.0  0.58333  0.12140  0.83650  1.0000
  C   C1949     1.0  0.65633  0.02351  0.63816  1.0000
  H   H1924     1.0  0.90984  0.08046  0.61455  1.0000
  H   H1925     1.0  0.64902  0.01939  0.59134  1.0000
  N   N158      1.0  0.54613  0.16844  0.84344  1.0000
  C   C1950     1.0  0.51240  0.16240  0.87964  1.0000
  N   N159      1.0  0.77091  0.06416  0.56215  1.0000
  H   H1926     1.0  0.92060  0.02637  0.50651  1.0000
  C   C1951     1.0  0.56424  0.03936  0.84000  1.0000
  C   C1952     1.0  0.56222  0.02773  0.85149  1.0000
  C   C1953     1.0  0.55441  0.01810  0.85116  1.0000
  C   C1954     1.0  0.54894  0.01975  0.83918  1.0000
  C   C1955     1.0  0.55160  0.03095  0.82733  1.0000
  C   C1956     1.0  0.55913  0.04084  0.82781  1.0000
  H   H1927     1.0  0.56638  0.02634  0.86085  1.0000
  H   H1928     1.0  0.55263  0.00939  0.86027  1.0000
  H   H1929     1.0  0.54744  0.03223  0.81801  1.0000
  H   H1930     1.0  0.56110  0.04946  0.81871  1.0000
  H   H1931     1.0  0.92640  0.14454  0.53604  1.0000
  H   H1932     1.0  0.84742  0.10688  0.49558  1.0000
  C   C1957     1.0  0.93704  0.05488  0.51227  1.0000
  C   C1958     1.0  0.93381  0.04348  0.52361  1.0000
  C   C1959     1.0  0.92801  0.03310  0.52146  1.0000
  C   C1960     1.0  0.92515  0.03434  0.50810  1.0000
  H   H1933     1.0  0.54806  0.99504  0.93031  1.0000
  H   H1934     1.0  0.94158  0.06284  0.51372  1.0000
  H   H1935     1.0  0.92563  0.02415  0.53016  1.0000
  H   H1936     1.0  0.93683  0.06499  0.49025  1.0000
  H   H1937     1.0  0.97663  0.08545  0.55945  1.0000
  C   C1961     1.0  0.53685  0.02245  0.91288  1.0000
  H   H1938     1.0  0.92925  0.09270  0.51129  1.0000
  C   C1962     1.0  0.93381  0.12263  0.58978  1.0000
  C   C1963     1.0  0.93983  0.11159  0.60010  1.0000
  C   C1964     1.0  0.94079  0.09724  0.60024  1.0000
  C   C1965     1.0  0.93595  0.09395  0.58992  1.0000
  C   C1966     1.0  0.92962  0.10500  0.57986  1.0000
  C   C1967     1.0  0.92854  0.11930  0.57981  1.0000
  H   H1939     1.0  0.94373  0.11408  0.60800  1.0000
  H   H1940     1.0  0.94560  0.08868  0.60809  1.0000
  H   H1941     1.0  0.92544  0.10252  0.57215  1.0000
  H   H1942     1.0  0.92392  0.12765  0.57181  1.0000
  C   C1968     1.0  0.77812  0.08333  0.58686  1.0000
  C   C1969     1.0  0.77140  0.07286  0.59704  1.0000
  C   C1970     1.0  0.75722  0.07225  0.59730  1.0000
  C   C1971     1.0  0.74952  0.08236  0.58764  1.0000
  C   C1972     1.0  0.75608  0.09308  0.57775  1.0000
  C   C1973     1.0  0.77042  0.09344  0.57720  1.0000
  H   H1943     1.0  0.77734  0.06500  0.60451  1.0000
  H   H1944     1.0  0.75231  0.06392  0.60492  1.0000
  H   H1945     1.0  0.75013  0.10103  0.57033  1.0000
  H   H1946     1.0  0.77548  0.10162  0.56939  1.0000
  C   C1974     1.0  0.84058  0.14396  0.56038  1.0000
  C   C1975     1.0  0.84105  0.13517  0.57397  1.0000
  C   C1976     1.0  0.84870  0.13781  0.58261  1.0000
  C   C1977     1.0  0.85615  0.14903  0.57761  1.0000
  C   C1978     1.0  0.85603  0.15753  0.56387  1.0000
  C   C1979     1.0  0.84810  0.15512  0.55538  1.0000
  H   H1947     1.0  0.83517  0.12664  0.57798  1.0000
  H   H1948     1.0  0.84866  0.13125  0.59327  1.0000
  H   H1949     1.0  0.86170  0.16623  0.55992  1.0000
  H   H1950     1.0  0.84780  0.16199  0.54491  1.0000
  C   C1980     1.0  0.85706  0.07028  0.52478  1.0000
  C   C1981     1.0  0.84667  0.06185  0.52994  1.0000
  C   C1982     1.0  0.84589  0.05277  0.52183  1.0000
  C   C1983     1.0  0.85568  0.05196  0.50871  1.0000
  C   C1984     1.0  0.86572  0.06078  0.50337  1.0000
  C   C1985     1.0  0.86624  0.07010  0.51130  1.0000
  H   H1951     1.0  0.83956  0.06194  0.54039  1.0000
  H   H1952     1.0  0.83805  0.04603  0.52594  1.0000
  C   C1986     1.0  0.50616  0.12447  0.90710  1.0000
  H   H1953     1.0  0.87376  0.07716  0.50698  1.0000
  H   H1954     1.0  0.65424  0.04279  0.59006  1.0000
  H   H1955     1.0  0.53044  0.05628  0.90369  1.0000
  C   C1987     1.0  0.79744  0.10154  0.50923  1.0000
  C   C1988     1.0  0.79814  0.08751  0.51739  1.0000
  C   C1989     1.0  0.79748  0.07660  0.51137  1.0000
  C   C1990     1.0  0.62175  0.02077  0.49721  1.0000
  H   H1956     1.0  0.79910  0.08506  0.52834  1.0000
  C   C1991     1.0  0.92825  0.04590  0.49685  1.0000
  C   C1992     1.0  0.79590  0.10461  0.49509  1.0000
  H   H1957     1.0  0.77512  0.08444  0.54960  1.0000
  C   C1993     1.0  0.94352  0.14035  0.54724  1.0000
  H   H1958     1.0  0.51505  0.02013  0.91551  1.0000
  Fe  Fe344     1.0  0.53549  0.00759  0.66013  1.0000
  C   C1994     1.0  0.89150  0.11669  0.59360  1.0000
  H   H1959     1.0  0.72068  0.03421  0.56128  1.0000
  C   C1995     1.0  0.53305  0.16005  0.88972  1.0000
  H   H1960     1.0  0.75708  0.08242  0.55187  1.0000
  Fe  Fe345     1.0  0.53130  0.09035  0.93911  1.0000
  C   C1996     1.0  0.92322  0.10257  0.50593  1.0000
  H   H1961     1.0  0.59646  0.17991  0.96138  1.0000
  C   C1997     1.0  0.76868  0.07660  0.55030  1.0000
  H   H1962     1.0  0.51636  0.12462  0.82822  1.0000
  N   N160      1.0  0.57061  0.05422  0.77433  1.0000
  C   C1998     1.0  0.56341  0.06826  0.77351  1.0000
  C   C1999     1.0  0.57075  0.04716  0.76437  1.0000
  C   C2000     1.0  0.55643  0.07569  0.76229  1.0000
  C   C2001     1.0  0.56364  0.05419  0.75316  1.0000
  C   C2002     1.0  0.55660  0.06859  0.75203  1.0000
  C   C2003     1.0  0.57801  0.04647  0.78605  1.0000
  H   H1963     1.0  0.56342  0.07397  0.78126  1.0000
  H   H1964     1.0  0.57655  0.03606  0.76495  1.0000
  H   H1965     1.0  0.55121  0.08697  0.76144  1.0000
  H   H1966     1.0  0.56377  0.04860  0.74524  1.0000
  H   H1967     1.0  0.55144  0.07421  0.74311  1.0000
  H   H1968     1.0  0.58934  0.04106  0.78169  1.0000
  H   H1969     1.0  0.57880  0.05380  0.79224  1.0000
  H   H1970     1.0  0.57208  0.03832  0.79348  1.0000
  N   N161      1.0  0.62218  0.02122  0.51064  1.0000
  S   S686      1.0  0.89655  0.02131  0.49648  1.0000
  H   H1971     1.0  0.52543  0.05773  0.82811  1.0000
  H   H1972     1.0  0.90563  0.13621  0.51020  1.0000
  C   C2004     1.0  0.59852  0.05726  0.66325  1.0000
  H   H1973     1.0  0.60972  0.05485  0.65739  1.0000
  Fe  Fe346     1.0  0.53667  0.01216  0.68853  1.0000
  H   H1974     1.0  0.88677  0.12691  0.58741  1.0000
  C   C2005     1.0  0.90423  0.09056  0.60888  1.0000
  C   C2006     1.0  0.98542  0.09100  0.55455  1.0000
  C   C2007     1.0  0.67010  0.01681  0.65647  1.0000
  H   H1975     1.0  0.55893  0.06531  0.68467  1.0000
  C   C2008     1.0  0.93761  0.13931  0.53652  1.0000
  Fe  Fe347     1.0  0.52742  0.07940  0.97152  1.0000
  C   C2009     1.0  0.79626  0.07964  0.49712  1.0000
  N   N162      1.0  0.96257  0.15191  0.60035  1.0000
  H   H1976     1.0  0.59187  0.04181  0.65659  1.0000
  C   C2010     1.0  0.89253  0.16735  0.50040  1.0000
  S   S687      1.0  0.52817  0.10852  0.92022  1.0000
  C   C2011     1.0  0.94620  0.13136  0.52641  1.0000
  C   C2012     1.0  0.90964  0.12698  0.50540  1.0000
  H   H1977     1.0  0.51275  0.14883  0.93521  1.0000
  C   C2013     1.0  0.82873  0.16399  0.49922  1.0000
  H   H1978     1.0  0.52435  0.99903  0.94759  1.0000
  C   C2014     1.0  0.55293  0.07130  0.87475  1.0000
  S   S688      1.0  0.85549  0.03984  0.49908  1.0000
  H   H1979     1.0  0.95829  0.13204  0.60044  1.0000
  H   H1980     1.0  0.62710  0.00828  0.69492  1.0000
  C   C2015     1.0  0.69908  0.03063  0.56563  1.0000
  C   C2016     1.0  0.89425  0.12943  0.61002  1.0000
  C   C2017     1.0  0.90272  0.07432  0.51747  1.0000
  N   N163      1.0  0.84088  0.09169  0.48864  1.0000
  C   C2018     1.0  0.59418  0.06754  0.67152  1.0000
  H   H1981     1.0  0.55278  0.04925  0.67536  1.0000
  C   C2019     1.0  0.56222  0.17418  0.85414  1.0000
  C   C2020     1.0  0.90223  0.10329  0.61321  1.0000
  H   H1982     1.0  0.69287  0.99203  0.55524  1.0000
  Fe  Fe348     1.0  0.90515  0.17338  0.55191  1.0000
  C   C2021     1.0  0.95782  0.13323  0.54789  1.0000
  H   H1983     1.0  0.60199  0.07307  0.67215  1.0000
  S   S689      1.0  0.51423  0.08060  0.95605  1.0000
  C   C2022     1.0  0.71419  0.02701  0.56130  1.0000
  H   H1984     1.0  0.83230  0.18047  0.51408  1.0000
  H   H1985     1.0  0.96240  0.13369  0.55640  1.0000
  C   C2023     1.0  0.53632  0.06419  0.89641  1.0000
  H   H1986     1.0  0.51808  0.08412  0.77950  1.0000
  H   H1987     1.0  0.60849  0.17569  0.92087  1.0000
  N   N164      1.0  0.72614  0.08124  0.63200  1.0000
  C   C2024     1.0  0.72423  0.09125  0.61971  1.0000
  C   C2025     1.0  0.71440  0.07724  0.64200  1.0000
  C   C2026     1.0  0.71028  0.09755  0.61721  1.0000
  C   C2027     1.0  0.70028  0.08346  0.63992  1.0000
  C   C2028     1.0  0.69823  0.09367  0.62744  1.0000
  C   C2029     1.0  0.74082  0.07426  0.63431  1.0000
  H   H1988     1.0  0.73350  0.09424  0.61160  1.0000
  H   H1989     1.0  0.71589  0.06898  0.65156  1.0000
  H   H1990     1.0  0.70890  0.10511  0.60721  1.0000
  H   H1991     1.0  0.69103  0.08001  0.64778  1.0000
  H   H1992     1.0  0.68736  0.09827  0.62552  1.0000
  H   H1993     1.0  0.74149  0.07431  0.64521  1.0000
  H   H1994     1.0  0.74355  0.06298  0.63315  1.0000
  H   H1995     1.0  0.74919  0.07980  0.62652  1.0000
  H   H1996     1.0  0.96971  0.17085  0.59848  1.0000
  H   H1997     1.0  0.52628  0.13724  0.92464  1.0000
  H   H1998     1.0  0.79514  0.11546  0.48877  1.0000
  H   H1999     1.0  0.64131  0.02735  0.51006  1.0000
  C   C2030     1.0  0.57681  0.01665  0.63196  1.0000
  Fe  Fe349     1.0  0.55532  0.16410  0.90963  1.0000
  H   H2000     1.0  0.69373  0.04067  0.56896  1.0000
  C   C2031     1.0  0.73723  0.00031  0.59876  1.0000
  H   H2001     1.0  0.64862  0.02281  0.68767  1.0000
  Fe  Fe350     1.0  0.61857  0.99679  0.58514  1.0000
  C   C2032     1.0  0.54308  0.15884  0.83646  1.0000
  C   C2033     1.0  0.60898  0.18623  0.92142  1.0000
  H   H2002     1.0  0.89604  0.16392  0.49041  1.0000
  H   H2003     1.0  0.50566  0.01525  0.62375  1.0000
  C   C2034     1.0  0.51667  0.09005  0.79920  1.0000
  S   S690      1.0  0.50813  0.99881  0.90304  1.0000
  S   S691      1.0  0.56883  0.17594  0.89031  1.0000
  C   C2035     1.0  0.65809  0.01606  0.68168  1.0000
  H   H2004     1.0  0.67919  0.02381  0.56966  1.0000
  C   C2036     1.0  0.54238  0.08730  0.89100  1.0000
  C   C2037     1.0  0.96888  0.11601  0.51646  1.0000
  C   C2038     1.0  0.57000  0.06306  0.67850  1.0000
  H   H2005     1.0  0.97721  0.11991  0.53818  1.0000
  S   S692      1.0  0.61139  0.99820  0.72358  1.0000
  N   N165      1.0  0.65750  0.01902  0.66661  1.0000
  H   H2006     1.0  0.90630  0.08550  0.53130  1.0000
  H   H2007     1.0  0.57165  0.99338  0.60939  1.0000
  H   H2008     1.0  0.61602  0.00538  0.61021  1.0000
  H   H2009     1.0  0.77200  0.07309  0.54002  1.0000
  C   C2039     1.0  0.51635  0.03086  0.93092  1.0000
  H   H2010     1.0  0.94171  0.16420  0.59764  1.0000
  H   H2011     1.0  0.59859  0.13188  0.84514  1.0000
  C   C2040     1.0  0.56415  0.04481  0.67015  1.0000
  S   S693      1.0  0.53757  0.00871  0.83975  1.0000
  H   H2012     1.0  0.56435  0.04490  0.65895  1.0000
  C   C2041     1.0  0.58934  0.18931  0.95643  1.0000
  H   H2013     1.0  0.62629  0.02820  0.48786  1.0000
  H   H2014     1.0  0.54463  0.15721  0.88900  1.0000
  H   H2015     1.0  0.90356  0.13445  0.60381  1.0000
  H   H2016     1.0  0.62592  0.03320  0.52347  1.0000
  C   C2042     1.0  0.96612  0.12539  0.53758  1.0000
  S   S694      1.0  0.52671  0.99738  0.68282  1.0000
  C   C2043     1.0  0.58984  0.00105  0.70063  1.0000
  Fe  Fe351     1.0  0.52690  0.00284  0.86286  1.0000
  H   H2017     1.0  0.91436  0.16563  0.50223  1.0000
  H   H2018     1.0  0.74992  0.06004  0.56531  1.0000
  S   S695      1.0  0.91977  0.11337  0.52949  1.0000
  C   C2044     1.0  0.82332  0.15704  0.49217  1.0000
  C   C2045     1.0  0.87334  0.17514  0.51970  1.0000
  S   S696      1.0  0.52384  0.01371  0.64220  1.0000
  H   H2019     1.0  0.89392  0.12750  0.62159  1.0000
  H   H2020     1.0  0.62167  0.11219  0.90112  1.0000
  C   C2046     1.0  0.76025  0.05655  0.56852  1.0000
  C   C2047     1.0  0.78386  0.05986  0.56636  1.0000
  C   C2048     1.0  0.76236  0.04437  0.57953  1.0000
  C   C2049     1.0  0.78629  0.04780  0.57741  1.0000
  C   C2050     1.0  0.77545  0.04001  0.58400  1.0000
  H   H2021     1.0  0.60880  0.12510  0.89175  1.0000
  H   H2022     1.0  0.79226  0.06596  0.56145  1.0000
  H   H2023     1.0  0.75388  0.03838  0.58467  1.0000
  H   H2024     1.0  0.79642  0.04469  0.58097  1.0000
  H   H2025     1.0  0.77712  0.03066  0.59263  1.0000
  N   N166      1.0  0.87065  0.12251  0.52917  1.0000
  C   C2051     1.0  0.86753  0.11437  0.54271  1.0000
  C   C2052     1.0  0.87687  0.13392  0.52657  1.0000
  C   C2053     1.0  0.87112  0.11732  0.55401  1.0000
  C   C2054     1.0  0.88086  0.13699  0.53755  1.0000
  C   C2055     1.0  0.87800  0.12860  0.55134  1.0000
  C   C2056     1.0  0.86722  0.11924  0.51726  1.0000
  H   H2026     1.0  0.86215  0.10561  0.54486  1.0000
  H   H2027     1.0  0.87890  0.14062  0.51590  1.0000
  H   H2028     1.0  0.86827  0.11110  0.56479  1.0000
  H   H2029     1.0  0.88607  0.14587  0.53539  1.0000
  H   H2030     1.0  0.88073  0.13117  0.55997  1.0000
  H   H2031     1.0  0.85821  0.12782  0.51352  1.0000
  H   H2032     1.0  0.87699  0.11846  0.50834  1.0000
  H   H2033     1.0  0.86389  0.10883  0.52036  1.0000
  N   N167      1.0  0.89399  0.05275  0.52908  1.0000
  C   C2057     1.0  0.89843  0.06231  0.51684  1.0000
  C   C2058     1.0  0.89404  0.05461  0.54209  1.0000
  H   H2034     1.0  0.50967  0.10252  0.88971  1.0000
  C   C2059     1.0  0.89845  0.06640  0.54310  1.0000
  H   H2035     1.0  0.82817  0.10957  0.49725  1.0000
  C   C2060     1.0  0.88907  0.04040  0.52841  1.0000
  H   H2036     1.0  0.89872  0.06069  0.50647  1.0000
  H   H2037     1.0  0.89073  0.04691  0.55176  1.0000
  H   H2038     1.0  0.98346  0.09850  0.57337  1.0000
  H   H2039     1.0  0.89865  0.06771  0.55342  1.0000
  C   C2061     1.0  0.51096  0.11184  0.91660  1.0000
  H   H2040     1.0  0.89605  0.03027  0.53310  1.0000
  H   H2041     1.0  0.87757  0.04096  0.53433  1.0000
  H   H2042     1.0  0.88960  0.04014  0.51724  1.0000
  H   H2043     1.0  0.55605  0.03994  0.88339  1.0000
  N   N168      1.0  0.57436  0.05294  0.67041  1.0000
  H   H2044     1.0  0.98362  0.12194  0.58949  1.0000
  H   H2045     1.0  0.67725  0.00258  0.56497  1.0000
  C   C2062     1.0  0.55152  0.08441  0.87815  1.0000
  H   H2046     1.0  0.54487  0.14152  0.93385  1.0000
  C   C2063     1.0  0.60509  0.00856  0.61625  1.0000
  H   H2047     1.0  0.60127  0.00665  0.67887  1.0000
  H   H2048     1.0  0.80957  0.15465  0.53270  1.0000
  C   C2064     1.0  0.71237  0.00456  0.55795  1.0000
  C   C2065     1.0  0.91755  0.11431  0.51243  1.0000
  H   H2049     1.0  0.88398  0.13716  0.60807  1.0000
  H   H2050     1.0  0.68660  0.99741  0.60883  1.0000
  S   S697      1.0  0.50593  0.16155  0.86518  1.0000
  C   C2066     1.0  0.62769  0.99697  0.69648  1.0000
  C   C2067     1.0  0.81346  0.15544  0.52128  1.0000
  N   N169      1.0  0.60233  0.10538  0.90307  1.0000
  C   C2068     1.0  0.59090  0.10842  0.89665  1.0000
  C   C2069     1.0  0.60625  0.09210  0.91147  1.0000
  C   C2070     1.0  0.58322  0.09796  0.89833  1.0000
  C   C2071     1.0  0.59894  0.08131  0.91324  1.0000
  C   C2072     1.0  0.58730  0.08430  0.90668  1.0000
  C   C2073     1.0  0.60986  0.11665  0.90167  1.0000
  H   H2051     1.0  0.58759  0.11903  0.89029  1.0000
  H   H2052     1.0  0.61485  0.08989  0.91713  1.0000
  H   H2053     1.0  0.57405  0.10053  0.89335  1.0000
  H   H2054     1.0  0.60181  0.07090  0.92022  1.0000
  H   H2055     1.0  0.58125  0.07615  0.90841  1.0000
  H   H2056     1.0  0.54711  0.03859  0.93316  1.0000
  H   H2057     1.0  0.00006  0.06012  0.55743  1.0000
  H   H2058     1.0  0.51310  0.13205  0.90194  1.0000
  H   H2059     1.0  0.50776  0.06392  0.81267  1.0000
  S   S698      1.0  0.51926  0.02131  0.87359  1.0000
  Fe  Fe352     1.0  0.52930  0.05975  0.95239  1.0000
  H   H2060     1.0  0.79989  0.14197  0.52076  1.0000
  C   C2074     1.0  0.64353  0.02568  0.64857  1.0000
  S   S699      1.0  0.51818  0.04349  0.95104  1.0000
  C   C2075     1.0  0.64432  0.02331  0.66284  1.0000
  S   S700      1.0  0.59256  0.14517  0.86901  1.0000
  C   C2076     1.0  0.89854  0.17257  0.52020  1.0000
  H   H2061     1.0  0.62509  0.17821  0.93431  1.0000
  C   C2077     1.0  0.52086  0.12522  0.95985  1.0000
  S   S701      1.0  0.53081  0.16829  0.91439  1.0000
  C   C2078     1.0  0.80794  0.14822  0.51459  1.0000
  C   C2079     1.0  0.54025  0.13550  0.94420  1.0000
  C   C2080     1.0  0.52376  0.16574  0.90116  1.0000
  H   H2062     1.0  0.50961  0.06069  0.84235  1.0000
  H   H2063     1.0  0.56728  0.03351  0.67590  1.0000
  C   C2081     1.0  0.61681  0.01154  0.52232  1.0000
  C   C2082     1.0  0.69089  0.02101  0.56608  1.0000
  S   S702      1.0  0.50622  0.99496  0.87154  1.0000
  H   H2064     1.0  0.90622  0.10288  0.62241  1.0000
  H   H2065     1.0  0.57284  0.17195  0.85659  1.0000
  H   H2066     1.0  0.96752  0.12188  0.50552  1.0000
  N   N170      1.0  0.89575  0.11611  0.60569  1.0000
  C   C2083     1.0  0.99320  0.09043  0.54057  1.0000
  S   S703      1.0  0.86437  0.17004  0.49839  1.0000
  N   N171      1.0  0.54511  0.06156  0.88367  1.0000
  C   C2084     1.0  0.90291  0.16831  0.50712  1.0000
  S   S704      1.0  0.64933  0.00243  0.53444  1.0000
  H   H2067     1.0  0.55880  0.13315  0.95293  1.0000
  N   N172      1.0  0.82373  0.16320  0.51359  1.0000
  C   C2085     1.0  0.89989  0.09104  0.59660  1.0000
  H   H2068     1.0  0.84052  0.16290  0.52305  1.0000
  H   H2069     1.0  0.61761  0.01154  0.53292  1.0000
  H   H2070     1.0  0.96529  0.10577  0.51908  1.0000
  H   H2071     1.0  0.55744  0.09227  0.87082  1.0000
  C   C2086     1.0  0.51526  0.12510  0.85710  1.0000
  H   H2072     1.0  0.52780  0.07918  0.91035  1.0000
  Fe  Fe353     1.0  0.58310  0.15406  0.88905  1.0000
  C   C2087     1.0  0.51727  0.05251  0.83662  1.0000
  C   C2088     1.0  0.88372  0.17587  0.52654  1.0000
  C   C2089     1.0  0.57985  0.07046  0.67922  1.0000
  N   N173      1.0  0.52693  0.13241  0.94665  1.0000
  S   S705      1.0  0.56698  0.16637  0.92497  1.0000
  H   H2073     1.0  0.94144  0.13051  0.51819  1.0000
  C   C2090     1.0  0.52737  0.15822  0.87911  1.0000
  C   C2091     1.0  0.52828  0.12072  0.97095  1.0000
  Fe  Fe354     1.0  0.58182  0.17650  0.90554  1.0000
  H   H2074     1.0  0.55734  0.02638  0.91286  1.0000
  C   C2092     1.0  0.00129  0.10479  0.55656  1.0000
  S   S706      1.0  0.74433  0.01115  0.60497  1.0000
  C   C2093     1.0  0.53736  0.18752  0.85612  1.0000
  H   H2075     1.0  0.52206  0.12264  0.87651  1.0000
  H   H2076     1.0  0.53673  0.04358  0.88464  1.0000
  N   N174      1.0  0.96030  0.12463  0.52696  1.0000
  C   C2094     1.0  0.54204  0.12348  0.96844  1.0000
  N   N175      1.0  0.50751  0.12053  0.85049  1.0000
  H   H2077     1.0  0.86189  0.17792  0.52457  1.0000
  C   C2095     1.0  0.50305  0.16793  0.89121  1.0000
  H   H2078     1.0  0.90622  0.08181  0.50772  1.0000
  H   H2079     1.0  0.52432  0.18077  0.84636  1.0000
  H   H2080     1.0  0.89041  0.10471  0.57912  1.0000
  C   C2096     1.0  0.97275  0.16006  0.59662  1.0000
  H   H2081     1.0  0.93700  0.14652  0.55512  1.0000
  H   H2082     1.0  0.63310  0.02925  0.64559  1.0000
  C   C2097     1.0  0.58865  0.01388  0.63822  1.0000
  H   H2083     1.0  0.56829  0.15746  0.84260  1.0000
  H   H2084     1.0  0.61200  0.00794  0.63511  1.0000
  N   N176      1.0  0.69756  0.00811  0.56240  1.0000
  C   C2098     1.0  0.60282  0.01011  0.63029  1.0000
  C   C2099     1.0  0.99118  0.14080  0.58778  1.0000
  H   H2085     1.0  0.56024  0.06899  0.86485  1.0000
  C   C2100     1.0  0.62933  0.03151  0.51237  1.0000
  H   H2086     1.0  0.58888  0.01134  0.70287  1.0000
  C   C2101     1.0  0.61030  0.00056  0.50706  1.0000
  H   H2087     1.0  0.99530  0.16104  0.58741  1.0000
  C   C2102     1.0  0.87771  0.17092  0.50660  1.0000
  C   C2103     1.0  0.90688  0.12777  0.49218  1.0000
  H   H2088     1.0  0.54122  0.09738  0.89383  1.0000
  H   H2089     1.0  0.50494  0.03192  0.93612  1.0000
  H   H2090     1.0  0.83734  0.09523  0.50951  1.0000
  C   C2104     1.0  0.72090  0.01395  0.55731  1.0000
  H   H2091     1.0  0.53739  0.15092  0.84469  1.0000
  C   C2105     1.0  0.52204  0.02422  0.91927  1.0000
  H   H2092     1.0  0.80901  0.14313  0.49467  1.0000
  H   H2093     1.0  0.55281  0.19121  0.86555  1.0000
  C   C2106     1.0  0.61086  0.00103  0.52070  1.0000
  Fe  Fe355     1.0  0.56407  0.00769  0.66611  1.0000
  S   S707      1.0  0.91180  0.17389  0.52825  1.0000
  H   H2094     1.0  0.87299  0.06055  0.49307  1.0000
  H   H2095     1.0  0.53607  0.16497  0.82878  1.0000
  S   S708      1.0  0.92018  0.17668  0.56347  1.0000
  H   H2096     1.0  0.82979  0.06304  0.48714  1.0000
  C   C2107     1.0  0.96636  0.13842  0.59776  1.0000
  H   H2097     1.0  0.65811  0.00458  0.68671  1.0000
  C   C2108     1.0  0.79545  0.09367  0.48902  1.0000
  S   S709      1.0  0.98878  0.08089  0.53071  1.0000
  C   C2109     1.0  0.53511  0.17912  0.84818  1.0000
  C   C2110     1.0  0.66969  0.01900  0.64212  1.0000
  C   C2111     1.0  0.55958  0.16598  0.84624  1.0000
  H   H2098     1.0  0.52333  0.04416  0.84417  1.0000
  C   C2112     1.0  0.94736  0.15798  0.60641  1.0000
  H   H2099     1.0  0.62664  0.04209  0.50504  1.0000
  C   C2113     1.0  0.50491  0.05374  0.81807  1.0000
  C   C2114     1.0  0.52537  0.03607  0.93593  1.0000
  H   H2100     1.0  0.55321  0.15278  0.83052  1.0000
  H   H2101     1.0  0.51028  0.12278  0.96184  1.0000
  N   N177      1.0  0.50924  0.04627  0.83046  1.0000
  C   C2115     1.0  0.98722  0.15460  0.59034  1.0000
  H   H2102     1.0  0.55644  0.01966  0.70229  1.0000
  H   H2103     1.0  0.67967  0.01726  0.63411  1.0000
  H   H2104     1.0  0.94145  0.14943  0.61287  1.0000
  H   H2105     1.0  0.66798  0.01861  0.68277  1.0000
  C   C2116     1.0  0.98069  0.13264  0.59152  1.0000
  S   S710      1.0  0.88491  0.18576  0.56411  1.0000
  H   H2106     1.0  0.83040  0.03197  0.49331  1.0000
  H   H2107     1.0  0.82280  0.17196  0.53118  1.0000
  H   H2108     1.0  0.83702  0.16997  0.49315  1.0000
  C   C2117     1.0  0.50872  0.16950  0.90200  1.0000
  H   H2109     1.0  0.68056  0.01349  0.65942  1.0000
  C   C2118     1.0  0.61838  0.18770  0.92904  1.0000
  C   C2119     1.0  0.55100  0.18497  0.85915  1.0000
  C   C2120     1.0  0.93436  0.05605  0.49892  1.0000
  C   C2121     1.0  0.51096  0.08706  0.78916  1.0000
  H   H2110     1.0  0.70697  0.00078  0.58845  1.0000
  H   H2111     1.0  0.50869  0.02759  0.84734  1.0000
  C   C2122     1.0  0.65085  0.99353  0.51037  1.0000
  S   S711      1.0  0.79605  0.06571  0.48961  1.0000
  C   C2123     1.0  0.50938  0.10733  0.87859  1.0000
  H   H2112     1.0  0.54548  0.99559  0.62097  1.0000
  C   C2124     1.0  0.50440  0.00607  0.63252  1.0000
  H   H2113     1.0  0.51110  0.13074  0.93661  1.0000
  H   H2114     1.0  0.65512  0.00290  0.50439  1.0000
  H   H2115     1.0  0.63972  0.99562  0.67499  1.0000
  C   C2125     1.0  0.83373  0.08072  0.49285  1.0000
  H   H2116     1.0  0.71770  0.99414  0.55549  1.0000
  C   C2126     1.0  0.92086  0.10351  0.49245  1.0000
  H   H2117     1.0  0.88024  0.17921  0.53660  1.0000
  H   H2118     1.0  0.94656  0.16508  0.61354  1.0000
  H   H2119     1.0  0.52344  0.11492  0.98136  1.0000
  H   H2120     1.0  0.54668  0.08982  0.98367  1.0000
  S   S712      1.0  0.55823  0.99683  0.68916  1.0000
  H   H2121     1.0  0.56653  0.05825  0.98165  1.0000
  H   H2122     1.0  0.60707  0.99308  0.52993  1.0000
  C   C2127     1.0  0.51228  0.00269  0.64315  1.0000
  C   C2128     1.0  0.58031  0.18789  0.94860  1.0000
  Fe  Fe356     1.0  0.89989  0.18735  0.57703  1.0000
  S   S713      1.0  0.55717  0.99232  0.65817  1.0000
  H   H2123     1.0  0.92741  0.18843  0.58838  1.0000
  H   H2124     1.0  0.90049  0.13752  0.48703  1.0000
  H   H2125     1.0  0.50577  0.09209  0.93014  1.0000
  H   H2126     1.0  0.94595  0.19019  0.60006  1.0000
  H   H2127     1.0  0.60597  0.99230  0.50559  1.0000
  H   H2128     1.0  0.50354  0.13976  0.83477  1.0000
  H   H2129     1.0  0.00224  0.06632  0.57163  1.0000
  H   H2130     1.0  0.53035  0.20343  0.12788  1.0000
  C   C2129     1.0  0.90061  0.24643  0.37973  1.0000
  H   H2131     1.0  0.69383  0.35723  0.99142  1.0000
  H   H2132     1.0  0.60854  0.22530  0.06174  1.0000
  C   C2130     1.0  0.69515  0.26306  0.01743  1.0000
  H   H2133     1.0  0.67221  0.35422  0.00956  1.0000
  H   H2134     1.0  0.54140  0.31522  0.00537  1.0000
  N   N178      1.0  0.97045  0.27370  0.43235  1.0000
  H   H2135     1.0  0.92081  0.39026  0.39634  1.0000
  H   H2136     1.0  0.90111  0.24534  0.36884  1.0000
  C   C2131     1.0  0.90011  0.19701  0.47015  1.0000
  C   C2132     1.0  0.51897  0.19760  0.10500  1.0000
  C   C2133     1.0  0.67746  0.28152  0.00700  1.0000
  H   H2137     1.0  0.99284  0.23408  0.42472  1.0000
  S   S714      1.0  0.61381  0.33614  0.98713  1.0000
  C   C2134     1.0  0.60777  0.23250  0.05144  1.0000
  Fe  Fe357     1.0  0.74176  0.34379  0.07662  1.0000
  S   S715      1.0  0.71911  0.34594  0.09035  1.0000
  S   S716      1.0  0.76137  0.34773  0.08177  1.0000
  Fe  Fe358     1.0  0.73173  0.34121  0.05095  1.0000
  S   S717      1.0  0.70844  0.34398  0.06268  1.0000
  S   S718      1.0  0.73829  0.33935  0.02779  1.0000
  Fe  Fe359     1.0  0.71264  0.36088  0.07066  1.0000
  C   C2135     1.0  0.69921  0.27299  0.02217  1.0000
  Fe  Fe360     1.0  0.71714  0.32856  0.08094  1.0000
  S   S719      1.0  0.70437  0.31136  0.09276  1.0000
  S   S720      1.0  0.73521  0.35963  0.05733  1.0000
  S   S721      1.0  0.74056  0.32489  0.06889  1.0000
  Fe  Fe361     1.0  0.65034  0.24660  0.07106  1.0000
  S   S722      1.0  0.65429  0.26219  0.08133  1.0000
  Fe  Fe362     1.0  0.64760  0.26827  0.04333  1.0000
  S   S723      1.0  0.65063  0.28594  0.05121  1.0000
  S   S724      1.0  0.64392  0.27347  0.02099  1.0000
  Fe  Fe363     1.0  0.66862  0.26962  0.06015  1.0000
  S   S725      1.0  0.68969  0.27692  0.05562  1.0000
  Fe  Fe364     1.0  0.63621  0.27744  0.07173  1.0000
  S   S726      1.0  0.61925  0.29167  0.08493  1.0000
  S   S727      1.0  0.63115  0.26146  0.06302  1.0000
  Fe  Fe365     1.0  0.57392  0.32543  0.02877  1.0000
  S   S728      1.0  0.59374  0.31134  0.01826  1.0000
  S   S729      1.0  0.57085  0.32862  0.05094  1.0000
  Fe  Fe366     1.0  0.56036  0.33345  0.00289  1.0000
  C   C2136     1.0  0.54322  0.20068  0.09908  1.0000
  S   S730      1.0  0.66672  0.25236  0.05061  1.0000
  Fe  Fe367     1.0  0.59291  0.32926  0.99902  1.0000
  C   C2137     1.0  0.75744  0.30776  0.01180  1.0000
  S   S731      1.0  0.55829  0.31650  0.02313  1.0000
  S   S732      1.0  0.57385  0.34402  0.00978  1.0000
  N   N179      1.0  0.60682  0.25611  0.03628  1.0000
  H   H2138     1.0  0.89128  0.20650  0.47221  1.0000
  N   N180      1.0  0.50422  0.35588  0.01585  1.0000
  Fe  Fe368     1.0  0.92299  0.37046  0.29738  1.0000
  S   S733      1.0  0.90587  0.35890  0.31180  1.0000
  C   C2138     1.0  0.86837  0.22716  0.41125  1.0000
  Fe  Fe369     1.0  0.94292  0.35846  0.31885  1.0000
  S   S734      1.0  0.92740  0.34592  0.33478  1.0000
  S   S735      1.0  0.96219  0.35873  0.32655  1.0000
  Fe  Fe370     1.0  0.92462  0.34027  0.31575  1.0000
  S   S736      1.0  0.92592  0.31807  0.31363  1.0000
  Fe  Fe371     1.0  0.91049  0.36571  0.32939  1.0000
  S   S737      1.0  0.89317  0.37507  0.34638  1.0000
  S   S738      1.0  0.94163  0.35136  0.29997  1.0000
  H   H2139     1.0  0.95061  0.26635  0.43963  1.0000
  Fe  Fe372     1.0  0.91434  0.25021  0.41549  1.0000
  S   S739      1.0  0.90974  0.27095  0.39938  1.0000
  S   S740      1.0  0.89685  0.23953  0.43119  1.0000
  Fe  Fe373     1.0  0.94688  0.24858  0.40796  1.0000
  S   S741      1.0  0.94540  0.26886  0.39105  1.0000
  S   S742      1.0  0.96679  0.23578  0.41612  1.0000
  Fe  Fe374     1.0  0.92595  0.27756  0.40677  1.0000
  S   S743      1.0  0.92480  0.29990  0.40839  1.0000
  Fe  Fe375     1.0  0.92948  0.26075  0.38494  1.0000
  S   S744      1.0  0.92997  0.26126  0.36225  1.0000
  S   S745      1.0  0.92869  0.25788  0.42428  1.0000
  S   S746      1.0  0.93283  0.23935  0.40042  1.0000
  C   C2139     1.0  0.64069  0.23498  0.01702  1.0000
  Fe  Fe376     1.0  0.97366  0.32951  0.46198  1.0000
  H   H2140     1.0  0.60461  0.29179  0.99624  1.0000
  Fe  Fe377     1.0  0.94490  0.34913  0.45739  1.0000
  H   H2141     1.0  0.62287  0.30381  0.99772  1.0000
  S   S747      1.0  0.93259  0.36819  0.44410  1.0000
  H   H2142     1.0  0.00181  0.27385  0.46822  1.0000
  Fe  Fe378     1.0  0.94729  0.31725  0.46695  1.0000
  S   S748      1.0  0.93951  0.29830  0.46641  1.0000
  S   S749      1.0  0.96064  0.34937  0.46976  1.0000
  S   S750      1.0  0.95917  0.33078  0.44778  1.0000
  H   H2143     1.0  0.89880  0.25810  0.37918  1.0000
  H   H2144     1.0  0.64008  0.33241  0.03224  1.0000
  H   H2145     1.0  0.99423  0.29868  0.43238  1.0000
  N   N181      1.0  0.80314  0.34712  0.10597  1.0000
  H   H2146     1.0  0.70571  0.36788  0.01795  1.0000
  C   C2140     1.0  0.68116  0.29171  0.01167  1.0000
  H   H2147     1.0  0.59482  0.27716  0.03774  1.0000
  C   C2141     1.0  0.50496  0.37777  0.99793  1.0000
  S   S751      1.0  0.80412  0.37552  0.13118  1.0000
  C   C2142     1.0  0.62010  0.33189  0.05647  1.0000
  S   S752      1.0  0.54128  0.34537  0.99289  1.0000
  C   C2143     1.0  0.68053  0.25674  0.00501  1.0000
  C   C2144     1.0  0.97970  0.35353  0.31642  1.0000
  C   C2145     1.0  0.98398  0.24963  0.39248  1.0000
  C   C2146     1.0  0.87655  0.22075  0.39990  1.0000
  C   C2147     1.0  0.64270  0.24559  0.02264  1.0000
  H   H2148     1.0  0.67560  0.30288  0.00934  1.0000
  C   C2148     1.0  0.85630  0.39096  0.08439  1.0000
  H   H2149     1.0  0.97542  0.25125  0.38699  1.0000
  S   S753      1.0  0.64916  0.22378  0.08293  1.0000
  H   H2150     1.0  0.66899  0.28498  0.00099  1.0000
  H   H2151     1.0  0.88965  0.38945  0.98790  1.0000
  H   H2152     1.0  0.85542  0.39104  0.07382  1.0000
  H   H2153     1.0  0.64054  0.22431  0.02359  1.0000
  H   H2154     1.0  0.72612  0.38723  0.06926  1.0000
  H   H2155     1.0  0.97504  0.37896  0.34569  1.0000
  C   C2149     1.0  0.66963  0.35517  0.03133  1.0000
  H   H2156     1.0  0.93052  0.22756  0.44394  1.0000
  Fe  Fe379     1.0  0.80374  0.39119  0.14382  1.0000
  H   H2157     1.0  0.67002  0.35734  0.05209  1.0000
  H   H2158     1.0  0.61404  0.32977  0.06778  1.0000
  H   H2159     1.0  0.96699  0.25282  0.43587  1.0000
  H   H2160     1.0  0.53050  0.22037  0.11499  1.0000
  C   C2150     1.0  0.94404  0.37757  0.43009  1.0000
  C   C2151     1.0  0.95915  0.37361  0.42849  1.0000
  C   C2152     1.0  0.69565  0.36415  0.02165  1.0000
  C   C2153     1.0  0.50654  0.33270  0.99054  1.0000
  H   H2161     1.0  0.70056  0.25185  0.01988  1.0000
  H   H2162     1.0  0.96395  0.36470  0.43606  1.0000
  H   H2163     1.0  0.61666  0.21954  0.12410  1.0000
  C   C2154     1.0  0.92824  0.29984  0.42468  1.0000
  C   C2155     1.0  0.92426  0.28960  0.43700  1.0000
  C   C2156     1.0  0.92753  0.28936  0.44985  1.0000
  C   C2157     1.0  0.93457  0.29950  0.45048  1.0000
  C   C2158     1.0  0.93826  0.30993  0.43822  1.0000
  C   C2159     1.0  0.93518  0.31005  0.42532  1.0000
  H   H2164     1.0  0.91840  0.28205  0.43672  1.0000
  H   H2165     1.0  0.92452  0.28135  0.45934  1.0000
  H   H2166     1.0  0.94368  0.31776  0.43856  1.0000
  H   H2167     1.0  0.93845  0.31788  0.41579  1.0000
  H   H2168     1.0  0.74686  0.30658  0.01083  1.0000
  C   C2160     1.0  0.58336  0.26084  0.99840  1.0000
  H   H2169     1.0  0.64384  0.36285  0.99661  1.0000
  H   H2170     1.0  0.95958  0.26578  0.42153  1.0000
  H   H2171     1.0  0.98930  0.36193  0.32821  1.0000
  H   H2172     1.0  0.52197  0.36639  0.00914  1.0000
  C   C2161     1.0  0.66535  0.31385  0.05170  1.0000
  C   C2162     1.0  0.68869  0.36271  0.03609  1.0000
  C   C2163     1.0  0.99386  0.23985  0.41368  1.0000
  H   H2173     1.0  0.89320  0.37419  0.22018  1.0000
  S   S754      1.0  0.57948  0.32037  0.99028  1.0000
  H   H2174     1.0  0.52353  0.30078  0.00833  1.0000
  C   C2164     1.0  0.98258  0.24218  0.40675  1.0000
  H   H2175     1.0  0.60897  0.38235  0.00164  1.0000
  C   C2165     1.0  0.60735  0.22722  0.04008  1.0000
  C   C2166     1.0  0.51107  0.34404  0.02609  1.0000
  N   N182      1.0  0.99167  0.37292  0.35728  1.0000
  H   H2176     1.0  0.97332  0.34437  0.30264  1.0000
  C   C2167     1.0  0.92606  0.30293  0.32795  1.0000
  C   C2168     1.0  0.92924  0.28953  0.32458  1.0000
  C   C2169     1.0  0.93017  0.27698  0.33528  1.0000
  C   C2170     1.0  0.92789  0.27762  0.34954  1.0000
  C   C2171     1.0  0.92442  0.29104  0.35311  1.0000
  C   C2172     1.0  0.92360  0.30374  0.34226  1.0000
  H   H2177     1.0  0.93107  0.28882  0.31358  1.0000
  H   H2178     1.0  0.93277  0.26669  0.33245  1.0000
  H   H2179     1.0  0.92255  0.29162  0.36415  1.0000
  H   H2180     1.0  0.92105  0.31408  0.34496  1.0000
  C   C2173     1.0  0.98762  0.29160  0.43238  1.0000
  C   C2174     1.0  0.61933  0.34384  0.99798  1.0000
  C   C2175     1.0  0.61151  0.34383  0.01203  1.0000
  C   C2176     1.0  0.61529  0.35067  0.02048  1.0000
  C   C2177     1.0  0.62692  0.35758  0.01496  1.0000
  C   C2178     1.0  0.63478  0.35763  0.00090  1.0000
  H   H2181     1.0  0.83816  0.38438  0.11917  1.0000
  H   H2182     1.0  0.60245  0.33862  0.01645  1.0000
  H   H2183     1.0  0.60893  0.35085  0.03122  1.0000
  H   H2184     1.0  0.99096  0.29885  0.47082  1.0000
  H   H2185     1.0  0.87546  0.19728  0.44816  1.0000
  C   C2179     1.0  0.63849  0.23316  0.11541  1.0000
  H   H2186     1.0  0.80833  0.34317  0.08499  1.0000
  H   H2187     1.0  0.60746  0.25117  0.05831  1.0000
  H   H2188     1.0  0.99839  0.33871  0.28786  1.0000
  C   C2180     1.0  0.90708  0.38877  0.26745  1.0000
  C   C2181     1.0  0.63206  0.20410  0.09615  1.0000
  H   H2189     1.0  0.66654  0.32214  0.02914  1.0000
  C   C2182     1.0  0.60544  0.30137  0.07584  1.0000
  C   C2183     1.0  0.59425  0.31182  0.08158  1.0000
  C   C2184     1.0  0.58359  0.32008  0.07392  1.0000
  C   C2185     1.0  0.58396  0.31775  0.06064  1.0000
  C   C2186     1.0  0.59492  0.30696  0.05521  1.0000
  C   C2187     1.0  0.60576  0.29895  0.06265  1.0000
  H   H2190     1.0  0.59394  0.31371  0.09181  1.0000
  H   H2191     1.0  0.57509  0.32834  0.07826  1.0000
  H   H2192     1.0  0.59506  0.30467  0.04535  1.0000
  H   H2193     1.0  0.61437  0.29095  0.05812  1.0000
  C   C2188     1.0  0.64254  0.25947  0.01426  1.0000
  H   H2194     1.0  0.86488  0.24481  0.42121  1.0000
  C   C2189     1.0  0.00090  0.38060  0.27890  1.0000
  C   C2190     1.0  0.64098  0.26250  0.00018  1.0000
  H   H2195     1.0  0.87522  0.21042  0.39950  1.0000
  H   H2196     1.0  0.90783  0.19843  0.40890  1.0000
  C   C2191     1.0  0.76045  0.35735  0.09459  1.0000
  C   C2192     1.0  0.77079  0.36563  0.09195  1.0000
  C   C2193     1.0  0.77172  0.37184  0.10261  1.0000
  C   C2194     1.0  0.76248  0.36960  0.11616  1.0000
  C   C2195     1.0  0.75191  0.36161  0.11869  1.0000
  C   C2196     1.0  0.75079  0.35563  0.10793  1.0000
  H   H2197     1.0  0.77835  0.36696  0.08168  1.0000
  H   H2198     1.0  0.50664  0.34594  0.03707  1.0000
  H   H2199     1.0  0.74468  0.35984  0.12912  1.0000
  H   H2200     1.0  0.74289  0.34915  0.11017  1.0000
  H   H2201     1.0  0.67148  0.26167  0.99937  1.0000
  H   H2202     1.0  0.71896  0.33227  0.99069  1.0000
  H   H2203     1.0  0.95823  0.39002  0.29728  1.0000
  C   C2197     1.0  0.91778  0.38317  0.21232  1.0000
  C   C2198     1.0  0.00008  0.29674  0.46214  1.0000
  H   H2204     1.0  0.70466  0.37844  0.11815  1.0000
  N   N183      1.0  0.52932  0.20304  0.10713  1.0000
  H   H2205     1.0  0.99883  0.28797  0.41140  1.0000
  S   S755      1.0  0.82892  0.38580  0.09379  1.0000
  C   C2199     1.0  0.90166  0.20315  0.41792  1.0000
  C   C2200     1.0  0.70006  0.30206  0.08232  1.0000
  C   C2201     1.0  0.68923  0.29405  0.08841  1.0000
  C   C2202     1.0  0.68582  0.28638  0.08035  1.0000
  C   C2203     1.0  0.69339  0.28650  0.06619  1.0000
  C   C2204     1.0  0.70419  0.29452  0.06011  1.0000
  C   C2205     1.0  0.70743  0.30235  0.06809  1.0000
  H   H2206     1.0  0.68354  0.29371  0.09943  1.0000
  H   H2207     1.0  0.67756  0.28016  0.08518  1.0000
  H   H2208     1.0  0.71011  0.29469  0.04917  1.0000
  H   H2209     1.0  0.71590  0.30834  0.06335  1.0000
  C   C2206     1.0  0.70520  0.32724  0.01159  1.0000
  C   C2207     1.0  0.70345  0.32610  0.02621  1.0000
  C   C2208     1.0  0.71380  0.32936  0.03127  1.0000
  C   C2209     1.0  0.72575  0.33420  0.02171  1.0000
  C   C2210     1.0  0.72767  0.33506  0.00706  1.0000
  C   C2211     1.0  0.71755  0.33134  0.00202  1.0000
  H   H2210     1.0  0.69401  0.32284  0.03369  1.0000
  H   H2211     1.0  0.71242  0.32820  0.04257  1.0000
  H   H2212     1.0  0.88385  0.38817  0.31752  1.0000
  H   H2213     1.0  0.67691  0.24827  0.01424  1.0000
  C   C2212     1.0  0.60579  0.20931  0.09925  1.0000
  C   C2213     1.0  0.61878  0.19962  0.10147  1.0000
  C   C2214     1.0  0.63245  0.21824  0.08855  1.0000
  C   C2215     1.0  0.61945  0.22781  0.08615  1.0000
  C   C2216     1.0  0.60621  0.22335  0.09143  1.0000
  H   H2214     1.0  0.61950  0.23873  0.08057  1.0000
  H   H2215     1.0  0.59618  0.23092  0.08974  1.0000
  H   H2216     1.0  0.91134  0.24106  0.38247  1.0000
  C   C2217     1.0  0.65952  0.32104  0.03974  1.0000
  C   C2218     1.0  0.87070  0.24005  0.41209  1.0000
  H   H2217     1.0  0.60638  0.23253  0.01787  1.0000
  C   C2219     1.0  0.61334  0.23089  0.11954  1.0000
  S   S756      1.0  0.92614  0.37875  0.31474  1.0000
  C   C2220     1.0  0.90376  0.21622  0.41886  1.0000
  C   C2221     1.0  0.89547  0.22259  0.43025  1.0000
  C   C2222     1.0  0.88536  0.21564  0.44086  1.0000
  H   H2218     1.0  0.89877  0.37036  0.28064  1.0000
  C   C2223     1.0  0.92992  0.19626  0.43707  1.0000
  H   H2219     1.0  0.91150  0.22150  0.41059  1.0000
  H   H2220     1.0  0.87882  0.22059  0.44963  1.0000
  C   C2224     1.0  0.52157  0.31199  0.00294  1.0000
  C   C2225     1.0  0.67693  0.35661  0.01697  1.0000
  C   C2226     1.0  0.65620  0.31234  0.06528  1.0000
  H   H2221     1.0  0.98912  0.32056  0.48464  1.0000
  H   H2222     1.0  0.91049  0.22055  0.46392  1.0000
  C   C2227     1.0  0.59450  0.25111  0.11245  1.0000
  Fe  Fe380     1.0  0.57815  0.30396  0.01096  1.0000
  C   C2228     1.0  0.57922  0.27535  0.99881  1.0000
  C   C2229     1.0  0.91878  0.37252  0.23657  1.0000
  C   C2230     1.0  0.84522  0.38760  0.09626  1.0000
  N   N184      1.0  0.62336  0.23932  0.11416  1.0000
  H   H2223     1.0  0.64169  0.22166  0.11480  1.0000
  C   C2231     1.0  0.92732  0.21762  0.44522  1.0000
  C   C2232     1.0  0.51663  0.34089  0.98895  1.0000
  H   H2224     1.0  0.50797  0.19944  0.11139  1.0000
  C   C2233     1.0  0.69211  0.28739  0.01931  1.0000
  H   H2225     1.0  0.71822  0.38876  0.12898  1.0000
  Fe  Fe381     1.0  0.78158  0.38777  0.12881  1.0000
  H   H2226     1.0  0.61313  0.27300  0.04063  1.0000
  C   C2234     1.0  0.57507  0.28559  0.98700  1.0000
  H   H2227     1.0  0.91403  0.33154  0.40914  1.0000
  H   H2228     1.0  0.63997  0.23416  0.12565  1.0000
  H   H2229     1.0  0.74366  0.37714  0.07278  1.0000
  C   C2235     1.0  0.88699  0.22738  0.38951  1.0000
  C   C2236     1.0  0.90132  0.36727  0.22647  1.0000
  H   H2230     1.0  0.80719  0.36802  0.10044  1.0000
  C   C2237     1.0  0.88129  0.24634  0.40157  1.0000
  H   H2231     1.0  0.77980  0.37809  0.10046  1.0000
  H   H2232     1.0  0.73682  0.33891  0.99955  1.0000
  H   H2233     1.0  0.60154  0.27097  0.10228  1.0000
  C   C2238     1.0  0.91297  0.38759  0.35065  1.0000
  N   N185      1.0  0.91273  0.37469  0.22516  1.0000
  H   H2234     1.0  0.57157  0.29676  0.98739  1.0000
  H   H2235     1.0  0.81898  0.35466  0.11100  1.0000
  H   H2236     1.0  0.64414  0.24306  0.03348  1.0000
  C   C2239     1.0  0.81324  0.35665  0.10227  1.0000
  H   H2237     1.0  0.91485  0.36576  0.24674  1.0000
  H   H2238     1.0  0.60792  0.21590  0.04142  1.0000
  C   C2240     1.0  0.63874  0.25203  0.99468  1.0000
  C   C2241     1.0  0.60624  0.27138  0.03438  1.0000
  C   C2242     1.0  0.88346  0.20245  0.44006  1.0000
  H   H2239     1.0  0.92129  0.38138  0.34374  1.0000
  C   C2243     1.0  0.89785  0.37919  0.27147  1.0000
  C   C2244     1.0  0.88758  0.38086  0.26338  1.0000
  N   N186      1.0  0.91129  0.37209  0.40422  1.0000
  C   C2245     1.0  0.90869  0.36722  0.39387  1.0000
  C   C2246     1.0  0.91539  0.36264  0.41605  1.0000
  C   C2247     1.0  0.90961  0.35259  0.39549  1.0000
  C   C2248     1.0  0.91640  0.34794  0.41802  1.0000
  C   C2249     1.0  0.91339  0.34291  0.40770  1.0000
  S   S757      1.0  0.92092  0.38663  0.27649  1.0000
  H   H2240     1.0  0.90579  0.37467  0.38432  1.0000
  H   H2241     1.0  0.91781  0.36644  0.42411  1.0000
  C   C2250     1.0  0.60730  0.24710  0.04939  1.0000
  S   S758      1.0  0.93194  0.33567  0.47567  1.0000
  C   C2251     1.0  0.52584  0.21066  0.11867  1.0000
  H   H2242     1.0  0.71266  0.37792  0.09254  1.0000
  H   H2243     1.0  0.69328  0.36540  0.04337  1.0000
  C   C2252     1.0  0.63105  0.35068  0.99243  1.0000
  H   H2244     1.0  0.98050  0.38807  0.37028  1.0000
  S   S759      1.0  0.63159  0.36576  0.02596  1.0000
  C   C2253     1.0  0.98224  0.34683  0.30513  1.0000
  H   H2245     1.0  0.89359  0.22214  0.38092  1.0000
  H   H2246     1.0  0.97975  0.37831  0.41595  1.0000
  H   H2247     1.0  0.79497  0.35033  0.12727  1.0000
  S   S760      1.0  0.69693  0.38211  0.07093  1.0000
  C   C2254     1.0  0.96824  0.27907  0.44415  1.0000
  H   H2248     1.0  0.65929  0.35198  0.03490  1.0000
  C   C2255     1.0  0.89856  0.38602  0.35407  1.0000
  H   H2249     1.0  0.64206  0.19660  0.09806  1.0000
  C   C2256     1.0  0.64455  0.32678  0.04157  1.0000
  H   H2250     1.0  0.82176  0.35510  0.09246  1.0000
  H   H2251     1.0  0.99795  0.25989  0.37393  1.0000
  S   S761      1.0  0.99785  0.32586  0.45378  1.0000
  C   C2257     1.0  0.64126  0.31811  0.06671  1.0000
  N   N187      1.0  0.63565  0.32534  0.05493  1.0000
  C   C2258     1.0  0.51122  0.36664  0.00801  1.0000
  H   H2252     1.0  0.93420  0.37801  0.24469  1.0000
  N   N188      1.0  0.88913  0.24008  0.39036  1.0000
  H   H2253     1.0  0.63419  0.31667  0.07730  1.0000
  H   H2254     1.0  0.61524  0.32751  0.05028  1.0000
  C   C2259     1.0  0.79162  0.33265  0.09899  1.0000
  C   C2260     1.0  0.99016  0.28564  0.42059  1.0000
  H   H2255     1.0  0.62701  0.26039  0.10420  1.0000
  N   N189      1.0  0.96007  0.30605  0.32939  1.0000
  C   C2261     1.0  0.95838  0.31714  0.33568  1.0000
  C   C2262     1.0  0.95981  0.29251  0.33754  1.0000
  C   C2263     1.0  0.95564  0.31494  0.35057  1.0000
  C   C2264     1.0  0.95729  0.28988  0.35244  1.0000
  C   C2265     1.0  0.95499  0.30122  0.35899  1.0000
  C   C2266     1.0  0.96276  0.30859  0.31379  1.0000
  H   H2256     1.0  0.95891  0.32783  0.32922  1.0000
  H   H2257     1.0  0.96104  0.28371  0.33259  1.0000
  H   H2258     1.0  0.95386  0.32388  0.35551  1.0000
  H   H2259     1.0  0.95657  0.27920  0.35884  1.0000
  H   H2260     1.0  0.95254  0.29941  0.37058  1.0000
  H   H2261     1.0  0.97461  0.30700  0.30908  1.0000
  H   H2262     1.0  0.95814  0.30128  0.31060  1.0000
  H   H2263     1.0  0.95723  0.31963  0.30920  1.0000
  C   C2267     1.0  0.67558  0.35825  0.04094  1.0000
  C   C2268     1.0  0.99092  0.38237  0.36521  1.0000
  C   C2269     1.0  0.91600  0.21359  0.45650  1.0000
  H   H2264     1.0  0.61851  0.34371  0.05251  1.0000
  C   C2270     1.0  0.98144  0.27662  0.42077  1.0000
  Fe  Fe382     1.0  0.63964  0.38585  0.01401  1.0000
  H   H2265     1.0  0.67691  0.30925  0.05043  1.0000
  H   H2266     1.0  0.60610  0.25808  0.01468  1.0000
  C   C2271     1.0  0.80180  0.34112  0.09578  1.0000
  H   H2267     1.0  0.86064  0.22185  0.41966  1.0000
  H   H2268     1.0  0.90735  0.34879  0.38734  1.0000
  S   S762      1.0  0.69113  0.32479  0.00551  1.0000
  C   C2272     1.0  0.91857  0.19252  0.44851  1.0000
  H   H2269     1.0  0.52308  0.34282  0.02347  1.0000
  C   C2273     1.0  0.59878  0.23664  0.11876  1.0000
  C   C2274     1.0  0.69410  0.38946  0.05358  1.0000
  H   H2270     1.0  0.75524  0.31183  0.02166  1.0000
  C   C2275     1.0  0.79439  0.34507  0.11938  1.0000
  N   N190      1.0  0.68442  0.26740  0.00993  1.0000
  C   C2276     1.0  0.84648  0.38738  0.10992  1.0000
  N   N191      1.0  0.68970  0.36120  0.01228  1.0000
  C   C2277     1.0  0.61389  0.29314  0.98746  1.0000
  S   S763      1.0  0.76384  0.37639  0.13023  1.0000
  H   H2271     1.0  0.51078  0.38597  0.99136  1.0000
  C   C2278     1.0  0.99640  0.34363  0.29679  1.0000
  H   H2272     1.0  0.66062  0.30659  0.07462  1.0000
  H   H2273     1.0  0.79015  0.32837  0.09076  1.0000
  C   C2279     1.0  0.89143  0.19631  0.42844  1.0000
  C   C2280     1.0  0.63825  0.23830  0.00314  1.0000
  H   H2274     1.0  0.61046  0.27628  0.02302  1.0000
  S   S764      1.0  0.63363  0.22555  0.99696  1.0000
  H   H2275     1.0  0.89512  0.36483  0.23772  1.0000
  H   H2276     1.0  0.88346  0.25602  0.40268  1.0000
  C   C2281     1.0  0.97660  0.28829  0.44426  1.0000
  C   C2282     1.0  0.61918  0.25359  0.10823  1.0000
  C   C2283     1.0  0.93788  0.38911  0.42030  1.0000
  S   S765      1.0  0.96306  0.31432  0.48043  1.0000
  H   H2277     1.0  0.59100  0.22977  0.12259  1.0000
  H   H2278     1.0  0.51389  0.21417  0.12256  1.0000
  C   C2284     1.0  0.92982  0.37937  0.23544  1.0000
  C   C2285     1.0  0.52915  0.33470  0.99444  1.0000
  H   H2279     1.0  0.88060  0.37330  0.26645  1.0000
  C   C2286     1.0  0.60473  0.25967  0.10719  1.0000
  C   C2287     1.0  0.99129  0.35664  0.31959  1.0000
  C   C2288     1.0  0.78271  0.33044  0.11266  1.0000
  H   H2280     1.0  0.99471  0.38521  0.31492  1.0000
  C   C2289     1.0  0.78409  0.33665  0.12295  1.0000
  C   C2290     1.0  0.60627  0.25102  0.02513  1.0000
  H   H2281     1.0  0.76500  0.29709  0.01319  1.0000
  H   H2282     1.0  0.98350  0.27196  0.41161  1.0000
  H   H2283     1.0  0.77710  0.34759  0.98912  1.0000
  H   H2284     1.0  0.58624  0.25284  0.00759  1.0000
  H   H2285     1.0  0.90616  0.35716  0.22266  1.0000
  H   H2286     1.0  0.91949  0.34052  0.42753  1.0000
  H   H2287     1.0  0.50913  0.33368  0.02572  1.0000
  C   C2291     1.0  0.69651  0.36404  0.99699  1.0000
  H   H2288     1.0  0.77685  0.33548  0.13344  1.0000
  H   H2289     1.0  0.77437  0.32437  0.11507  1.0000
  C   C2292     1.0  0.76793  0.32905  0.00028  1.0000
  S   S766      1.0  0.58874  0.20470  0.10684  1.0000
  H   H2290     1.0  0.58329  0.25566  0.11157  1.0000
  N   N192      1.0  0.91171  0.20121  0.45798  1.0000
  H   H2291     1.0  0.59107  0.38277  0.00002  1.0000
  H   H2292     1.0  0.82725  0.38086  0.18650  1.0000
  C   C2293     1.0  0.96807  0.38130  0.41712  1.0000
  S   S767      1.0  0.58028  0.28042  0.01382  1.0000
  H   H2293     1.0  0.70753  0.26952  0.02836  1.0000
  C   C2294     1.0  0.71393  0.38286  0.11164  1.0000
  H   H2294     1.0  0.69502  0.29513  0.02316  1.0000
  H   H2295     1.0  0.68996  0.25195  0.99732  1.0000
  H   H2296     1.0  0.95984  0.27639  0.45351  1.0000
  C   C2295     1.0  0.70590  0.38882  0.04186  1.0000
  H   H2297     1.0  0.64609  0.23860  0.10640  1.0000
  C   C2296     1.0  0.93430  0.20891  0.43545  1.0000
  C   C2297     1.0  0.96148  0.26418  0.43238  1.0000
  H   H2298     1.0  0.70854  0.36170  0.99530  1.0000
  H   H2299     1.0  0.97451  0.29281  0.45352  1.0000
  C   C2298     1.0  0.60642  0.23655  0.02688  1.0000
  C   C2299     1.0  0.91023  0.38745  0.40234  1.0000
  C   C2300     1.0  0.60090  0.38729  0.99481  1.0000
  N   N193      1.0  0.73027  0.38804  0.08884  1.0000
  C   C2301     1.0  0.62427  0.29988  0.98824  1.0000
  S   S768      1.0  0.66038  0.38523  0.99738  1.0000
  N   N194      1.0  0.76370  0.31756  0.99903  1.0000
  C   C2302     1.0  0.53165  0.32020  0.00135  1.0000
  H   H2300     1.0  0.76648  0.33120  0.01071  1.0000
  C   C2303     1.0  0.77398  0.33836  0.98811  1.0000
  C   C2304     1.0  0.71852  0.38258  0.09712  1.0000
  C   C2305     1.0  0.82981  0.39026  0.17856  1.0000
  C   C2306     1.0  0.54715  0.19234  0.08886  1.0000
  H   H2301     1.0  0.96918  0.37231  0.36467  1.0000
  H   H2302     1.0  0.94302  0.21203  0.42659  1.0000
  H   H2303     1.0  0.97955  0.36001  0.35361  1.0000
  C   C2307     1.0  0.50903  0.31821  0.99749  1.0000
  H   H2304     1.0  0.98065  0.37393  0.28784  1.0000
  H   H2305     1.0  0.91319  0.38473  0.20316  1.0000
  H   H2306     1.0  0.69275  0.37553  0.99210  1.0000
  C   C2308     1.0  0.97823  0.37094  0.35520  1.0000
  C   C2309     1.0  0.98638  0.38224  0.28643  1.0000
  H   H2307     1.0  0.96562  0.38856  0.31237  1.0000
  H   H2308     1.0  0.55148  0.20489  0.10084  1.0000
  S   S769      1.0  0.81241  0.38513  0.16405  1.0000
  H   H2309     1.0  0.64747  0.30698  0.98949  1.0000
  H   H2310     1.0  0.71686  0.38481  0.04349  1.0000
  H   H2311     1.0  0.54377  0.28785  0.98875  1.0000
  H   H2312     1.0  0.64157  0.27297  0.99343  1.0000
  C   C2310     1.0  0.73527  0.38718  0.07379  1.0000
  H   H2313     1.0  0.50410  0.19533  0.16353  1.0000
  C   C2311     1.0  0.93485  0.38824  0.22246  1.0000
  C   C2312     1.0  0.99677  0.25444  0.38507  1.0000
  C   C2313     1.0  0.72148  0.38870  0.11768  1.0000
  C   C2314     1.0  0.92892  0.39004  0.21077  1.0000
  H   H2314     1.0  0.90710  0.39057  0.41281  1.0000
  C   C2315     1.0  0.00026  0.39071  0.31887  1.0000
  H   H2315     1.0  0.90455  0.19194  0.47990  1.0000
  H   H2316     1.0  0.52784  0.28356  0.98745  1.0000
  S   S770      1.0  0.00091  0.24133  0.61403  1.0000
  H   H2317     1.0  0.78064  0.34284  0.96510  1.0000
  Fe  Fe383     1.0  0.81681  0.35902  0.89285  1.0000
  S   S771      1.0  0.89947  0.20725  0.58437  1.0000
  H   H2318     1.0  0.86149  0.38950  0.92604  1.0000
  H   H2319     1.0  0.56596  0.22309  0.93696  1.0000
  C   C2316     1.0  0.99863  0.24106  0.64221  1.0000
  H   H2320     1.0  0.84581  0.35837  0.86810  1.0000
  Fe  Fe384     1.0  0.99646  0.32764  0.58173  1.0000
  C   C2317     1.0  0.58425  0.25661  0.98594  1.0000
  H   H2321     1.0  0.63713  0.35079  0.98154  1.0000
  H   H2322     1.0  0.88705  0.36176  0.87327  1.0000
  C   C2318     1.0  0.96274  0.24708  0.69076  1.0000
  C   C2319     1.0  0.94202  0.26103  0.70431  1.0000
  H   H2323     1.0  0.75137  0.37694  0.92243  1.0000
  Fe  Fe385     1.0  0.72075  0.31548  0.95730  1.0000
  S   S772      1.0  0.70530  0.31310  0.94565  1.0000
  S   S773      1.0  0.74471  0.31317  0.94680  1.0000
  Fe  Fe386     1.0  0.69108  0.33264  0.95328  1.0000
  C   C2320     1.0  0.62083  0.37797  0.95388  1.0000
  Fe  Fe387     1.0  0.69467  0.30088  0.96671  1.0000
  S   S774      1.0  0.68569  0.28088  0.97190  1.0000
  S   S775      1.0  0.70714  0.33595  0.96343  1.0000
  S   S776      1.0  0.71164  0.30113  0.97778  1.0000
  H   H2324     1.0  0.98153  0.35980  0.50457  1.0000
  S   S777      1.0  0.62196  0.25545  0.96461  1.0000
  H   H2325     1.0  0.82283  0.37261  0.94186  1.0000
  Fe  Fe388     1.0  0.62832  0.22254  0.94837  1.0000
  S   S778      1.0  0.62223  0.24514  0.93598  1.0000
  C   C2321     1.0  0.94664  0.34988  0.80309  1.0000
  Fe  Fe389     1.0  0.63830  0.25006  0.94521  1.0000
  S   S779      1.0  0.65284  0.26571  0.93346  1.0000
  Fe  Fe390     1.0  0.60668  0.24840  0.95659  1.0000
  S   S780      1.0  0.58402  0.26161  0.95789  1.0000
  S   S781      1.0  0.64614  0.22703  0.95561  1.0000
  S   S782      1.0  0.61186  0.22564  0.96866  1.0000
  C   C2322     1.0  0.68154  0.23761  0.92750  1.0000
  C   C2323     1.0  0.75214  0.37195  0.91352  1.0000
  H   H2326     1.0  0.93182  0.24502  0.68408  1.0000
  Fe  Fe391     1.0  0.79608  0.36691  0.91960  1.0000
  S   S783      1.0  0.77625  0.36371  0.93745  1.0000
  S   S784      1.0  0.81773  0.35140  0.91608  1.0000
  S   S785      1.0  0.91533  0.38336  0.80317  1.0000
  S   S786      1.0  0.92777  0.36762  0.77065  1.0000
  S   S787      1.0  0.90689  0.35216  0.81007  1.0000
  S   S788      1.0  0.94368  0.33388  0.51085  1.0000
  C   C2324     1.0  0.61161  0.36962  0.96378  1.0000
  S   S789      1.0  0.94229  0.33676  0.59407  1.0000
  C   C2325     1.0  0.62302  0.38970  0.95733  1.0000
  C   C2326     1.0  0.95989  0.23381  0.67481  1.0000
  Fe  Fe392     1.0  0.95453  0.32129  0.71442  1.0000
  S   S790      1.0  0.95331  0.32315  0.69170  1.0000
  S   S791      1.0  0.93413  0.32468  0.73183  1.0000
  Fe  Fe393     1.0  0.98757  0.31432  0.70761  1.0000
  S   S792      1.0  0.98921  0.31541  0.68456  1.0000
  H   H2327     1.0  0.81569  0.38467  0.96216  1.0000
  Fe  Fe394     1.0  0.97128  0.33494  0.68593  1.0000
  S   S793      1.0  0.97285  0.35515  0.66913  1.0000
  Fe  Fe395     1.0  0.97130  0.30332  0.69209  1.0000
  S   S794      1.0  0.97601  0.28462  0.68140  1.0000
  S   S795      1.0  0.97093  0.33487  0.70840  1.0000
  S   S796      1.0  0.97117  0.30042  0.71534  1.0000
  Fe  Fe396     1.0  0.95131  0.23034  0.61861  1.0000
  S   S797      1.0  0.93510  0.25126  0.61986  1.0000
  S   S798      1.0  0.94721  0.21024  0.61505  1.0000
  Fe  Fe397     1.0  0.97683  0.24321  0.61745  1.0000
  S   S799      1.0  0.96271  0.26508  0.61772  1.0000
  H   H2328     1.0  0.99467  0.27897  0.63446  1.0000
  Fe  Fe398     1.0  0.94720  0.25366  0.63497  1.0000
  S   S800      1.0  0.93689  0.26416  0.65392  1.0000
  Fe  Fe399     1.0  0.95220  0.26075  0.60275  1.0000
  S   S801      1.0  0.94783  0.27641  0.58266  1.0000
  S   S802      1.0  0.96190  0.23163  0.63558  1.0000
  S   S803      1.0  0.96785  0.23996  0.60066  1.0000
  C   C2327     1.0  0.98184  0.30797  0.51209  1.0000
  C   C2328     1.0  0.96506  0.28153  0.67171  1.0000
  C   C2329     1.0  0.94997  0.28665  0.67439  1.0000
  C   C2330     1.0  0.94142  0.28181  0.66832  1.0000
  C   C2331     1.0  0.94791  0.27214  0.65925  1.0000
  C   C2332     1.0  0.96307  0.26779  0.65586  1.0000
  C   C2333     1.0  0.97157  0.27226  0.66226  1.0000
  H   H2329     1.0  0.94483  0.29373  0.68172  1.0000
  H   H2330     1.0  0.92970  0.28526  0.67097  1.0000
  H   H2331     1.0  0.96821  0.26040  0.64885  1.0000
  H   H2332     1.0  0.98322  0.26821  0.66020  1.0000
  C   C2334     1.0  0.58967  0.20301  0.95724  1.0000
  H   H2333     1.0  0.67182  0.37981  0.92342  1.0000
  C   C2335     1.0  0.93334  0.35888  0.55986  1.0000
  C   C2336     1.0  0.98887  0.35995  0.66867  1.0000
  H   H2334     1.0  0.67881  0.21056  0.93458  1.0000
  H   H2335     1.0  0.90062  0.38702  0.97059  1.0000
  H   H2336     1.0  0.67000  0.35463  0.96628  1.0000
  C   C2337     1.0  0.66875  0.37909  0.93484  1.0000
  N   N195      1.0  0.93721  0.36587  0.54592  1.0000
  C   C2338     1.0  0.94184  0.32067  0.59058  1.0000
  C   C2339     1.0  0.93722  0.30974  0.60183  1.0000
  C   C2340     1.0  0.93882  0.29615  0.59936  1.0000
  C   C2341     1.0  0.94457  0.29365  0.58556  1.0000
  C   C2342     1.0  0.94853  0.30478  0.57420  1.0000
  C   C2343     1.0  0.94736  0.31823  0.57675  1.0000
  H   H2337     1.0  0.93302  0.31157  0.61256  1.0000
  H   H2338     1.0  0.93568  0.28757  0.60817  1.0000
  H   H2339     1.0  0.95300  0.30286  0.56353  1.0000
  H   H2340     1.0  0.95086  0.32666  0.56804  1.0000
  C   C2344     1.0  0.95625  0.33925  0.51651  1.0000
  H   H2341     1.0  0.98815  0.23847  0.64434  1.0000
  N   N196      1.0  0.60729  0.38443  0.98048  1.0000
  C   C2345     1.0  0.96698  0.33898  0.53570  1.0000
  C   C2346     1.0  0.95728  0.33454  0.53084  1.0000
  H   H2342     1.0  0.96765  0.33535  0.54673  1.0000
  H   H2343     1.0  0.95052  0.32749  0.53821  1.0000
  H   H2344     1.0  0.64707  0.29807  0.95637  1.0000
  H   H2345     1.0  0.90122  0.27111  0.57355  1.0000
  C   C2347     1.0  0.57570  0.28133  0.97456  1.0000
  H   H2346     1.0  0.92122  0.26090  0.70120  1.0000
  C   C2348     1.0  0.92987  0.35415  0.76148  1.0000
  C   C2349     1.0  0.94287  0.35096  0.75144  1.0000
  C   C2350     1.0  0.94447  0.34150  0.74275  1.0000
  C   C2351     1.0  0.93302  0.33525  0.74383  1.0000
  C   C2352     1.0  0.92009  0.33820  0.75410  1.0000
  C   C2353     1.0  0.91852  0.34758  0.76294  1.0000
  H   H2347     1.0  0.95172  0.35597  0.75026  1.0000
  H   H2348     1.0  0.95455  0.33918  0.73512  1.0000
  H   H2349     1.0  0.91117  0.33338  0.75506  1.0000
  H   H2350     1.0  0.90841  0.35001  0.77061  1.0000
  C   C2354     1.0  0.92546  0.19722  0.59351  1.0000
  H   H2351     1.0  0.59715  0.20405  0.96288  1.0000
  C   C2355     1.0  0.98889  0.28212  0.58941  1.0000
  C   C2356     1.0  0.57173  0.20012  0.94171  1.0000
  Fe  Fe400     1.0  0.62895  0.23233  0.97477  1.0000
  C   C2357     1.0  0.95136  0.37398  0.79185  1.0000
  H   H2352     1.0  0.92148  0.34347  0.57470  1.0000
  C   C2358     1.0  0.64689  0.30848  0.97821  1.0000
  C   C2359     1.0  0.92444  0.34903  0.56363  1.0000
  C   C2360     1.0  0.88265  0.36534  0.89455  1.0000
  S   S804      1.0  0.84723  0.37257  0.91773  1.0000
  H   H2353     1.0  0.57311  0.28926  0.96519  1.0000
  C   C2361     1.0  0.72727  0.36856  0.92390  1.0000
  S   S805      1.0  0.93333  0.38778  0.90685  1.0000
  C   C2362     1.0  0.94742  0.38036  0.84796  1.0000
  C   C2363     1.0  0.65419  0.23501  0.90922  1.0000
  N   N197      1.0  0.99500  0.35736  0.63136  1.0000
  C   C2364     1.0  0.93896  0.24783  0.68889  1.0000
  N   N198      1.0  0.58113  0.21495  0.95055  1.0000
  H   H2354     1.0  0.95292  0.23615  0.66702  1.0000
  N   N199      1.0  0.95373  0.24324  0.68497  1.0000
  S   S806      1.0  0.86506  0.35372  0.81795  1.0000
  S   S807      1.0  0.88698  0.38159  0.79341  1.0000
  H   H2355     1.0  0.97075  0.23556  0.66839  1.0000
  H   H2356     1.0  0.97446  0.24365  0.68748  1.0000
  C   C2365     1.0  0.76768  0.34961  0.93977  1.0000
  C   C2366     1.0  0.75397  0.34968  0.94906  1.0000
  C   C2367     1.0  0.74680  0.33861  0.95124  1.0000
  C   C2368     1.0  0.75335  0.32730  0.94424  1.0000
  C   C2369     1.0  0.76713  0.32718  0.93503  1.0000
  C   C2370     1.0  0.77424  0.33836  0.93270  1.0000
  H   H2357     1.0  0.74888  0.35831  0.95463  1.0000
  H   H2358     1.0  0.73635  0.33872  0.95854  1.0000
  H   H2359     1.0  0.77231  0.31842  0.92962  1.0000
  H   H2360     1.0  0.78485  0.33817  0.92556  1.0000
  C   C2371     1.0  0.67674  0.27698  0.96084  1.0000
  C   C2372     1.0  0.66958  0.26555  0.96630  1.0000
  C   C2373     1.0  0.66221  0.26212  0.95798  1.0000
  C   C2374     1.0  0.66203  0.26999  0.94403  1.0000
  C   C2375     1.0  0.66930  0.28135  0.93845  1.0000
  C   C2376     1.0  0.67656  0.28491  0.94687  1.0000
  H   H2361     1.0  0.96828  0.30454  0.59603  1.0000
  H   H2362     1.0  0.65680  0.25325  0.96234  1.0000
  H   H2363     1.0  0.66927  0.28746  0.92763  1.0000
  H   H2364     1.0  0.68211  0.29369  0.94251  1.0000
  C   C2377     1.0  0.82571  0.38569  0.95431  1.0000
  N   N200      1.0  0.92996  0.37430  0.72159  1.0000
  C   C2378     1.0  0.83401  0.34683  0.86177  1.0000
  H   H2365     1.0  0.93627  0.36809  0.52429  1.0000
  C   C2379     1.0  0.61029  0.21348  0.92314  1.0000
  C   C2380     1.0  0.60105  0.21203  0.91536  1.0000
  C   C2381     1.0  0.99571  0.34358  0.63915  1.0000
  C   C2382     1.0  0.98869  0.28459  0.62616  1.0000
  H   H2366     1.0  0.61078  0.22403  0.92365  1.0000
  H   H2367     1.0  0.59438  0.22151  0.91002  1.0000
  C   C2383     1.0  0.94049  0.36081  0.69869  1.0000
  H   H2368     1.0  0.92476  0.26430  0.58085  1.0000
  H   H2369     1.0  0.65795  0.30397  0.97237  1.0000
  H   H2370     1.0  0.98239  0.37647  0.62044  1.0000
  H   H2371     1.0  0.54436  0.33363  0.95962  1.0000
  C   C2384     1.0  0.91976  0.34613  0.55301  1.0000
  N   N201      1.0  0.67237  0.23169  0.92239  1.0000
  H   H2372     1.0  0.65688  0.37636  0.97562  1.0000
  Fe  Fe401     1.0  0.94891  0.33419  0.48734  1.0000
  N   N202      1.0  0.98493  0.28705  0.60278  1.0000
  C   C2385     1.0  0.91252  0.20767  0.59338  1.0000
  H   H2373     1.0  0.51469  0.35205  0.98342  1.0000
  C   C2386     1.0  0.73466  0.34159  0.91785  1.0000
  C   C2387     1.0  0.93372  0.20975  0.60658  1.0000
  C   C2388     1.0  0.92082  0.22027  0.60639  1.0000
  C   C2389     1.0  0.91026  0.21918  0.59988  1.0000
  H   H2374     1.0  0.86331  0.36181  0.84459  1.0000
  H   H2375     1.0  0.92878  0.37720  0.88094  1.0000
  H   H2376     1.0  0.91884  0.22910  0.61147  1.0000
  H   H2377     1.0  0.90029  0.22733  0.59985  1.0000
  H   H2378     1.0  0.94580  0.38365  0.53193  1.0000
  C   C2390     1.0  0.93004  0.37251  0.84045  1.0000
  C   C2391     1.0  0.60480  0.37309  0.97706  1.0000
  H   H2379     1.0  0.68262  0.24853  0.92110  1.0000
  H   H2380     1.0  0.80656  0.38052  0.85092  1.0000
  C   C2392     1.0  0.82971  0.37893  0.94280  1.0000
  C   C2393     1.0  0.57231  0.21365  0.94276  1.0000
  H   H2381     1.0  0.93427  0.22416  0.56915  1.0000
  H   H2382     1.0  0.98635  0.33879  0.64203  1.0000
  C   C2394     1.0  0.72036  0.34703  0.92433  1.0000
  C   C2395     1.0  0.90067  0.38931  0.98084  1.0000
  C   C2396     1.0  0.67214  0.21744  0.92720  1.0000
  C   C2397     1.0  0.67190  0.36583  0.94423  1.0000
  C   C2398     1.0  0.58203  0.22916  0.95128  1.0000
  C   C2399     1.0  0.63781  0.29664  0.96518  1.0000
  C   C2400     1.0  0.88706  0.37091  0.90357  1.0000
  C   C2401     1.0  0.94449  0.23997  0.58021  1.0000
  C   C2402     1.0  0.94695  0.37578  0.54215  1.0000
  H   H2383     1.0  0.90256  0.38153  0.90532  1.0000
  C   C2403     1.0  0.65784  0.39061  0.95493  1.0000
  H   H2384     1.0  0.96413  0.35221  0.49604  1.0000
  S   S808      1.0  0.97997  0.33974  0.59721  1.0000
  H   H2385     1.0  0.66974  0.25924  0.97701  1.0000
  C   C2404     1.0  0.85156  0.38835  0.93396  1.0000
  C   C2405     1.0  0.66294  0.21164  0.92311  1.0000
  H   H2386     1.0  0.96089  0.22243  0.68059  1.0000
  C   C2406     1.0  0.90211  0.37283  0.87534  1.0000
  C   C2407     1.0  0.52517  0.32970  0.95632  1.0000
  S   S809      1.0  0.63037  0.20259  0.94045  1.0000
  H   H2387     1.0  0.63739  0.25463  0.98388  1.0000
  H   H2388     1.0  0.96425  0.25967  0.70448  1.0000
  C   C2408     1.0  0.99268  0.37226  0.65906  1.0000
  H   H2389     1.0  0.91701  0.38906  0.82730  1.0000
  H   H2390     1.0  0.90669  0.38615  0.92864  1.0000
  H   H2391     1.0  0.99645  0.31694  0.52564  1.0000
  H   H2392     1.0  0.90797  0.37338  0.86432  1.0000
  C   C2409     1.0  0.93289  0.25684  0.69856  1.0000
  H   H2393     1.0  0.84202  0.33909  0.82899  1.0000
  H   H2394     1.0  0.95842  0.36968  0.54095  1.0000
  H   H2395     1.0  0.72429  0.37908  0.92636  1.0000
  H   H2396     1.0  0.57350  0.23788  0.94685  1.0000
  N   N203      1.0  0.53338  0.30223  0.97240  1.0000
  C   C2410     1.0  0.90850  0.26086  0.57237  1.0000
  H   H2397     1.0  0.61001  0.36029  0.96137  1.0000
  C   C2411     1.0  0.77179  0.32386  0.97350  1.0000
  S   S810      1.0  0.79444  0.37314  0.89662  1.0000
  H   H2398     1.0  0.00124  0.28178  0.72035  1.0000
  C   C2412     1.0  0.96272  0.37362  0.81437  1.0000
  C   C2413     1.0  0.71660  0.36059  0.92740  1.0000
  C   C2414     1.0  0.97476  0.35275  0.51192  1.0000
  C   C2415     1.0  0.51673  0.31966  0.95913  1.0000
  C   C2416     1.0  0.91875  0.38525  0.87881  1.0000
  N   N204      1.0  0.90620  0.37851  0.88419  1.0000
  C   C2417     1.0  0.96976  0.30356  0.61729  1.0000
  Fe  Fe402     1.0  0.98559  0.35924  0.58100  1.0000
  H   H2399     1.0  0.64698  0.24206  0.90243  1.0000
  H   H2400     1.0  0.89415  0.25407  0.56402  1.0000
  H   H2401     1.0  0.76212  0.30587  0.98481  1.0000
  H   H2402     1.0  0.91587  0.37695  0.74187  1.0000
  C   C2418     1.0  0.53761  0.28778  0.98100  1.0000
  C   C2419     1.0  0.58053  0.26685  0.97399  1.0000
  H   H2403     1.0  0.93992  0.34605  0.81380  1.0000
  C   C2420     1.0  0.00169  0.27070  0.70463  1.0000
  C   C2421     1.0  0.84314  0.38765  0.82264  1.0000
  H   H2404     1.0  0.67655  0.23857  0.93876  1.0000
  H   H2405     1.0  0.91320  0.33822  0.55574  1.0000
  C   C2422     1.0  0.99251  0.28016  0.61325  1.0000
  C   C2423     1.0  0.93596  0.19825  0.60010  1.0000
  C   C2424     1.0  0.93269  0.36307  0.53543  1.0000
  H   H2406     1.0  0.97908  0.28368  0.58520  1.0000
  S   S811      1.0  0.98738  0.37810  0.58804  1.0000
  H   H2407     1.0  0.66343  0.25183  0.90994  1.0000
  C   C2425     1.0  0.66783  0.36490  0.95898  1.0000
  S   S812      1.0  0.98055  0.32710  0.56990  1.0000
  C   C2426     1.0  0.85382  0.35071  0.83517  1.0000
  H   H2408     1.0  0.93750  0.26838  0.71147  1.0000
  H   H2409     1.0  0.56520  0.19913  0.93504  1.0000
  H   H2410     1.0  0.52171  0.34056  0.95045  1.0000
  S   S813      1.0  0.80589  0.38545  0.91768  1.0000
  S   S814      1.0  0.88617  0.37692  0.82773  1.0000
  N   N205      1.0  0.63616  0.30133  0.97727  1.0000
  H   H2411     1.0  0.95127  0.22948  0.57809  1.0000
  H   H2412     1.0  0.75615  0.34553  0.90939  1.0000
  C   C2427     1.0  0.94052  0.36957  0.84850  1.0000
  C   C2428     1.0  0.65390  0.22050  0.91408  1.0000
  C   C2429     1.0  0.92182  0.25696  0.57646  1.0000
  H   H2413     1.0  0.94188  0.23903  0.59194  1.0000
  S   S815      1.0  0.92278  0.35870  0.83956  1.0000
  C   C2430     1.0  0.52106  0.30586  0.96718  1.0000
  S   S816      1.0  0.98856  0.35300  0.53203  1.0000
  S   S817      1.0  0.82828  0.37669  0.88858  1.0000
  H   H2414     1.0  0.95102  0.24829  0.57495  1.0000
  N   N206      1.0  0.95183  0.36231  0.80306  1.0000
  C   C2431     1.0  0.81333  0.38439  0.85561  1.0000
  C   C2432     1.0  0.84292  0.34330  0.83749  1.0000
  S   S818      1.0  0.96846  0.36171  0.56913  1.0000
  H   H2415     1.0  0.99518  0.34194  0.68533  1.0000
  H   H2416     1.0  0.93965  0.35255  0.79528  1.0000
  C   C2433     1.0  0.94754  0.37060  0.69994  1.0000
  C   C2434     1.0  0.97393  0.29883  0.60452  1.0000
  H   H2417     1.0  0.92301  0.34969  0.70849  1.0000
  H   H2418     1.0  0.50669  0.32262  0.95544  1.0000
  C   C2435     1.0  0.61892  0.20130  0.93014  1.0000
  H   H2419     1.0  0.94700  0.37421  0.78293  1.0000
  H   H2420     1.0  0.82696  0.37502  0.83167  1.0000
  H   H2421     1.0  0.66242  0.20043  0.92727  1.0000
  H   H2422     1.0  0.99064  0.27588  0.70363  1.0000
  C   C2436     1.0  0.83314  0.34128  0.85074  1.0000
  H   H2423     1.0  0.91090  0.23055  0.56178  1.0000
  C   C2437     1.0  0.92304  0.36464  0.72047  1.0000
  C   C2438     1.0  0.99436  0.32335  0.49135  1.0000
  C   C2439     1.0  0.84493  0.35425  0.85956  1.0000
  H   H2424     1.0  0.73777  0.33085  0.91585  1.0000
  H   H2425     1.0  0.95724  0.37284  0.69200  1.0000
  C   C2440     1.0  0.85491  0.35611  0.84627  1.0000
  C   C2441     1.0  0.99802  0.35138  0.67778  1.0000
  H   H2426     1.0  0.88120  0.37016  0.91464  1.0000
  C   C2442     1.0  0.95704  0.25608  0.70046  1.0000
  H   H2427     1.0  0.77332  0.32167  0.96308  1.0000
  H   H2428     1.0  0.75049  0.38046  0.90384  1.0000
  Fe  Fe403     1.0  0.82738  0.37057  0.91207  1.0000
  C   C2443     1.0  0.96500  0.34836  0.50705  1.0000
  H   H2429     1.0  0.99666  0.28818  0.58137  1.0000
  H   H2430     1.0  0.64386  0.32017  0.97359  1.0000
  C   C2444     1.0  0.66058  0.37726  0.96430  1.0000
  C   C2445     1.0  0.83129  0.38336  0.83297  1.0000
  Fe  Fe404     1.0  0.80611  0.39024  0.89439  1.0000
  Fe  Fe405     1.0  0.96452  0.34103  0.58396  1.0000
  S   S819      1.0  0.68094  0.35056  0.93733  1.0000
  C   C2446     1.0  0.66353  0.24047  0.91352  1.0000
  S   S820      1.0  0.96741  0.38958  0.87323  1.0000
  C   C2447     1.0  0.60018  0.19841  0.91461  1.0000
  H   H2431     1.0  0.97191  0.31207  0.50763  1.0000
  H   H2432     1.0  0.95585  0.37798  0.85382  1.0000
  C   C2448     1.0  0.97582  0.34800  0.52625  1.0000
  H   H2433     1.0  0.92028  0.38994  0.86714  1.0000
  H   H2434     1.0  0.60761  0.28283  0.97460  1.0000
  C   C2449     1.0  0.90457  0.25136  0.56696  1.0000
  H   H2435     1.0  0.98555  0.37904  0.65213  1.0000
  S   S821      1.0  0.67928  0.32038  0.97352  1.0000
  C   C2450     1.0  0.92824  0.35770  0.70906  1.0000
  C   C2451     1.0  0.92727  0.23465  0.56976  1.0000
  H   H2436     1.0  0.94362  0.35888  0.85480  1.0000
  H   H2437     1.0  0.95600  0.34107  0.80031  1.0000
  N   N207      1.0  0.93097  0.24398  0.57517  1.0000
  H   H2438     1.0  0.93298  0.38157  0.73841  1.0000
  C   C2452     1.0  0.54191  0.31191  0.96940  1.0000
  Fe  Fe406     1.0  0.88363  0.36446  0.81352  1.0000
  H   H2439     1.0  0.97395  0.29973  0.63825  1.0000
  Fe  Fe407     1.0  0.91054  0.37013  0.79093  1.0000
  S   S822      1.0  0.82096  0.34448  0.87795  1.0000
  C   C2453     1.0  0.89026  0.36622  0.88036  1.0000
  H   H2440     1.0  0.82478  0.33549  0.85240  1.0000
  Fe  Fe408     1.0  0.98583  0.34771  0.55593  1.0000
  Fe  Fe409     1.0  0.90972  0.36634  0.82254  1.0000
  C   C2454     1.0  0.99860  0.32115  0.51418  1.0000
  H   H2441     1.0  0.90858  0.38039  0.98594  1.0000
  H   H2442     1.0  0.99694  0.33927  0.71224  1.0000
  C   C2455     1.0  0.89903  0.37739  0.89821  1.0000
  C   C2456     1.0  0.91403  0.23820  0.56558  1.0000
  H   H2443     1.0  0.95783  0.35276  0.82311  1.0000
  H   H2444     1.0  0.62919  0.28590  0.95451  1.0000
  H   H2445     1.0  0.91364  0.36195  0.72860  1.0000
  S   S823      1.0  0.58749  0.19719  0.90560  1.0000
  H   H2446     1.0  0.94762  0.38488  0.71246  1.0000
  C   C2457     1.0  0.98154  0.36546  0.62673  1.0000
  H   H2447     1.0  0.96711  0.37339  0.82326  1.0000
  H   H2448     1.0  0.96083  0.31277  0.61865  1.0000
  C   C2458     1.0  0.53789  0.32581  0.96142  1.0000
  C   C2459     1.0  0.96166  0.38582  0.80333  1.0000
  H   H2449     1.0  0.70547  0.36483  0.93250  1.0000
  C   C2460     1.0  0.62765  0.28984  0.96404  1.0000
  N   N208      1.0  0.99174  0.31782  0.50577  1.0000
  H   H2450     1.0  0.51417  0.29827  0.96972  1.0000
  C   C2461     1.0  0.74503  0.34991  0.91434  1.0000
  N   N209      1.0  0.82555  0.38924  0.84474  1.0000
  H   H2451     1.0  0.76342  0.36540  0.91132  1.0000
  C   C2462     1.0  0.77595  0.33570  0.97464  1.0000
  N   N210      1.0  0.74129  0.36316  0.91749  1.0000
  H   H2452     1.0  0.94456  0.38193  0.55056  1.0000
  H   H2453     1.0  0.62641  0.37527  0.94363  1.0000
  H   H2454     1.0  0.87337  0.36030  0.89858  1.0000
  C   C2463     1.0  0.97714  0.29630  0.62822  1.0000
  H   H2455     1.0  0.92066  0.35071  0.53039  1.0000
  H   H2456     1.0  0.81750  0.37541  0.86396  1.0000
  C   C2464     1.0  0.95756  0.36196  0.81416  1.0000
  C   C2465     1.0  0.92584  0.38640  0.83263  1.0000
  H   H2457     1.0  0.97805  0.30693  0.52384  1.0000
  H   H2458     1.0  0.54452  0.28044  0.97394  1.0000
  Fe  Fe410     1.0  0.69694  0.32153  0.98303  1.0000
  C   C2466     1.0  0.84260  0.38029  0.93260  1.0000
  H   H2459     1.0  0.64642  0.21616  0.91118  1.0000
  C   C2467     1.0  0.92385  0.35321  0.53882  1.0000
  H   H2460     1.0  0.58064  0.22974  0.96255  1.0000
  H   H2461     1.0  0.97238  0.36638  0.63620  1.0000
  C   C2468     1.0  0.61561  0.28809  0.97529  1.0000
  H   H2462     1.0  0.94466  0.35550  0.68979  1.0000
  H   H2463     1.0  0.71220  0.34073  0.92704  1.0000
  C   C2469     1.0  0.94208  0.37730  0.71153  1.0000
  H   H2464     1.0  0.97910  0.35999  0.61969  1.0000
  H   H2465     1.0  0.00158  0.27118  0.61161  1.0000
  H   H2466     1.0  0.59278  0.23142  0.94514  1.0000
  H   H2467     1.0  0.93722  0.36075  0.56818  1.0000
  C   C2470     1.0  0.92416  0.38193  0.73329  1.0000
  H   H2468     1.0  0.69263  0.23066  0.92691  1.0000
  C   C2471     1.0  0.95600  0.38601  0.79193  1.0000
  H   H2469     1.0  0.99762  0.24023  0.66427  1.0000
  H   H2470     1.0  0.55161  0.30910  0.97361  1.0000
  H   H2471     1.0  0.84779  0.38280  0.81343  1.0000
  H   H2472     1.0  0.99400  0.27045  0.59112  1.0000
  H   H2473     1.0  0.98733  0.29722  0.50980  1.0000
  H   H2474     1.0  0.59788  0.36635  0.98478  1.0000
  H   H2475     1.0  0.52845  0.19562  0.86028  1.0000
  H   H2476     1.0  0.58802  0.24541  0.98552  1.0000
  C   C2472     1.0  0.76553  0.31492  0.98585  1.0000
  Fe  Fe411     1.0  0.72489  0.55998  0.09128  1.0000
  H   H2477     1.0  0.84079  0.42818  0.01742  1.0000
  S   S824      1.0  0.73536  0.54205  0.10736  1.0000
  Fe  Fe412     1.0  0.69899  0.56777  0.07713  1.0000
  S   S825      1.0  0.67751  0.56536  0.07540  1.0000
  S   S826      1.0  0.72077  0.55275  0.07368  1.0000
  Fe  Fe413     1.0  0.66497  0.50474  0.05090  1.0000
  S   S827      1.0  0.65036  0.52350  0.03968  1.0000
  S   S828      1.0  0.68231  0.50630  0.06068  1.0000
  Fe  Fe414     1.0  0.65134  0.48293  0.04612  1.0000
  S   S829      1.0  0.63569  0.49991  0.03447  1.0000
  S   S830      1.0  0.65195  0.45933  0.05104  1.0000
  Fe  Fe415     1.0  0.65485  0.51003  0.02372  1.0000
  Fe  Fe416     1.0  0.63286  0.51145  0.05158  1.0000
  S   S831      1.0  0.61080  0.52054  0.06363  1.0000
  S   S832      1.0  0.67082  0.49202  0.03402  1.0000
  S   S833      1.0  0.64707  0.49375  0.06418  1.0000
  H   H2478     1.0  0.91571  0.49874  0.15282  1.0000
  S   S834      1.0  0.62632  0.40392  0.00068  1.0000
  H   H2479     1.0  0.91621  0.46379  0.19893  1.0000
  H   H2480     1.0  0.69205  0.42687  0.02813  1.0000
  Fe  Fe417     1.0  0.63350  0.41816  0.00994  1.0000
  S   S835      1.0  0.62034  0.43882  0.01600  1.0000
  H   H2481     1.0  0.94323  0.47527  0.19234  1.0000
  C   C2473     1.0  0.97879  0.50166  0.33317  1.0000
  H   H2482     1.0  0.99674  0.51080  0.33149  1.0000
  S   S836      1.0  0.93210  0.55970  0.32232  1.0000
  H   H2483     1.0  0.91446  0.42172  0.99649  1.0000
  S   S837      1.0  0.94126  0.43545  0.34494  1.0000
  Fe  Fe418     1.0  0.96031  0.41460  0.37613  1.0000
  S   S838      1.0  0.93987  0.43153  0.37912  1.0000
  H   H2484     1.0  0.59529  0.46919  0.03451  1.0000
  Fe  Fe419     1.0  0.93250  0.42146  0.36571  1.0000
  S   S839      1.0  0.90980  0.41769  0.37235  1.0000
  Fe  Fe420     1.0  0.95048  0.44402  0.35826  1.0000
  S   S840      1.0  0.94860  0.46763  0.35616  1.0000
  S   S841      1.0  0.97159  0.42775  0.35633  1.0000
  H   H2485     1.0  0.71132  0.51488  0.04818  1.0000
  H   H2486     1.0  0.79132  0.53518  0.10505  1.0000
  H   H2487     1.0  0.99579  0.56981  0.31993  1.0000
  S   S842      1.0  0.95041  0.54872  0.38070  1.0000
  Fe  Fe421     1.0  0.80140  0.52356  0.14043  1.0000
  S   S843      1.0  0.82351  0.52846  0.12980  1.0000
  S   S844      1.0  0.78228  0.54260  0.13979  1.0000
  Fe  Fe422     1.0  0.81294  0.49134  0.14453  1.0000
  S   S845      1.0  0.83551  0.49402  0.13366  1.0000
  S   S846      1.0  0.81109  0.46817  0.15265  1.0000
  Fe  Fe423     1.0  0.83185  0.51019  0.14676  1.0000
  S   S847      1.0  0.85218  0.50573  0.15551  1.0000
  Fe  Fe424     1.0  0.82531  0.51187  0.11797  1.0000
  S   S848      1.0  0.83486  0.51508  0.09451  1.0000
  S   S849      1.0  0.80950  0.50657  0.15870  1.0000
  S   S850      1.0  0.80297  0.50789  0.12755  1.0000
  Fe  Fe425     1.0  0.78935  0.41668  0.12404  1.0000
  S   S851      1.0  0.78129  0.44064  0.12161  1.0000
  H   H2488     1.0  0.66139  0.53353  0.05682  1.0000
  Fe  Fe426     1.0  0.89537  0.41519  0.19070  1.0000
  S   S852      1.0  0.89048  0.42275  0.21087  1.0000
  S   S853      1.0  0.91767  0.40987  0.17724  1.0000
  Fe  Fe427     1.0  0.87228  0.43907  0.20236  1.0000
  S   S854      1.0  0.86696  0.46282  0.20077  1.0000
  S   S855      1.0  0.87887  0.43289  0.18133  1.0000
  Fe  Fe428     1.0  0.92041  0.52990  0.19465  1.0000
  S   S856      1.0  0.92098  0.52061  0.21774  1.0000
  S   S857      1.0  0.94099  0.53079  0.17783  1.0000
  Fe  Fe429     1.0  0.88761  0.53528  0.19970  1.0000
  S   S858      1.0  0.88523  0.52731  0.22347  1.0000
  S   S859      1.0  0.86776  0.54245  0.18985  1.0000
  Fe  Fe430     1.0  0.90238  0.53925  0.22161  1.0000
  S   S860      1.0  0.90039  0.55183  0.23822  1.0000
  Fe  Fe431     1.0  0.90400  0.50952  0.21773  1.0000
  S   S861      1.0  0.90335  0.48648  0.22823  1.0000
  S   S862      1.0  0.90273  0.54927  0.19830  1.0000
  S   S863      1.0  0.90553  0.51680  0.19417  1.0000
  Fe  Fe432     1.0  0.95751  0.46611  0.14859  1.0000
  S   S864      1.0  0.93973  0.47298  0.13671  1.0000
  S   S865      1.0  0.95246  0.45626  0.17198  1.0000
  Fe  Fe433     1.0  0.97960  0.47697  0.12275  1.0000
  S   S866      1.0  0.96381  0.48487  0.10830  1.0000
  H   H2489     1.0  0.97584  0.55157  0.45260  1.0000
  Fe  Fe434     1.0  0.94817  0.49300  0.12698  1.0000
  S   S867      1.0  0.93139  0.51369  0.12630  1.0000
  Fe  Fe435     1.0  0.95669  0.46417  0.11916  1.0000
  S   S868      1.0  0.95287  0.45038  0.10683  1.0000
  S   S869      1.0  0.96459  0.48687  0.14057  1.0000
  S   S870      1.0  0.97390  0.45548  0.13199  1.0000
  Fe  Fe436     1.0  0.88954  0.44211  0.05584  1.0000
  S   S871      1.0  0.90081  0.43427  0.07431  1.0000
  S   S872      1.0  0.89838  0.44399  0.03224  1.0000
  Fe  Fe437     1.0  0.86000  0.45030  0.07407  1.0000
  S   S873      1.0  0.86805  0.44319  0.09422  1.0000
  S   S874      1.0  0.83676  0.46047  0.07379  1.0000
  Fe  Fe438     1.0  0.88631  0.45391  0.08179  1.0000
  S   S875      1.0  0.89013  0.46766  0.09418  1.0000
  Fe  Fe439     1.0  0.88168  0.42422  0.08547  1.0000
  Fe  Fe440     1.0  0.97317  0.53574  0.37855  1.0000
  S   S876      1.0  0.87700  0.46275  0.06225  1.0000
  S   S877      1.0  0.87165  0.43025  0.06649  1.0000
  S   S878      1.0  0.87203  0.40843  0.00650  1.0000
  C   C2474     1.0  0.89068  0.43429  0.02531  1.0000
  C   C2475     1.0  0.88810  0.42082  0.03298  1.0000
  C   C2476     1.0  0.88227  0.41301  0.02715  1.0000
  C   C2477     1.0  0.87877  0.41874  0.01374  1.0000
  C   C2478     1.0  0.88110  0.43234  0.00620  1.0000
  C   C2479     1.0  0.88722  0.44002  0.01189  1.0000
  H   H2490     1.0  0.89103  0.41620  0.04323  1.0000
  C   C2480     1.0  0.97383  0.56250  0.44568  1.0000
  C   C2481     1.0  0.98600  0.51293  0.32937  1.0000
  H   H2491     1.0  0.88922  0.45043  0.00591  1.0000
  C   C2482     1.0  0.93559  0.45560  0.10292  1.0000
  C   C2483     1.0  0.92431  0.46470  0.11034  1.0000
  C   C2484     1.0  0.91038  0.46830  0.10761  1.0000
  C   C2485     1.0  0.90771  0.46302  0.09726  1.0000
  C   C2486     1.0  0.91902  0.45409  0.08965  1.0000
  C   C2487     1.0  0.93294  0.45027  0.09258  1.0000
  H   H2492     1.0  0.92623  0.46884  0.11830  1.0000
  H   H2493     1.0  0.90170  0.47509  0.11363  1.0000
  H   H2494     1.0  0.91713  0.45021  0.08144  1.0000
  H   H2495     1.0  0.94169  0.44329  0.08673  1.0000
  C   C2488     1.0  0.93819  0.52924  0.16184  1.0000
  C   C2489     1.0  0.92407  0.53123  0.16003  1.0000
  C   C2490     1.0  0.92191  0.52753  0.14837  1.0000
  C   C2491     1.0  0.93388  0.52186  0.13854  1.0000
  C   C2492     1.0  0.94796  0.52102  0.13971  1.0000
  C   C2493     1.0  0.95013  0.52470  0.15135  1.0000
  H   H2496     1.0  0.91480  0.53539  0.16775  1.0000
  H   H2497     1.0  0.91098  0.52843  0.14739  1.0000
  H   H2498     1.0  0.95721  0.51726  0.13174  1.0000
  H   H2499     1.0  0.96105  0.52357  0.15245  1.0000
  C   C2494     1.0  0.92759  0.42245  0.17605  1.0000
  C   C2495     1.0  0.92680  0.42746  0.18807  1.0000
  C   C2496     1.0  0.93489  0.43745  0.18697  1.0000
  C   C2497     1.0  0.94332  0.44285  0.17373  1.0000
  C   C2498     1.0  0.94405  0.43786  0.16174  1.0000
  C   C2499     1.0  0.93639  0.42751  0.16294  1.0000
  H   H2500     1.0  0.95066  0.44183  0.15151  1.0000
  H   H2501     1.0  0.93715  0.42359  0.15365  1.0000
  C   C2500     1.0  0.87779  0.46887  0.20803  1.0000
  C   C2501     1.0  0.88534  0.45969  0.21829  1.0000
  C   C2502     1.0  0.89326  0.46511  0.22446  1.0000
  C   C2503     1.0  0.89360  0.47969  0.22040  1.0000
  C   C2504     1.0  0.88599  0.48880  0.21019  1.0000
  C   C2505     1.0  0.87828  0.48337  0.20390  1.0000
  H   H2502     1.0  0.88480  0.44852  0.22173  1.0000
  H   H2503     1.0  0.89903  0.45802  0.23247  1.0000
  H   H2504     1.0  0.88560  0.50014  0.20744  1.0000
  H   H2505     1.0  0.87234  0.49052  0.19608  1.0000
  C   C2506     1.0  0.67996  0.39490  0.05134  1.0000
  H   H2506     1.0  0.93008  0.49983  0.16896  1.0000
  H   H2507     1.0  0.98375  0.43136  0.40240  1.0000
  C   C2507     1.0  0.70252  0.53401  0.98770  1.0000
  C   C2508     1.0  0.54221  0.57074  0.03905  1.0000
  H   H2508     1.0  0.61607  0.48855  0.07370  1.0000
  H   H2509     1.0  0.70941  0.51519  0.00327  1.0000
  C   C2509     1.0  0.85645  0.51641  0.16459  1.0000
  C   C2510     1.0  0.86925  0.51135  0.16983  1.0000
  C   C2511     1.0  0.87302  0.51932  0.17730  1.0000
  C   C2512     1.0  0.86407  0.53253  0.17954  1.0000
  C   C2513     1.0  0.85138  0.53769  0.17409  1.0000
  C   C2514     1.0  0.84755  0.52966  0.16668  1.0000
  H   H2510     1.0  0.87618  0.50108  0.16831  1.0000
  H   H2511     1.0  0.88276  0.51516  0.18146  1.0000
  H   H2512     1.0  0.84438  0.54790  0.17574  1.0000
  H   H2513     1.0  0.83771  0.53373  0.16264  1.0000
  C   C2515     1.0  0.80366  0.46100  0.14281  1.0000
  C   C2516     1.0  0.79412  0.46969  0.13415  1.0000
  C   C2517     1.0  0.78722  0.46341  0.12768  1.0000
  C   C2518     1.0  0.78982  0.44844  0.12988  1.0000
  C   C2519     1.0  0.79952  0.43983  0.13836  1.0000
  C   C2520     1.0  0.80654  0.44609  0.14464  1.0000
  H   H2514     1.0  0.79172  0.48121  0.13274  1.0000
  H   H2515     1.0  0.77975  0.47016  0.12108  1.0000
  H   H2516     1.0  0.80137  0.42832  0.14041  1.0000
  H   H2517     1.0  0.81384  0.43931  0.15135  1.0000
  C   C2521     1.0  0.83427  0.50050  0.08835  1.0000
  C   C2522     1.0  0.82646  0.49026  0.09721  1.0000
  C   C2523     1.0  0.82636  0.47842  0.09234  1.0000
  C   C2524     1.0  0.83439  0.47661  0.07875  1.0000
  C   C2525     1.0  0.84215  0.48686  0.06987  1.0000
  C   C2526     1.0  0.84193  0.49890  0.07460  1.0000
  H   H2518     1.0  0.82070  0.49129  0.10790  1.0000
  H   H2519     1.0  0.82048  0.47047  0.09933  1.0000
  H   H2520     1.0  0.84855  0.48541  0.05944  1.0000
  H   H2521     1.0  0.84806  0.50674  0.06777  1.0000
  H   H2522     1.0  0.80650  0.42851  0.07298  1.0000
  C   C2527     1.0  0.96181  0.47204  0.36189  1.0000
  C   C2528     1.0  0.95936  0.48571  0.36456  1.0000
  C   C2529     1.0  0.96981  0.48943  0.36911  1.0000
  H   H2523     1.0  0.97618  0.51605  0.17615  1.0000
  S   S879      1.0  0.93547  0.58684  0.28591  1.0000
  C   C2530     1.0  0.91152  0.42060  0.30446  1.0000
  H   H2524     1.0  0.94933  0.49342  0.36314  1.0000
  H   H2525     1.0  0.96044  0.54001  0.31652  1.0000
  H   H2526     1.0  0.92006  0.42503  0.29638  1.0000
  C   C2531     1.0  0.93749  0.55685  0.33834  1.0000
  C   C2532     1.0  0.95157  0.55735  0.33840  1.0000
  C   C2533     1.0  0.95563  0.55476  0.35144  1.0000
  C   C2534     1.0  0.94547  0.55211  0.36437  1.0000
  C   C2535     1.0  0.93130  0.55208  0.36425  1.0000
  C   C2536     1.0  0.92739  0.55420  0.35126  1.0000
  S   S880      1.0  0.98376  0.52438  0.36063  1.0000
  H   H2527     1.0  0.99905  0.53445  0.31555  1.0000
  H   H2528     1.0  0.92344  0.55000  0.37423  1.0000
  H   H2529     1.0  0.91648  0.55385  0.35123  1.0000
  C   C2537     1.0  0.92435  0.56427  0.25794  1.0000
  C   C2538     1.0  0.91302  0.56032  0.25490  1.0000
  C   C2539     1.0  0.91547  0.55435  0.24301  1.0000
  Fe  Fe441     1.0  0.99319  0.50659  0.37710  1.0000
  H   H2530     1.0  0.90220  0.56224  0.26160  1.0000
  H   H2531     1.0  0.80775  0.45053  0.10359  1.0000
  H   H2532     1.0  0.96574  0.47851  0.17232  1.0000
  C   C2540     1.0  0.60197  0.53602  0.05324  1.0000
  C   C2541     1.0  0.58891  0.54412  0.05966  1.0000
  C   C2542     1.0  0.58211  0.55697  0.05171  1.0000
  C   C2543     1.0  0.58831  0.56176  0.03730  1.0000
  C   C2544     1.0  0.60120  0.55344  0.03078  1.0000
  C   C2545     1.0  0.60808  0.54061  0.03875  1.0000
  H   H2533     1.0  0.58415  0.54057  0.07086  1.0000
  H   H2534     1.0  0.57206  0.56306  0.05677  1.0000
  H   H2535     1.0  0.60602  0.55705  0.01960  1.0000
  H   H2536     1.0  0.61815  0.53435  0.03370  1.0000
  C   C2546     1.0  0.64352  0.45379  0.04086  1.0000
  C   C2547     1.0  0.64262  0.43941  0.04411  1.0000
  C   C2548     1.0  0.63579  0.43472  0.03626  1.0000
  C   C2549     1.0  0.62963  0.44445  0.02528  1.0000
  C   C2550     1.0  0.63055  0.45882  0.02200  1.0000
  C   C2551     1.0  0.63760  0.46346  0.02970  1.0000
  H   H2537     1.0  0.64711  0.43188  0.05278  1.0000
  H   H2538     1.0  0.63487  0.42368  0.03905  1.0000
  H   H2539     1.0  0.62588  0.46635  0.01344  1.0000
  H   H2540     1.0  0.63850  0.47447  0.02690  1.0000
  H   H2541     1.0  0.99382  0.41844  0.33485  1.0000
  C   C2552     1.0  0.74845  0.54274  0.11603  1.0000
  C   C2553     1.0  0.75536  0.52988  0.12392  1.0000
  C   C2554     1.0  0.76590  0.52976  0.13099  1.0000
  C   C2555     1.0  0.76947  0.54255  0.13044  1.0000
  C   C2556     1.0  0.76255  0.55547  0.12255  1.0000
  C   C2557     1.0  0.75220  0.55556  0.11519  1.0000
  H   H2542     1.0  0.75248  0.51994  0.12467  1.0000
  H   H2543     1.0  0.77093  0.51979  0.13725  1.0000
  H   H2544     1.0  0.76526  0.56541  0.12210  1.0000
  H   H2545     1.0  0.74700  0.56552  0.10907  1.0000
  C   C2558     1.0  0.68018  0.52251  0.06561  1.0000
  C   C2559     1.0  0.69019  0.52373  0.07254  1.0000
  C   C2560     1.0  0.68940  0.53686  0.07561  1.0000
  C   C2561     1.0  0.67845  0.54875  0.07198  1.0000
  C   C2562     1.0  0.66817  0.54743  0.06544  1.0000
  C   C2563     1.0  0.66910  0.53436  0.06217  1.0000
  H   H2546     1.0  0.69867  0.51455  0.07541  1.0000
  H   H2547     1.0  0.69714  0.53770  0.08100  1.0000
  H   H2548     1.0  0.65969  0.55662  0.06262  1.0000
  H   H2549     1.0  0.94556  0.47594  0.39832  1.0000
  C   C2564     1.0  0.91178  0.41926  0.98774  1.0000
  H   H2550     1.0  0.59101  0.58808  0.06128  1.0000
  C   C2565     1.0  0.60532  0.45916  0.05248  1.0000
  S   S881      1.0  0.99123  0.54650  0.37549  1.0000
  H   H2551     1.0  0.67380  0.42768  0.03897  1.0000
  H   H2552     1.0  0.54879  0.57865  0.00290  1.0000
  H   H2553     1.0  0.92708  0.47924  0.20588  1.0000
  H   H2554     1.0  0.73975  0.39826  0.11391  1.0000
  H   H2555     1.0  0.94716  0.52067  0.32335  1.0000
  H   H2556     1.0  0.85446  0.52290  0.22442  1.0000
  N   N211      1.0  0.89376  0.40609  0.31152  1.0000
  Fe  Fe442     1.0  0.86349  0.41803  0.19084  1.0000
  Fe  Fe443     1.0  0.86322  0.41920  0.98670  1.0000
  H   H2557     1.0  0.51055  0.56111  0.05824  1.0000
  N   N212      1.0  0.85529  0.46523  0.15566  1.0000
  C   C2566     1.0  0.86555  0.47143  0.14528  1.0000
  C   C2567     1.0  0.84805  0.45704  0.15250  1.0000
  C   C2568     1.0  0.86890  0.46933  0.13134  1.0000
  C   C2569     1.0  0.85107  0.45480  0.13866  1.0000
  C   C2570     1.0  0.86159  0.46099  0.12803  1.0000
  C   C2571     1.0  0.85120  0.46819  0.17000  1.0000
  H   H2558     1.0  0.87087  0.47838  0.14766  1.0000
  H   H2559     1.0  0.83963  0.45245  0.16063  1.0000
  H   H2560     1.0  0.87678  0.47448  0.12302  1.0000
  H   H2561     1.0  0.84496  0.44865  0.13618  1.0000
  H   H2562     1.0  0.86385  0.45967  0.11714  1.0000
  H   H2563     1.0  0.84964  0.45831  0.17833  1.0000
  H   H2564     1.0  0.85970  0.47216  0.17215  1.0000
  H   H2565     1.0  0.84096  0.47657  0.17103  1.0000
  N   N213      1.0  0.85192  0.45728  0.02811  1.0000
  C   C2572     1.0  0.84999  0.44483  0.03785  1.0000
  C   C2573     1.0  0.84977  0.45957  0.01462  1.0000
  C   C2574     1.0  0.84594  0.43420  0.03417  1.0000
  C   C2575     1.0  0.85838  0.39134  0.11163  1.0000
  C   C2576     1.0  0.84364  0.43647  0.02049  1.0000
  H   H2566     1.0  0.98391  0.49092  0.33809  1.0000
  H   H2567     1.0  0.85169  0.44306  0.04850  1.0000
  H   H2568     1.0  0.74755  0.39734  0.08833  1.0000
  H   H2569     1.0  0.84490  0.42413  0.04176  1.0000
  H   H2570     1.0  0.94252  0.45460  0.39247  1.0000
  C   C2577     1.0  0.89231  0.42137  0.14485  1.0000
  H   H2571     1.0  0.87683  0.39267  0.36604  1.0000
  H   H2572     1.0  0.84374  0.45114  0.99997  1.0000
  H   H2573     1.0  0.63394  0.53376  0.06665  1.0000
  N   N214      1.0  0.88625  0.51325  0.11837  1.0000
  C   C2578     1.0  0.87148  0.51689  0.11983  1.0000
  C   C2579     1.0  0.89498  0.50649  0.10778  1.0000
  C   C2580     1.0  0.86506  0.51334  0.11083  1.0000
  C   C2581     1.0  0.88889  0.50277  0.09860  1.0000
  C   C2582     1.0  0.87382  0.50613  0.10024  1.0000
  C   C2583     1.0  0.89288  0.51711  0.12779  1.0000
  H   H2574     1.0  0.86453  0.52253  0.12802  1.0000
  H   H2575     1.0  0.90673  0.50384  0.10644  1.0000
  H   H2576     1.0  0.85336  0.51622  0.11200  1.0000
  H   H2577     1.0  0.89579  0.49718  0.09035  1.0000
  H   H2578     1.0  0.86892  0.50321  0.09327  1.0000
  H   H2579     1.0  0.88494  0.51913  0.13783  1.0000
  H   H2580     1.0  0.90207  0.50833  0.13087  1.0000
  N   N215      1.0  0.61067  0.47506  0.06350  1.0000
  C   C2584     1.0  0.60462  0.48666  0.05419  1.0000
  C   C2585     1.0  0.95816  0.51830  0.32493  1.0000
  C   C2586     1.0  0.59896  0.48476  0.04365  1.0000
  C   C2587     1.0  0.98717  0.53817  0.31955  1.0000
  C   C2588     1.0  0.96187  0.39272  0.40721  1.0000
  H   H2581     1.0  0.90150  0.47978  0.15975  1.0000
  H   H2582     1.0  0.98661  0.45311  0.40785  1.0000
  C   C2589     1.0  0.84864  0.49118  0.22453  1.0000
  H   H2583     1.0  0.59449  0.49397  0.03607  1.0000
  H   H2584     1.0  0.91919  0.42701  0.10830  1.0000
  C   C2590     1.0  0.85716  0.46776  0.03199  1.0000
  C   C2591     1.0  0.97679  0.45340  0.40475  1.0000
  S   S882      1.0  0.85106  0.42179  0.17356  1.0000
  H   H2585     1.0  0.91315  0.42998  0.32081  1.0000
  C   C2592     1.0  0.96479  0.50439  0.33090  1.0000
  S   S883      1.0  0.64479  0.40005  0.02495  1.0000
  H   H2586     1.0  0.99255  0.57016  0.34991  1.0000
  N   N216      1.0  0.54028  0.57274  0.02554  1.0000
  H   H2587     1.0  0.92220  0.56924  0.26688  1.0000
  C   C2593     1.0  0.82771  0.40669  0.15591  1.0000
  H   H2588     1.0  0.96780  0.49995  0.37125  1.0000
  H   H2589     1.0  0.62838  0.47142  0.07318  1.0000
  H   H2590     1.0  0.68087  0.46238  0.02582  1.0000
  H   H2591     1.0  0.93447  0.44110  0.19631  1.0000
  H   H2592     1.0  0.85462  0.47862  0.02508  1.0000
  C   C2594     1.0  0.97964  0.50562  0.17338  1.0000
  H   H2593     1.0  0.95131  0.58062  0.43537  1.0000
  C   C2595     1.0  0.97385  0.48446  0.17118  1.0000
  C   C2596     1.0  0.95207  0.45406  0.39620  1.0000
  C   C2597     1.0  0.71110  0.52512  0.04056  1.0000
  N   N217      1.0  0.82630  0.43402  0.09869  1.0000
  C   C2598     1.0  0.83311  0.42427  0.09031  1.0000
  C   C2599     1.0  0.81285  0.44235  0.09746  1.0000
  C   C2600     1.0  0.82613  0.42219  0.08089  1.0000
  H   H2594     1.0  0.93382  0.49369  0.19299  1.0000
  C   C2601     1.0  0.83344  0.43579  0.10892  1.0000
  H   H2595     1.0  0.84393  0.41800  0.09097  1.0000
  H   H2596     1.0  0.83143  0.41414  0.07458  1.0000
  H   H2597     1.0  0.83625  0.44647  0.10539  1.0000
  H   H2598     1.0  0.82606  0.43499  0.11965  1.0000
  H   H2599     1.0  0.84350  0.42734  0.10997  1.0000
  N   N218      1.0  0.71030  0.55134  0.02111  1.0000
  C   C2602     1.0  0.71847  0.54772  0.03117  1.0000
  C   C2603     1.0  0.70254  0.54212  0.02057  1.0000
  C   C2604     1.0  0.71890  0.53461  0.04111  1.0000
  C   C2605     1.0  0.70275  0.52892  0.03033  1.0000
  H   H2600     1.0  0.92010  0.56738  0.20685  1.0000
  C   C2606     1.0  0.71052  0.56480  0.01035  1.0000
  H   H2601     1.0  0.72471  0.55496  0.03154  1.0000
  H   H2602     1.0  0.69622  0.54491  0.01249  1.0000
  S   S884      1.0  0.97296  0.40221  0.39287  1.0000
  H   H2603     1.0  0.69647  0.52167  0.03000  1.0000
  H   H2604     1.0  0.66001  0.44734  0.99432  1.0000
  H   H2605     1.0  0.71964  0.56301  0.00102  1.0000
  H   H2606     1.0  0.96386  0.48829  0.39970  1.0000
  C   C2607     1.0  0.99667  0.57966  0.34402  1.0000
  C   C2608     1.0  0.55166  0.57721  0.01327  1.0000
  H   H2607     1.0  0.89731  0.41799  0.11119  1.0000
  N   N219      1.0  0.97954  0.52647  0.32320  1.0000
  H   H2608     1.0  0.67020  0.42948  0.01385  1.0000
  S   S885      1.0  0.98068  0.51703  0.39540  1.0000
  H   H2609     1.0  0.98325  0.54702  0.31093  1.0000
  S   S886      1.0  0.83911  0.42572  0.98873  1.0000
  H   H2610     1.0  0.88056  0.40247  0.03302  1.0000
  C   C2609     1.0  0.53158  0.56650  0.05100  1.0000
  H   H2611     1.0  0.68425  0.43917  0.04005  1.0000
  H   H2612     1.0  0.86914  0.46429  0.03097  1.0000
  C   C2610     1.0  0.67605  0.52534  0.99519  1.0000
  H   H2613     1.0  0.60892  0.57660  0.04236  1.0000
  C   C2611     1.0  0.52790  0.57058  0.02353  1.0000
  H   H2614     1.0  0.88331  0.40960  0.37590  1.0000
  H   H2615     1.0  0.93164  0.54717  0.22539  1.0000
  H   H2616     1.0  0.85085  0.47993  0.22984  1.0000
  H   H2617     1.0  0.78568  0.51984  0.10417  1.0000
  Fe  Fe444     1.0  0.87468  0.40833  0.21877  1.0000
  C   C2612     1.0  0.90824  0.40613  0.98948  1.0000
  H   H2618     1.0  0.85193  0.46867  0.04321  1.0000
  C   C2613     1.0  0.80549  0.44048  0.08825  1.0000
  H   H2619     1.0  0.55197  0.57254  0.04063  1.0000
  H   H2620     1.0  0.68610  0.50763  0.00990  1.0000
  C   C2614     1.0  0.97529  0.44110  0.40165  1.0000
  C   C2615     1.0  0.84141  0.41058  0.17087  1.0000
  H   H2621     1.0  0.92025  0.42341  0.19828  1.0000
  N   N220      1.0  0.96615  0.46570  0.40363  1.0000
  N   N221      1.0  0.79609  0.43385  0.18006  1.0000
  C   C2616     1.0  0.78603  0.44549  0.17513  1.0000
  C   C2617     1.0  0.79588  0.42040  0.17932  1.0000
  C   C2618     1.0  0.77551  0.44384  0.16910  1.0000
  S   S887      1.0  0.99559  0.48333  0.37767  1.0000
  C   C2619     1.0  0.77539  0.43018  0.16808  1.0000
  C   C2620     1.0  0.80786  0.43599  0.18502  1.0000
  H   H2622     1.0  0.78655  0.45623  0.17517  1.0000
  H   H2623     1.0  0.80387  0.41118  0.18316  1.0000
  H   H2624     1.0  0.76796  0.45317  0.16462  1.0000
  C   C2621     1.0  0.70065  0.52151  0.99807  1.0000
  H   H2625     1.0  0.74000  0.39648  0.06721  1.0000
  H   H2626     1.0  0.81644  0.43939  0.17566  1.0000
  H   H2627     1.0  0.80375  0.44439  0.19138  1.0000
  H   H2628     1.0  0.81299  0.42598  0.19181  1.0000
  H   H2629     1.0  0.86930  0.41321  0.14533  1.0000
  C   C2622     1.0  0.68939  0.39772  0.02573  1.0000
  C   C2623     1.0  0.89921  0.42048  0.12030  1.0000
  C   C2624     1.0  0.90457  0.42662  0.14347  1.0000
  C   C2625     1.0  0.91161  0.42561  0.11858  1.0000
  C   C2626     1.0  0.91426  0.42877  0.13022  1.0000
  H   H2630     1.0  0.63723  0.54130  0.07955  1.0000
  H   H2631     1.0  0.79464  0.44688  0.08770  1.0000
  H   H2632     1.0  0.50719  0.56474  0.03364  1.0000
  C   C2627     1.0  0.89549  0.40178  0.24745  1.0000
  H   H2633     1.0  0.69106  0.58005  0.12733  1.0000
  C   C2628     1.0  0.99240  0.40227  0.32518  1.0000
  H   H2634     1.0  0.90141  0.57559  0.21218  1.0000
  N   N222      1.0  0.61827  0.55253  0.07163  1.0000
  C   C2629     1.0  0.61868  0.55890  0.05751  1.0000
  C   C2630     1.0  0.60845  0.55882  0.08207  1.0000
  H   H2635     1.0  0.88103  0.40468  0.33285  1.0000
  H   H2636     1.0  0.60600  0.44834  0.05166  1.0000
  H   H2637     1.0  0.67080  0.39543  0.06039  1.0000
  C   C2631     1.0  0.00145  0.40306  0.28317  1.0000
  H   H2638     1.0  0.62638  0.55390  0.04920  1.0000
  H   H2639     1.0  0.92389  0.43274  0.12898  1.0000
  C   C2632     1.0  0.93045  0.58621  0.21410  1.0000
  H   H2640     1.0  0.55356  0.58756  0.01368  1.0000
  H   H2641     1.0  0.95799  0.50189  0.17942  1.0000
  C   C2633     1.0  0.66500  0.46512  0.99887  1.0000
  C   C2634     1.0  0.95271  0.57274  0.41703  1.0000
  H   H2642     1.0  0.85149  0.46933  0.00678  1.0000
  C   C2635     1.0  0.73787  0.39357  0.09473  1.0000
  H   H2643     1.0  0.80278  0.52349  0.09334  1.0000
  C   C2636     1.0  0.59932  0.47090  0.04282  1.0000
  N   N223      1.0  0.67617  0.44489  0.02090  1.0000
  H   H2644     1.0  0.82357  0.41016  0.14632  1.0000
  C   C2637     1.0  0.85073  0.51509  0.22146  1.0000
  N   N224      1.0  0.99488  0.58587  0.33040  1.0000
  H   H2645     1.0  0.98553  0.54248  0.32912  1.0000
  H   H2646     1.0  0.56205  0.56906  0.01352  1.0000
  C   C2638     1.0  0.81215  0.43023  0.08001  1.0000
  C   C2639     1.0  0.86809  0.39516  0.08607  1.0000
  N   N225      1.0  0.85339  0.50095  0.22833  1.0000
  H   H2647     1.0  0.78581  0.40769  0.17236  1.0000
  H   H2648     1.0  0.90193  0.46211  0.18296  1.0000
  C   C2640     1.0  0.83619  0.41465  0.15830  1.0000
  H   H2649     1.0  0.83856  0.42413  0.15041  1.0000
  C   C2641     1.0  0.84173  0.49535  0.21307  1.0000
  C   C2642     1.0  0.84344  0.51969  0.21027  1.0000
  C   C2643     1.0  0.83920  0.50970  0.20585  1.0000
  H   H2650     1.0  0.83879  0.48739  0.20954  1.0000
  H   H2651     1.0  0.84149  0.53090  0.20479  1.0000
  H   H2652     1.0  0.83414  0.51306  0.19674  1.0000
  N   N226      1.0  0.92365  0.48211  0.18506  1.0000
  C   C2644     1.0  0.92375  0.49167  0.17218  1.0000
  C   C2645     1.0  0.91604  0.47154  0.18886  1.0000
  C   C2646     1.0  0.91565  0.49109  0.16297  1.0000
  C   C2647     1.0  0.90796  0.47053  0.17984  1.0000
  C   C2648     1.0  0.90772  0.48044  0.16685  1.0000
  C   C2649     1.0  0.93244  0.48263  0.19448  1.0000
  H   H2653     1.0  0.89720  0.52691  0.12220  1.0000
  S   S888      1.0  0.85576  0.42542  0.21163  1.0000
  H   H2654     1.0  0.70019  0.56889  0.00659  1.0000
  C   C2650     1.0  0.92953  0.55187  0.23449  1.0000
  S   S889      1.0  0.70216  0.57331  0.09612  1.0000
  H   H2655     1.0  0.95702  0.56256  0.39941  1.0000
  C   C2651     1.0  0.67095  0.46932  0.00775  1.0000
  C   C2652     1.0  0.96283  0.44147  0.39738  1.0000
  C   C2653     1.0  0.68193  0.43415  0.03255  1.0000
  C   C2654     1.0  0.61111  0.46144  0.06273  1.0000
  C   C2655     1.0  0.98270  0.47942  0.37112  1.0000
  N   N227      1.0  0.78426  0.53761  0.08616  1.0000
  C   C2656     1.0  0.77111  0.53607  0.08541  1.0000
  C   C2657     1.0  0.79134  0.52858  0.09773  1.0000
  H   H2656     1.0  0.76575  0.52811  0.09332  1.0000
  H   H2657     1.0  0.98919  0.50325  0.12595  1.0000
  Fe  Fe445     1.0  0.99994  0.52685  0.39077  1.0000
  C   C2658     1.0  0.79083  0.54785  0.07631  1.0000
  C   C2659     1.0  0.76420  0.54489  0.07454  1.0000
  C   C2660     1.0  0.78424  0.55683  0.06526  1.0000
  C   C2661     1.0  0.77084  0.55531  0.06440  1.0000
  H   H2658     1.0  0.80122  0.54909  0.07701  1.0000
  H   H2659     1.0  0.75369  0.54373  0.07411  1.0000
  H   H2660     1.0  0.78944  0.56494  0.05745  1.0000
  H   H2661     1.0  0.76556  0.56224  0.05592  1.0000
  H   H2662     1.0  0.94366  0.58098  0.41373  1.0000
  H   H2663     1.0  0.96656  0.55494  0.35152  1.0000
  H   H2664     1.0  0.95936  0.55951  0.32845  1.0000
  S   S890      1.0  0.58038  0.57825  0.02738  1.0000
  C   C2662     1.0  0.86107  0.49641  0.24003  1.0000
  H   H2665     1.0  0.87045  0.50164  0.23720  1.0000
  Fe  Fe446     1.0  0.94601  0.57057  0.30271  1.0000
  C   C2663     1.0  0.88957  0.40917  0.32478  1.0000
  C   C2664     1.0  0.98512  0.46578  0.36848  1.0000
  S   S891      1.0  0.88207  0.40338  0.10151  1.0000
  C   C2665     1.0  0.66480  0.45070  0.00104  1.0000
  C   C2666     1.0  0.96938  0.49765  0.17521  1.0000
  S   S892      1.0  0.96835  0.59066  0.26856  1.0000
  H   H2666     1.0  0.95918  0.40591  0.30187  1.0000
  S   S893      1.0  0.78875  0.40381  0.10902  1.0000
  H   H2667     1.0  0.91273  0.58496  0.19692  1.0000
  H   H2668     1.0  0.61068  0.47263  0.08527  1.0000
  C   C2667     1.0  0.73982  0.58198  0.99802  1.0000
  H   H2669     1.0  0.85358  0.49928  0.24992  1.0000
  H   H2670     1.0  0.86573  0.48466  0.24218  1.0000
  S   S894      1.0  0.95201  0.40336  0.36466  1.0000
  H   H2671     1.0  0.74443  0.57831  0.98820  1.0000
  H   H2672     1.0  0.98563  0.54436  0.42844  1.0000
  C   C2668     1.0  0.88648  0.39205  0.25119  1.0000
  C   C2669     1.0  0.51714  0.56614  0.03525  1.0000
  H   H2673     1.0  0.99317  0.58513  0.39158  1.0000
  C   C2670     1.0  0.87704  0.41271  0.13484  1.0000
  S   S895      1.0  0.73454  0.57823  0.07662  1.0000
  H   H2674     1.0  0.97806  0.54414  0.40700  1.0000
  H   H2675     1.0  0.96162  0.43203  0.39485  1.0000
  H   H2676     1.0  0.99506  0.45799  0.37006  1.0000
  H   H2677     1.0  0.98424  0.58678  0.31412  1.0000
  N   N228      1.0  0.98818  0.47930  0.16552  1.0000
  H   H2678     1.0  0.92773  0.39863  0.35339  1.0000
  Fe  Fe447     1.0  0.72888  0.57190  0.05935  1.0000
  H   H2679     1.0  0.89464  0.41059  0.23834  1.0000
  H   H2680     1.0  0.90670  0.42877  0.15266  1.0000
  S   S896      1.0  0.70678  0.58635  0.06119  1.0000
  H   H2681     1.0  0.66041  0.47304  0.99043  1.0000
  S   S897      1.0  0.74456  0.56811  0.03886  1.0000
  H   H2682     1.0  0.66667  0.40278  0.03578  1.0000
  C   C2671     1.0  0.51902  0.56409  0.04906  1.0000
  N   N229      1.0  0.91648  0.58456  0.21696  1.0000
  H   H2683     1.0  0.95900  0.49576  0.33396  1.0000
  C   C2672     1.0  0.59853  0.57169  0.07849  1.0000
  C   C2673     1.0  0.89647  0.41781  0.32830  1.0000
  H   H2684     1.0  0.91272  0.40768  0.25236  1.0000
  H   H2685     1.0  0.93289  0.39673  0.20055  1.0000
  S   S898      1.0  0.88085  0.39961  0.19875  1.0000
  C   C2674     1.0  0.67052  0.44066  0.01214  1.0000
  S   S899      1.0  0.96317  0.55887  0.28734  1.0000
  H   H2686     1.0  0.53291  0.56543  0.06170  1.0000
  C   C2675     1.0  0.62865  0.53914  0.07573  1.0000
  H   H2687     1.0  0.90745  0.40978  0.29066  1.0000
  S   S900      1.0  0.78025  0.40167  0.14377  1.0000
  H   H2688     1.0  0.72522  0.53186  0.04919  1.0000
  C   C2676     1.0  0.91665  0.39730  0.35618  1.0000
  H   H2689     1.0  0.97826  0.57559  0.33118  1.0000
  H   H2690     1.0  0.71190  0.57327  0.01477  1.0000
  C   C2677     1.0  0.93822  0.56253  0.24895  1.0000
  C   C2678     1.0  0.94079  0.55607  0.23737  1.0000
  H   H2691     1.0  0.87852  0.43683  0.99586  1.0000
  C   C2679     1.0  0.99965  0.40921  0.33043  1.0000
  H   H2692     1.0  0.90808  0.39854  0.99970  1.0000
  C   C2680     1.0  0.90760  0.42343  0.31810  1.0000
  S   S901      1.0  0.65931  0.52018  0.00035  1.0000
  H   H2693     1.0  0.95148  0.55462  0.23038  1.0000
  C   C2681     1.0  0.88640  0.39697  0.30812  1.0000
  C   C2682     1.0  0.97627  0.55229  0.42537  1.0000
  C   C2683     1.0  0.96574  0.52926  0.32111  1.0000
  C   C2684     1.0  0.98689  0.40439  0.29056  1.0000
  S   S902      1.0  0.81267  0.40683  0.12467  1.0000
  C   C2685     1.0  0.73888  0.57874  0.02327  1.0000
  S   S903      1.0  0.97360  0.40793  0.32619  1.0000
  H   H2694     1.0  0.89334  0.41994  0.33895  1.0000
  Fe  Fe448     1.0  0.96157  0.41802  0.34490  1.0000
  C   C2686     1.0  0.91246  0.57787  0.20774  1.0000
  H   H2695     1.0  0.98166  0.41352  0.29547  1.0000
  C   C2687     1.0  0.90435  0.41194  0.30129  1.0000
  C   C2688     1.0  0.97473  0.46212  0.36385  1.0000
  C   C2689     1.0  0.90571  0.40015  0.25552  1.0000
  C   C2690     1.0  0.78559  0.41836  0.17329  1.0000
  Fe  Fe449     1.0  0.95361  0.57607  0.27033  1.0000
  C   C2691     1.0  0.88797  0.39385  0.36332  1.0000
  S   S904      1.0  0.95204  0.56994  0.25052  1.0000
  H   H2696     1.0  0.87109  0.41884  0.12628  1.0000
  H   H2697     1.0  0.97677  0.45161  0.36179  1.0000
  C   C2692     1.0  0.96753  0.47835  0.40746  1.0000
  S   S905      1.0  0.68679  0.40098  0.00836  1.0000
  Fe  Fe450     1.0  0.97623  0.57428  0.28688  1.0000
  Fe  Fe451     1.0  0.71139  0.59104  0.07983  1.0000
  C   C2693     1.0  0.96492  0.39468  0.30131  1.0000
  C   C2694     1.0  0.74465  0.57402  0.01047  1.0000
  H   H2698     1.0  0.76768  0.42882  0.16291  1.0000
  H   H2699     1.0  0.60822  0.55386  0.09326  1.0000
  H   H2700     1.0  0.75280  0.56413  0.01019  1.0000
  H   H2701     1.0  0.84228  0.39502  0.19072  1.0000
  C   C2695     1.0  0.84543  0.44929  0.01067  1.0000
  C   C2696     1.0  0.61672  0.47704  0.07445  1.0000
  C   C2697     1.0  0.89164  0.40345  0.36888  1.0000
  S   S906      1.0  0.55460  0.58797  0.06339  1.0000
  C   C2698     1.0  0.99425  0.50024  0.16770  1.0000
  H   H2702     1.0  0.98408  0.56642  0.44197  1.0000
  C   C2699     1.0  0.67656  0.45899  0.01877  1.0000
  S   S907      1.0  0.65339  0.42013  0.99248  1.0000
  N   N230      1.0  0.88972  0.41849  0.13330  1.0000
  H   H2703     1.0  0.94191  0.40537  0.40120  1.0000
  C   C2700     1.0  0.96026  0.56248  0.40895  1.0000
  H   H2704     1.0  0.52616  0.57243  0.01286  1.0000
  C   C2701     1.0  0.97208  0.55216  0.41318  1.0000
  C   C2702     1.0  0.95708  0.57244  0.42930  1.0000
  C   C2703     1.0  0.94678  0.39653  0.40875  1.0000
  S   S908      1.0  0.99938  0.56686  0.28934  1.0000
  C   C2704     1.0  0.95388  0.46613  0.39945  1.0000
  N   N231      1.0  0.96877  0.56232  0.43329  1.0000
  H   H2705     1.0  0.93852  0.58235  0.20530  1.0000
  H   H2706     1.0  0.67101  0.48055  0.00625  1.0000
  H   H2707     1.0  0.96579  0.56976  0.45228  1.0000
  H   H2708     1.0  0.60431  0.49748  0.05473  1.0000
  H   H2709     1.0  0.88497  0.41950  0.15525  1.0000
  Fe  Fe452     1.0  0.66434  0.40122  0.00688  1.0000
  H   H2710     1.0  0.61630  0.45225  0.06983  1.0000
  C   C2705     1.0  0.98788  0.57922  0.32361  1.0000
  H   H2711     1.0  0.62297  0.53140  0.08426  1.0000
  C   C2706     1.0  0.68740  0.51728  0.00191  1.0000
  H   H2712     1.0  0.98429  0.45926  0.16517  1.0000
  H   H2713     1.0  0.59068  0.57667  0.08677  1.0000
  C   C2707     1.0  0.59874  0.57816  0.06415  1.0000
  H   H2714     1.0  0.97904  0.47798  0.40712  1.0000
  C   C2708     1.0  0.99261  0.46591  0.16046  1.0000
  C   C2709     1.0  0.90592  0.40532  0.36523  1.0000
  C   C2710     1.0  0.60888  0.57177  0.05355  1.0000
  H   H2715     1.0  0.96094  0.47906  0.41836  1.0000
  C   C2711     1.0  0.90640  0.58902  0.22834  1.0000
  C   C2712     1.0  0.67760  0.39889  0.03741  1.0000
  H   H2716     1.0  0.98852  0.58268  0.41767  1.0000
  S   S909      1.0  0.87426  0.39311  0.24061  1.0000
  H   H2717     1.0  0.90174  0.39401  0.39637  1.0000
  H   H2718     1.0  0.87639  0.39826  0.07683  1.0000
  H   H2719     1.0  0.99417  0.46838  0.14863  1.0000
  H   H2720     1.0  0.92621  0.39240  0.42176  1.0000
  H   H2721     1.0  0.87615  0.40345  0.30493  1.0000
  H   H2722     1.0  0.93291  0.58245  0.34755  1.0000
  C   C2713     1.0  0.82437  0.39449  0.16605  1.0000
  C   C2714     1.0  0.83831  0.39827  0.18098  1.0000
  C   C2715     1.0  0.73350  0.39414  0.10919  1.0000
  S   S910      1.0  0.95988  0.58425  0.30402  1.0000
  H   H2723     1.0  0.94765  0.58449  0.36295  1.0000
  C   C2716     1.0  0.70356  0.39315  0.02795  1.0000
  H   H2724     1.0  0.89546  0.58726  0.23092  1.0000
  H   H2725     1.0  0.71597  0.57891  0.11842  1.0000
  N   N232      1.0  0.97960  0.39396  0.29223  1.0000
  H   H2726     1.0  0.88065  0.40133  0.13387  1.0000
  H   H2727     1.0  0.94331  0.39372  0.22145  1.0000
  H   H2728     1.0  0.59764  0.39901  0.99434  1.0000
  C   C2717     1.0  0.86896  0.39564  0.09966  1.0000
  H   H2729     1.0  0.89338  0.39179  0.29925  1.0000
  H   H2730     1.0  0.71274  0.39235  0.01894  1.0000
  C   C2718     1.0  0.00023  0.49997  0.12747  1.0000
  C   C2719     1.0  0.99834  0.48698  0.16380  1.0000
  Fe  Fe453     1.0  0.81116  0.39219  0.11206  1.0000
  H   H2731     1.0  0.99883  0.51870  0.13502  1.0000
  C   C2720     1.0  0.71510  0.59071  0.11583  1.0000
  H   H2732     1.0  0.85905  0.39162  0.12216  1.0000
  C   C2721     1.0  0.98179  0.59131  0.41148  1.0000
  H   H2733     1.0  0.92667  0.59037  0.32442  1.0000
  N   N233      1.0  0.90454  0.40308  0.97863  1.0000
  Fe  Fe454     1.0  0.99748  0.57710  0.72568  1.0000
  C   C2722     1.0  0.90193  0.46332  0.89389  1.0000
  C   C2723     1.0  0.86398  0.47529  0.91415  1.0000
  Fe  Fe455     1.0  0.97875  0.40566  0.87482  1.0000
  C   C2724     1.0  0.90388  0.41301  0.96605  1.0000
  H   H2734     1.0  0.89134  0.46244  0.91597  1.0000
  H   H2735     1.0  0.96607  0.51013  0.79002  1.0000
  Fe  Fe456     1.0  0.97903  0.58834  0.70351  1.0000
  H   H2736     1.0  0.82430  0.40724  0.90494  1.0000
  H   H2737     1.0  0.66930  0.54390  0.97925  1.0000
  C   C2725     1.0  0.90791  0.39714  0.92543  1.0000
  S   S911      1.0  0.80246  0.41237  0.88043  1.0000
  H   H2738     1.0  0.94537  0.53989  0.78334  1.0000
  Fe  Fe457     1.0  0.79036  0.50880  0.89252  1.0000
  S   S912      1.0  0.81243  0.51348  0.88188  1.0000
  S   S913      1.0  0.76855  0.52411  0.89372  1.0000
  Fe  Fe458     1.0  0.80244  0.47728  0.90364  1.0000
  S   S914      1.0  0.82566  0.47890  0.89444  1.0000
  S   S915      1.0  0.79514  0.45731  0.91686  1.0000
  Fe  Fe459     1.0  0.81872  0.49941  0.90206  1.0000
  S   S916      1.0  0.83191  0.50589  0.91311  1.0000
  Fe  Fe460     1.0  0.81745  0.49263  0.87507  1.0000
  S   S917      1.0  0.82953  0.48864  0.85333  1.0000
  S   S918      1.0  0.79624  0.49643  0.91325  1.0000
  S   S919      1.0  0.79467  0.48927  0.88371  1.0000
  H   H2739     1.0  0.81420  0.40599  0.92997  1.0000
  C   C2726     1.0  0.95600  0.54075  0.77652  1.0000
  H   H2740     1.0  0.90809  0.43890  0.85028  1.0000
  Fe  Fe461     1.0  0.70431  0.58803  0.95055  1.0000
  H   H2741     1.0  0.99733  0.52285  0.69856  1.0000
  C   C2727     1.0  0.84745  0.39530  0.94537  1.0000
  H   H2742     1.0  0.91356  0.43979  0.97358  1.0000
  S   S920      1.0  0.88153  0.41603  0.80945  1.0000
  H   H2743     1.0  0.90066  0.41076  0.95755  1.0000
  Fe  Fe462     1.0  0.92249  0.50849  0.78516  1.0000
  S   S921      1.0  0.92477  0.50907  0.80660  1.0000
  S   S922      1.0  0.92160  0.52978  0.76945  1.0000
  Fe  Fe463     1.0  0.92223  0.47684  0.79399  1.0000
  S   S923      1.0  0.92436  0.47487  0.81621  1.0000
  S   S924      1.0  0.92573  0.45717  0.78557  1.0000
  Fe  Fe464     1.0  0.90800  0.49572  0.81544  1.0000
  S   S925      1.0  0.89218  0.50158  0.83521  1.0000
  Fe  Fe465     1.0  0.94083  0.48835  0.80557  1.0000
  S   S926      1.0  0.96188  0.48308  0.81234  1.0000
  S   S927      1.0  0.90421  0.49676  0.79395  1.0000
  S   S928      1.0  0.94012  0.48874  0.78341  1.0000
  Fe  Fe466     1.0  0.84368  0.41639  0.96955  1.0000
  S   S929      1.0  0.84601  0.43705  0.95364  1.0000
  H   H2744     1.0  0.98556  0.43014  0.87526  1.0000
  C   C2728     1.0  0.97296  0.55548  0.76215  1.0000
  S   S930      1.0  0.86738  0.43998  0.97230  1.0000
  Fe  Fe467     1.0  0.84362  0.44564  0.97277  1.0000
  H   H2745     1.0  0.95143  0.56380  0.77356  1.0000
  Fe  Fe468     1.0  0.86951  0.42961  0.95447  1.0000
  S   S931      1.0  0.88646  0.43574  0.93502  1.0000
  H   H2746     1.0  0.86339  0.48566  0.91666  1.0000
  S   S932      1.0  0.86757  0.40805  0.96877  1.0000
  S   S933      1.0  0.95412  0.40673  0.83633  1.0000
  S   S934      1.0  0.96130  0.41362  0.89263  1.0000
  C   C2729     1.0  0.89730  0.40780  0.93163  1.0000
  S   S935      1.0  0.93840  0.41607  0.87300  1.0000
  Fe  Fe469     1.0  0.94897  0.39930  0.88938  1.0000
  Fe  Fe470     1.0  0.95202  0.42969  0.87494  1.0000
  S   S936      1.0  0.94135  0.45264  0.87572  1.0000
  H   H2747     1.0  0.77155  0.44938  0.89088  1.0000
  H   H2748     1.0  0.95507  0.39544  0.78328  1.0000
  S   S937      1.0  0.97043  0.42296  0.85730  1.0000
  H   H2749     1.0  0.99248  0.45233  0.87469  1.0000
  C   C2730     1.0  0.89902  0.42200  0.92751  1.0000
  C   C2731     1.0  0.95935  0.55429  0.77101  1.0000
  H   H2750     1.0  0.90942  0.46558  0.87116  1.0000
  H   H2751     1.0  0.97578  0.56590  0.75790  1.0000
  C   C2732     1.0  0.92160  0.41495  0.91095  1.0000
  C   C2733     1.0  0.91118  0.42549  0.91722  1.0000
  C   C2734     1.0  0.75555  0.49685  0.89113  1.0000
  H   H2752     1.0  0.82727  0.40351  0.85629  1.0000
  H   H2753     1.0  0.93090  0.41790  0.90304  1.0000
  H   H2754     1.0  0.91270  0.43636  0.91418  1.0000
  C   C2735     1.0  0.95733  0.47702  0.83089  1.0000
  C   C2736     1.0  0.96734  0.46669  0.83808  1.0000
  C   C2737     1.0  0.96271  0.45987  0.85237  1.0000
  C   C2738     1.0  0.94814  0.46349  0.85943  1.0000
  C   C2739     1.0  0.93850  0.47471  0.85259  1.0000
  C   C2740     1.0  0.94304  0.48133  0.83828  1.0000
  H   H2755     1.0  0.97844  0.46343  0.83242  1.0000
  H   H2756     1.0  0.97033  0.45157  0.85781  1.0000
  H   H2757     1.0  0.92734  0.47787  0.85806  1.0000
  H   H2758     1.0  0.93533  0.48953  0.83287  1.0000
  C   C2741     1.0  0.77002  0.46016  0.88358  1.0000
  C   C2742     1.0  0.75893  0.47990  0.91316  1.0000
  C   C2743     1.0  0.76354  0.46881  0.90580  1.0000
  H   H2759     1.0  0.78079  0.46132  0.87645  1.0000
  N   N234      1.0  0.96590  0.52875  0.77318  1.0000
  S   S938      1.0  0.73817  0.56949  0.96639  1.0000
  C   C2744     1.0  0.89378  0.42751  0.80293  1.0000
  C   C2745     1.0  0.90710  0.42363  0.79366  1.0000
  C   C2746     1.0  0.91672  0.43292  0.78836  1.0000
  C   C2747     1.0  0.91314  0.44610  0.79234  1.0000
  C   C2748     1.0  0.89989  0.44998  0.80173  1.0000
  C   C2749     1.0  0.89017  0.44071  0.80695  1.0000
  H   H2760     1.0  0.90982  0.41365  0.79026  1.0000
  H   H2761     1.0  0.92693  0.42992  0.78104  1.0000
  H   H2762     1.0  0.89709  0.46014  0.80485  1.0000
  H   H2763     1.0  0.87985  0.44377  0.81408  1.0000
  C   C2750     1.0  0.83132  0.49549  0.93049  1.0000
  C   C2751     1.0  0.83567  0.50007  0.94031  1.0000
  C   C2752     1.0  0.83537  0.49177  0.95423  1.0000
  C   C2753     1.0  0.83109  0.47868  0.95822  1.0000
  C   C2754     1.0  0.82671  0.47410  0.94840  1.0000
  C   C2755     1.0  0.82666  0.48259  0.93458  1.0000
  H   H2764     1.0  0.83929  0.51004  0.93715  1.0000
  H   H2765     1.0  0.83880  0.49530  0.96179  1.0000
  H   H2766     1.0  0.82316  0.46411  0.95155  1.0000
  H   H2767     1.0  0.82319  0.47905  0.92705  1.0000
  C   C2756     1.0  0.84742  0.49095  0.84897  1.0000
  C   C2757     1.0  0.85171  0.49772  0.85707  1.0000
  C   C2758     1.0  0.86561  0.50070  0.85283  1.0000
  C   C2759     1.0  0.87533  0.49672  0.84060  1.0000
  C   C2760     1.0  0.87124  0.48953  0.83273  1.0000
  C   C2761     1.0  0.85724  0.48668  0.83690  1.0000
  H   H2768     1.0  0.84417  0.50107  0.86636  1.0000
  H   H2769     1.0  0.86874  0.50632  0.85890  1.0000
  H   H2770     1.0  0.87874  0.48640  0.82331  1.0000
  H   H2771     1.0  0.85394  0.48138  0.83066  1.0000
  H   H2772     1.0  0.95538  0.44592  0.80028  1.0000
  C   C2762     1.0  0.75439  0.53443  0.95041  1.0000
  C   C2763     1.0  0.92016  0.43633  0.82920  1.0000
  C   C2764     1.0  0.90719  0.42631  0.96400  1.0000
  C   C2765     1.0  0.79130  0.54166  0.94441  1.0000
  H   H2773     1.0  0.85420  0.40179  0.94622  1.0000
  C   C2766     1.0  0.93321  0.43735  0.81912  1.0000
  C   C2767     1.0  0.88648  0.47467  0.87709  1.0000
  H   H2774     1.0  0.85356  0.47595  0.91144  1.0000
  H   H2775     1.0  0.79596  0.54978  0.94564  1.0000
  H   H2776     1.0  0.90646  0.43417  0.95403  1.0000
  H   H2777     1.0  0.76682  0.45792  0.91165  1.0000
  H   H2778     1.0  0.91172  0.43295  0.82676  1.0000
  H   H2779     1.0  0.73839  0.56064  0.92012  1.0000
  Fe  Fe471     1.0  0.73694  0.57642  0.94335  1.0000
  N   N235      1.0  0.87641  0.47248  0.90230  1.0000
  C   C2768     1.0  0.80006  0.42513  0.89036  1.0000
  C   C2769     1.0  0.79284  0.42288  0.90474  1.0000
  C   C2770     1.0  0.79138  0.43282  0.91281  1.0000
  C   C2771     1.0  0.79721  0.44501  0.90655  1.0000
  C   C2772     1.0  0.80433  0.44738  0.89213  1.0000
  C   C2773     1.0  0.80567  0.43747  0.88400  1.0000
  H   H2780     1.0  0.78816  0.41357  0.90960  1.0000
  H   H2781     1.0  0.78576  0.43103  0.92395  1.0000
  H   H2782     1.0  0.80885  0.45680  0.88723  1.0000
  H   H2783     1.0  0.81127  0.43925  0.87286  1.0000
  H   H2784     1.0  0.85854  0.40115  0.81663  1.0000
  C   C2774     1.0  0.77892  0.52147  0.94085  1.0000
  H   H2785     1.0  0.75061  0.52970  0.94366  1.0000
  H   H2786     1.0  0.96794  0.50698  0.77256  1.0000
  C   C2775     1.0  0.87465  0.47714  0.88850  1.0000
  H   H2787     1.0  0.92791  0.44627  0.85559  1.0000
  C   C2776     1.0  0.85541  0.51694  0.80646  1.0000
  S   S939      1.0  0.97492  0.57574  0.72622  1.0000
  H   H2788     1.0  0.99862  0.56380  0.61479  1.0000
  C   C2777     1.0  0.96391  0.53361  0.73599  1.0000
  C   C2778     1.0  0.96065  0.52012  0.74244  1.0000
  C   C2779     1.0  0.94749  0.51890  0.75239  1.0000
  C   C2780     1.0  0.93753  0.53116  0.75602  1.0000
  C   C2781     1.0  0.94059  0.54469  0.74924  1.0000
  C   C2782     1.0  0.95377  0.54591  0.73928  1.0000
  H   H2789     1.0  0.94502  0.50848  0.75713  1.0000
  H   H2790     1.0  0.93284  0.55423  0.75184  1.0000
  C   C2783     1.0  0.91815  0.43964  0.84238  1.0000
  H   H2791     1.0  0.91264  0.45809  0.89604  1.0000
  H   H2792     1.0  0.99344  0.54409  0.75164  1.0000
  H   H2793     1.0  0.75280  0.50786  0.88525  1.0000
  H   H2794     1.0  0.69266  0.55178  0.97282  1.0000
  C   C2784     1.0  0.77623  0.54285  0.94833  1.0000
  C   C2785     1.0  0.84925  0.39784  0.82451  1.0000
  H   H2795     1.0  0.81195  0.52903  0.93545  1.0000
  H   H2796     1.0  0.76243  0.46050  0.87704  1.0000
  H   H2797     1.0  0.93041  0.40742  0.82473  1.0000
  C   C2786     1.0  0.76589  0.53737  0.90324  1.0000
  C   C2787     1.0  0.77772  0.54101  0.90543  1.0000
  C   C2788     1.0  0.77534  0.55196  0.91267  1.0000
  H   H2798     1.0  0.78869  0.53564  0.90125  1.0000
  H   H2799     1.0  0.78453  0.55495  0.91409  1.0000
  C   C2789     1.0  0.94216  0.44456  0.83507  1.0000
  H   H2800     1.0  0.99899  0.53919  0.68524  1.0000
  H   H2801     1.0  0.83655  0.51586  0.82389  1.0000
  S   S940      1.0  0.98090  0.53468  0.72424  1.0000
  S   S941      1.0  0.82854  0.40337  0.96930  1.0000
  C   C2790     1.0  0.61635  0.39265  0.97085  1.0000
  H   H2802     1.0  0.96206  0.45147  0.81226  1.0000
  H   H2803     1.0  0.75885  0.47757  0.92445  1.0000
  H   H2804     1.0  0.75156  0.50277  0.91124  1.0000
  H   H2805     1.0  0.74869  0.54591  0.94882  1.0000
  C   C2791     1.0  0.92923  0.44376  0.84537  1.0000
  Fe  Fe472     1.0  0.98622  0.55648  0.71687  1.0000
  H   H2806     1.0  0.95079  0.44758  0.83750  1.0000
  C   C2792     1.0  0.96252  0.51459  0.77972  1.0000
  C   C2793     1.0  0.83162  0.39909  0.84678  1.0000
  H   H2807     1.0  0.61860  0.40148  0.97358  1.0000
  C   C2794     1.0  0.75172  0.54446  0.90859  1.0000
  N   N236      1.0  0.77021  0.53296  0.94628  1.0000
  C   C2795     1.0  0.99691  0.43017  0.87361  1.0000
  H   H2808     1.0  0.95066  0.51526  0.78182  1.0000
  S   S942      1.0  0.98844  0.56881  0.69421  1.0000
  S   S943      1.0  0.75850  0.57214  0.92782  1.0000
  H   H2809     1.0  0.85204  0.51139  0.80046  1.0000
  N   N237      1.0  0.94386  0.44174  0.82201  1.0000
  H   H2810     1.0  0.96833  0.51057  0.73978  1.0000
  C   C2796     1.0  0.84353  0.40359  0.83666  1.0000
  C   C2797     1.0  0.76115  0.55896  0.91816  1.0000
  H   H2811     1.0  0.80097  0.51084  0.93259  1.0000
  N   N238      1.0  0.82693  0.42094  0.91663  1.0000
  C   C2798     1.0  0.83173  0.43294  0.91546  1.0000
  C   C2799     1.0  0.81783  0.41562  0.92892  1.0000
  C   C2800     1.0  0.82723  0.44004  0.92674  1.0000
  C   C2801     1.0  0.81308  0.42248  0.94037  1.0000
  C   C2802     1.0  0.81785  0.43473  0.93926  1.0000
  C   C2803     1.0  0.83220  0.41332  0.90493  1.0000
  H   H2812     1.0  0.83895  0.43715  0.90574  1.0000
  H   H2813     1.0  0.77419  0.51359  0.93925  1.0000
  H   H2814     1.0  0.83084  0.44967  0.92575  1.0000
  H   H2815     1.0  0.80605  0.41809  0.95019  1.0000
  H   H2816     1.0  0.81429  0.44008  0.94812  1.0000
  H   H2817     1.0  0.76934  0.55199  0.95258  1.0000
  H   H2818     1.0  0.91905  0.39327  0.72920  1.0000
  Fe  Fe473     1.0  0.71833  0.56128  0.96949  1.0000
  H   H2819     1.0  0.75104  0.52919  0.96184  1.0000
  H   H2820     1.0  0.95600  0.55637  0.73415  1.0000
  H   H2821     1.0  0.84265  0.40558  0.90611  1.0000
  C   C2804     1.0  0.90015  0.46763  0.87986  1.0000
  C   C2805     1.0  0.75488  0.49400  0.90576  1.0000
  C   C2806     1.0  0.88987  0.46585  0.90506  1.0000
  H   H2822     1.0  0.65954  0.40174  0.93288  1.0000
  C   C2807     1.0  0.74935  0.55513  0.91617  1.0000
  Fe  Fe474     1.0  0.72266  0.59028  0.96907  1.0000
  N   N239      1.0  0.76435  0.47171  0.89141  1.0000
  H   H2823     1.0  0.98699  0.52036  0.76159  1.0000
  H   H2824     1.0  0.93479  0.43460  0.80896  1.0000
  S   S944      1.0  0.71800  0.56670  0.94625  1.0000
  C   C2808     1.0  0.97921  0.52984  0.76438  1.0000
  H   H2825     1.0  0.88783  0.40506  0.93952  1.0000
  N   N240      1.0  0.87318  0.52781  0.80912  1.0000
  C   C2809     1.0  0.86470  0.53033  0.82199  1.0000
  C   C2810     1.0  0.86868  0.52124  0.80133  1.0000
  C   C2811     1.0  0.85129  0.52632  0.82735  1.0000
  C   C2812     1.0  0.84667  0.51953  0.81955  1.0000
  C   C2813     1.0  0.88708  0.53232  0.80376  1.0000
  H   H2826     1.0  0.86848  0.53512  0.82837  1.0000
  H   H2827     1.0  0.87543  0.51913  0.79117  1.0000
  H   H2828     1.0  0.84477  0.52796  0.83775  1.0000
  H   H2829     1.0  0.89395  0.52746  0.81177  1.0000
  H   H2830     1.0  0.89335  0.52897  0.79363  1.0000
  H   H2831     1.0  0.88518  0.54418  0.80167  1.0000
  H   H2832     1.0  0.96537  0.43251  0.81269  1.0000
  C   C2814     1.0  0.79404  0.51986  0.93699  1.0000
  H   H2833     1.0  0.74254  0.54176  0.90684  1.0000
  C   C2815     1.0  0.95739  0.44293  0.81126  1.0000
  Fe  Fe475     1.0  0.64747  0.40408  0.98462  1.0000
  H   H2834     1.0  0.98719  0.58225  0.57368  1.0000
  H   H2835     1.0  0.83368  0.42094  0.89438  1.0000
  C   C2816     1.0  0.76043  0.48553  0.88406  1.0000
  H   H2836     1.0  0.88513  0.47828  0.86615  1.0000
  C   C2817     1.0  0.91118  0.42943  0.97493  1.0000
  S   S945      1.0  0.64874  0.40625  0.96135  1.0000
  H   H2837     1.0  0.86489  0.46659  0.92391  1.0000
  Fe  Fe476     1.0  0.95771  0.40770  0.85711  1.0000
  C   C2818     1.0  0.80024  0.53009  0.93868  1.0000
  C   C2819     1.0  0.98293  0.54321  0.75870  1.0000
  H   H2838     1.0  0.76140  0.48790  0.87260  1.0000
  C   C2820     1.0  0.92008  0.40076  0.91502  1.0000
  H   H2839     1.0  0.86407  0.48281  0.88626  1.0000
  S   S946      1.0  0.70274  0.58148  0.97419  1.0000
  H   H2840     1.0  0.84839  0.41141  0.83822  1.0000
  S   S947      1.0  0.83189  0.46783  0.97526  1.0000
  C   C2821     1.0  0.83450  0.39398  0.95554  1.0000
  H   H2841     1.0  0.96507  0.39513  0.80372  1.0000
  H   H2842     1.0  0.99459  0.42657  0.90420  1.0000
  H   H2843     1.0  0.95297  0.58788  0.67142  1.0000
  H   H2844     1.0  0.97817  0.58918  0.66937  1.0000
  Fe  Fe477     1.0  0.89150  0.39313  0.80747  1.0000
  C   C2822     1.0  0.93317  0.39695  0.83152  1.0000
  C   C2823     1.0  0.00082  0.44273  0.87338  1.0000
  C   C2824     1.0  0.69124  0.54211  0.98087  1.0000
  H   H2845     1.0  0.00115  0.39750  0.59348  1.0000
  H   H2846     1.0  0.91731  0.39411  0.88415  1.0000
  H   H2847     1.0  0.99900  0.42810  0.92004  1.0000
  H   H2848     1.0  0.80616  0.39321  0.86077  1.0000
  C   C2825     1.0  0.94409  0.39389  0.83902  1.0000
  H   H2849     1.0  0.63011  0.39632  0.94970  1.0000
  C   C2826     1.0  0.67805  0.53766  0.98451  1.0000
  S   S948      1.0  0.71878  0.53964  0.98407  1.0000
  H   H2850     1.0  0.00105  0.56207  0.65090  1.0000
  C   C2827     1.0  0.99035  0.59079  0.57597  1.0000
  C   C2828     1.0  0.66181  0.39148  0.94018  1.0000
  C   C2829     1.0  0.66840  0.60687  0.06304  1.0000
  H   H2851     1.0  0.91205  0.73529  0.48224  1.0000
  Fe  Fe478     1.0  0.56215  0.76953  0.17280  1.0000
  S   S949      1.0  0.55441  0.75043  0.17239  1.0000
  C   C2830     1.0  0.91028  0.59518  0.23731  1.0000
  H   H2852     1.0  0.94924  0.62742  0.33852  1.0000
  S   S950      1.0  0.55878  0.76231  0.13740  1.0000
  H   H2853     1.0  0.61451  0.65208  0.01753  1.0000
  Fe  Fe479     1.0  0.54136  0.76532  0.15690  1.0000
  S   S951      1.0  0.51775  0.76604  0.15896  1.0000
  Fe  Fe480     1.0  0.57246  0.74844  0.15288  1.0000
  S   S952      1.0  0.58321  0.72553  0.15133  1.0000
  H   H2854     1.0  0.98057  0.76182  0.47859  1.0000
  S   S953      1.0  0.58152  0.76623  0.15467  1.0000
  C   C2831     1.0  0.60377  0.65504  0.02412  1.0000
  C   C2832     1.0  0.96350  0.75733  0.47192  1.0000
  H   H2855     1.0  0.91320  0.60588  0.32916  1.0000
  N   N241      1.0  0.57641  0.66384  0.04068  1.0000
  H   H2856     1.0  0.55496  0.67693  0.04304  1.0000
  S   S954      1.0  0.56051  0.77489  0.19393  1.0000
  C   C2833     1.0  0.56083  0.64759  0.00810  1.0000
  C   C2834     1.0  0.94431  0.75325  0.46323  1.0000
  H   H2857     1.0  0.92794  0.60074  0.24187  1.0000
  C   C2835     1.0  0.64493  0.62235  0.06928  1.0000
  H   H2858     1.0  0.87719  0.78726  0.38257  1.0000
  S   S955      1.0  0.70447  0.61411  0.08171  1.0000
  N   N242      1.0  0.52199  0.76631  0.21799  1.0000
  Fe  Fe481     1.0  0.61365  0.68843  0.08697  1.0000
  S   S956      1.0  0.60459  0.67027  0.10277  1.0000
  S   S957      1.0  0.61187  0.71038  0.09055  1.0000
  Fe  Fe482     1.0  0.62288  0.67310  0.06229  1.0000
  S   S958      1.0  0.61449  0.65394  0.07597  1.0000
  S   S959      1.0  0.63435  0.67088  0.03983  1.0000
  Fe  Fe483     1.0  0.59528  0.66951  0.08502  1.0000
  S   S960      1.0  0.57254  0.66748  0.08714  1.0000
  Fe  Fe484     1.0  0.62479  0.65617  0.09232  1.0000
  S   S961      1.0  0.63680  0.63524  0.10377  1.0000
  S   S962      1.0  0.60269  0.68872  0.06994  1.0000
  S   S963      1.0  0.63473  0.67432  0.07794  1.0000
  Fe  Fe485     1.0  0.55187  0.62559  0.03856  1.0000
  S   S964      1.0  0.53994  0.62217  0.06148  1.0000
  H   H2859     1.0  0.62489  0.68059  0.99212  1.0000
  N   N243      1.0  0.88136  0.76576  0.39481  1.0000
  H   H2860     1.0  0.95603  0.60714  0.35842  1.0000
  H   H2861     1.0  0.98991  0.59791  0.28182  1.0000
  H   H2862     1.0  0.97266  0.70672  0.41923  1.0000
  H   H2863     1.0  0.70604  0.61896  0.11199  1.0000
  C   C2836     1.0  0.97483  0.77465  0.41560  1.0000
  S   S965      1.0  0.57323  0.61205  0.04284  1.0000
  H   H2864     1.0  0.93342  0.76028  0.46241  1.0000
  Fe  Fe486     1.0  0.93820  0.74620  0.39733  1.0000
  S   S966      1.0  0.92621  0.76881  0.39840  1.0000
  S   S967      1.0  0.94448  0.73836  0.37684  1.0000
  Fe  Fe487     1.0  0.94088  0.73840  0.42793  1.0000
  S   S968      1.0  0.92914  0.76017  0.43209  1.0000
  Fe  Fe488     1.0  0.91375  0.75918  0.41977  1.0000
  S   S969      1.0  0.88960  0.76599  0.42824  1.0000
  Fe  Fe489     1.0  0.94233  0.76842  0.41058  1.0000
  H   H2865     1.0  0.97879  0.64796  0.41673  1.0000
  S   S970      1.0  0.92420  0.73649  0.41767  1.0000
  S   S971      1.0  0.95565  0.74674  0.40744  1.0000
  Fe  Fe490     1.0  0.96420  0.66106  0.36537  1.0000
  S   S972      1.0  0.95814  0.64561  0.35651  1.0000
  S   S973      1.0  0.94957  0.67215  0.38278  1.0000
  C   C2837     1.0  0.60625  0.69008  0.00661  1.0000
  C   C2838     1.0  0.94496  0.70527  0.47107  1.0000
  C   C2839     1.0  0.50476  0.64266  0.03186  1.0000
  Fe  Fe491     1.0  0.97249  0.65423  0.33582  1.0000
  S   S974      1.0  0.96731  0.65944  0.31410  1.0000
  Fe  Fe492     1.0  0.97899  0.63101  0.36111  1.0000
  H   H2866     1.0  0.90244  0.59815  0.24666  1.0000
  S   S975      1.0  0.97648  0.67135  0.34411  1.0000
  S   S976      1.0  0.98387  0.64539  0.37193  1.0000
  H   H2867     1.0  0.98359  0.71145  0.35181  1.0000
  H   H2868     1.0  0.92814  0.60783  0.31380  1.0000
  Fe  Fe493     1.0  0.56549  0.59400  0.04032  1.0000
  C   C2840     1.0  0.93739  0.70392  0.48539  1.0000
  S   S977      1.0  0.94325  0.62302  0.28670  1.0000
  H   H2869     1.0  0.68413  0.64238  0.05098  1.0000
  C   C2841     1.0  0.59161  0.65982  0.01807  1.0000
  S   S978      1.0  0.98136  0.60740  0.36981  1.0000
  C   C2842     1.0  0.99126  0.71557  0.35465  1.0000
  C   C2843     1.0  0.97060  0.60114  0.41819  1.0000
  C   C2844     1.0  0.55971  0.78633  0.09478  1.0000
  Fe  Fe494     1.0  0.99569  0.65481  0.35025  1.0000
  H   H2870     1.0  0.66717  0.65330  0.05793  1.0000
  S   S979      1.0  0.54728  0.78456  0.15905  1.0000
  C   C2845     1.0  0.86670  0.76708  0.40398  1.0000
  H   H2871     1.0  0.59275  0.66047  0.00681  1.0000
  H   H2872     1.0  0.56246  0.67210  0.05856  1.0000
  H   H2873     1.0  0.64460  0.64491  0.06326  1.0000
  Fe  Fe495     1.0  0.56083  0.60712  0.06550  1.0000
  C   C2846     1.0  0.97657  0.60449  0.38847  1.0000
  H   H2874     1.0  0.71578  0.60968  0.01120  1.0000
  S   S980      1.0  0.54960  0.64788  0.02516  1.0000
  H   H2875     1.0  0.52330  0.76085  0.18579  1.0000
  C   C2847     1.0  0.96226  0.61252  0.41003  1.0000
  C   C2848     1.0  0.96545  0.61437  0.39512  1.0000
  H   H2876     1.0  0.56182  0.77634  0.09151  1.0000
  C   C2849     1.0  0.57169  0.70123  0.10172  1.0000
  H   H2877     1.0  0.95378  0.62026  0.41515  1.0000
  H   H2878     1.0  0.95936  0.62352  0.38878  1.0000
  C   C2850     1.0  0.96080  0.64827  0.30755  1.0000
  C   C2851     1.0  0.95020  0.65489  0.29954  1.0000
  C   C2852     1.0  0.94512  0.64691  0.29329  1.0000
  C   C2853     1.0  0.95081  0.63219  0.29458  1.0000
  C   C2854     1.0  0.96170  0.62539  0.30241  1.0000
  C   C2855     1.0  0.96661  0.63344  0.30903  1.0000
  H   H2879     1.0  0.94582  0.66634  0.29814  1.0000
  H   H2880     1.0  0.93677  0.65225  0.28725  1.0000
  H   H2881     1.0  0.96626  0.61403  0.30336  1.0000
  H   H2882     1.0  0.97508  0.62828  0.31492  1.0000
  C   C2856     1.0  0.94579  0.71997  0.37852  1.0000
  C   C2857     1.0  0.95228  0.71387  0.36656  1.0000
  C   C2858     1.0  0.95371  0.69915  0.36774  1.0000
  C   C2859     1.0  0.94822  0.69058  0.38079  1.0000
  C   C2860     1.0  0.94140  0.69679  0.39263  1.0000
  C   C2861     1.0  0.94043  0.71135  0.39158  1.0000
  H   H2883     1.0  0.95616  0.72055  0.35635  1.0000
  H   H2884     1.0  0.95869  0.69454  0.35847  1.0000
  H   H2885     1.0  0.93678  0.69031  0.40265  1.0000
  H   H2886     1.0  0.93529  0.71591  0.40082  1.0000
  C   C2862     1.0  0.90497  0.75110  0.38756  1.0000
  C   C2863     1.0  0.57732  0.63447  0.99056  1.0000
  C   C2864     1.0  0.89868  0.77562  0.37477  1.0000
  C   C2865     1.0  0.72380  0.59971  0.01098  1.0000
  H   H2887     1.0  0.86018  0.76170  0.40059  1.0000
  C   C2866     1.0  0.00047  0.59760  0.32278  1.0000
  C   C2867     1.0  0.52772  0.76295  0.20490  1.0000
  C   C2868     1.0  0.50287  0.63539  0.05735  1.0000
  H   H2888     1.0  0.51164  0.76630  0.09032  1.0000
  C   C2869     1.0  0.96288  0.67788  0.41590  1.0000
  C   C2870     1.0  0.67162  0.61422  0.12642  1.0000
  H   H2889     1.0  0.95082  0.69691  0.42394  1.0000
  H   H2890     1.0  0.99480  0.76394  0.42265  1.0000
  C   C2871     1.0  0.97451  0.77765  0.46037  1.0000
  C   C2872     1.0  0.67227  0.64509  0.05135  1.0000
  Fe  Fe496     1.0  0.53489  0.60354  0.05691  1.0000
  C   C2873     1.0  0.69728  0.61334  0.11714  1.0000
  S   S981      1.0  0.57256  0.60561  0.08232  1.0000
  C   C2874     1.0  0.57203  0.62260  0.08463  1.0000
  C   C2875     1.0  0.58337  0.62468  0.08917  1.0000
  C   C2876     1.0  0.58339  0.63838  0.09037  1.0000
  C   C2877     1.0  0.57197  0.64998  0.08724  1.0000
  C   C2878     1.0  0.56029  0.64774  0.08339  1.0000
  C   C2879     1.0  0.56044  0.63413  0.08185  1.0000
  H   H2891     1.0  0.59223  0.61575  0.09159  1.0000
  H   H2892     1.0  0.59214  0.63989  0.09394  1.0000
  H   H2893     1.0  0.55121  0.65658  0.08140  1.0000
  H   H2894     1.0  0.55144  0.63253  0.07877  1.0000
  C   C2880     1.0  0.62361  0.67880  0.02701  1.0000
  C   C2881     1.0  0.60939  0.68669  0.03070  1.0000
  C   C2882     1.0  0.62917  0.67671  0.01304  1.0000
  H   H2895     1.0  0.60499  0.68835  0.04141  1.0000
  H   H2896     1.0  0.64017  0.67066  0.01009  1.0000
  C   C2883     1.0  0.68551  0.62015  0.08673  1.0000
  C   C2884     1.0  0.67647  0.61037  0.09233  1.0000
  C   C2885     1.0  0.66152  0.61515  0.09743  1.0000
  C   C2886     1.0  0.65542  0.62979  0.09654  1.0000
  C   C2887     1.0  0.66436  0.63968  0.09048  1.0000
  C   C2888     1.0  0.67942  0.63484  0.08574  1.0000
  C   C2889     1.0  0.98651  0.72350  0.36523  1.0000
  H   H2897     1.0  0.65464  0.60747  0.10208  1.0000
  H   H2898     1.0  0.65974  0.65100  0.08991  1.0000
  H   H2899     1.0  0.68638  0.64246  0.08146  1.0000
  H   H2900     1.0  0.89949  0.78821  0.40439  1.0000
  H   H2901     1.0  0.95327  0.67363  0.41796  1.0000
  S   S982      1.0  0.92438  0.78258  0.48197  1.0000
  C   C2890     1.0  0.51868  0.76293  0.19637  1.0000
  C   C2891     1.0  0.97758  0.65656  0.40697  1.0000
  H   H2902     1.0  0.56672  0.62453  0.01153  1.0000
  S   S983      1.0  0.99542  0.61218  0.45144  1.0000
  C   C2892     1.0  0.58823  0.65894  0.04678  1.0000
  C   C2893     1.0  0.60075  0.69236  0.02051  1.0000
  C   C2894     1.0  0.57793  0.66415  0.02658  1.0000
  C   C2895     1.0  0.59163  0.72142  0.13447  1.0000
  C   C2896     1.0  0.59525  0.73207  0.12241  1.0000
  C   C2897     1.0  0.60193  0.72843  0.10910  1.0000
  C   C2898     1.0  0.60465  0.71423  0.10768  1.0000
  C   C2899     1.0  0.60101  0.70359  0.11973  1.0000
  C   C2900     1.0  0.59467  0.70717  0.13312  1.0000
  H   H2903     1.0  0.59311  0.74306  0.12339  1.0000
  H   H2904     1.0  0.60492  0.73668  0.09984  1.0000
  H   H2905     1.0  0.60315  0.69261  0.11878  1.0000
  H   H2906     1.0  0.59199  0.69887  0.14244  1.0000
  H   H2907     1.0  0.86017  0.78152  0.43521  1.0000
  C   C2901     1.0  0.94967  0.60604  0.35163  1.0000
  C   C2902     1.0  0.65358  0.60859  0.06922  1.0000
  C   C2903     1.0  0.96524  0.78216  0.45090  1.0000
  C   C2904     1.0  0.97362  0.76519  0.47099  1.0000
  C   C2905     1.0  0.97371  0.69655  0.41660  1.0000
  H   H2908     1.0  0.63285  0.61848  0.99339  1.0000
  H   H2909     1.0  0.52919  0.77449  0.09797  1.0000
  C   C2906     1.0  0.92843  0.72795  0.46473  1.0000
  H   H2910     1.0  0.57360  0.69190  0.09733  1.0000
  C   C2907     1.0  0.72932  0.59479  0.99827  1.0000
  C   C2908     1.0  0.52042  0.74177  0.13136  1.0000
  H   H2911     1.0  0.51061  0.64691  0.02121  1.0000
  Fe  Fe497     1.0  0.56606  0.78026  0.14091  1.0000
  H   H2912     1.0  0.98966  0.64449  0.47468  1.0000
  C   C2909     1.0  0.56585  0.70055  0.11627  1.0000
  C   C2910     1.0  0.50575  0.74220  0.13250  1.0000
  H   H2913     1.0  0.98721  0.65414  0.39827  1.0000
  C   C2911     1.0  0.51350  0.75679  0.14863  1.0000
  C   C2912     1.0  0.50805  0.77140  0.09935  1.0000
  H   H2914     1.0  0.58974  0.69836  0.02347  1.0000
  C   C2913     1.0  0.52431  0.74903  0.13943  1.0000
  C   C2914     1.0  0.92456  0.59670  0.23459  1.0000
  C   C2915     1.0  0.88492  0.77703  0.38400  1.0000
  C   C2916     1.0  0.94056  0.71733  0.46074  1.0000
  H   H2915     1.0  0.67516  0.59618  0.06306  1.0000
  H   H2916     1.0  0.53563  0.74855  0.13856  1.0000
  C   C2917     1.0  0.89120  0.75294  0.39672  1.0000
  C   C2918     1.0  0.50367  0.76598  0.20144  1.0000
  H   H2917     1.0  0.97206  0.76483  0.41579  1.0000
  C   C2919     1.0  0.98731  0.68889  0.41070  1.0000
  H   H2918     1.0  0.52053  0.64417  0.04225  1.0000
  H   H2919     1.0  0.95427  0.69698  0.46802  1.0000
  H   H2920     1.0  0.72203  0.59286  0.12170  1.0000
  H   H2921     1.0  0.71948  0.59404  0.10415  1.0000
  H   H2922     1.0  0.56854  0.66788  0.02181  1.0000
  C   C2920     1.0  0.98836  0.67577  0.40751  1.0000
  C   C2921     1.0  0.65131  0.63422  0.06319  1.0000
  H   H2923     1.0  0.96789  0.65634  0.40343  1.0000
  H   H2924     1.0  0.92474  0.73712  0.45678  1.0000
  H   H2925     1.0  0.54222  0.76000  0.22446  1.0000
  H   H2926     1.0  0.63344  0.62381  0.07433  1.0000
  N   N244      1.0  0.57314  0.72567  0.09843  1.0000
  C   C2922     1.0  0.56717  0.72519  0.11265  1.0000
  C   C2923     1.0  0.57532  0.71395  0.09291  1.0000
  C   C2924     1.0  0.56354  0.71260  0.12180  1.0000
  C   C2925     1.0  0.57711  0.73883  0.08890  1.0000
  H   H2927     1.0  0.56565  0.73438  0.11713  1.0000
  H   H2928     1.0  0.58024  0.71428  0.08168  1.0000
  H   H2929     1.0  0.55935  0.71210  0.13316  1.0000
  H   H2930     1.0  0.58823  0.73623  0.08213  1.0000
  H   H2931     1.0  0.56923  0.74413  0.08191  1.0000
  H   H2932     1.0  0.57737  0.74651  0.09496  1.0000
  C   C2926     1.0  0.96141  0.69102  0.41927  1.0000
  N   N245      1.0  0.95452  0.76180  0.46251  1.0000
  C   C2927     1.0  0.88074  0.78322  0.42053  1.0000
  H   H2933     1.0  0.99951  0.64000  0.29557  1.0000
  C   C2928     1.0  0.51037  0.64108  0.04369  1.0000
  H   H2934     1.0  0.99417  0.66541  0.30819  1.0000
  H   H2935     1.0  0.66568  0.59371  0.13325  1.0000
  H   H2936     1.0  0.58503  0.78762  0.17609  1.0000
  C   C2929     1.0  0.95536  0.77397  0.45201  1.0000
  H   H2937     1.0  0.57322  0.77760  0.11019  1.0000
  C   C2930     1.0  0.50571  0.73519  0.18631  1.0000
  C   C2931     1.0  0.92494  0.60176  0.32497  1.0000
  S   S984      1.0  0.54528  0.60812  0.03358  1.0000
  C   C2932     1.0  0.86589  0.78812  0.42599  1.0000
  H   H2938     1.0  0.90157  0.78464  0.36638  1.0000
  H   H2939     1.0  0.56330  0.69063  0.12323  1.0000
  H   H2940     1.0  0.67034  0.64992  0.04039  1.0000
  Fe  Fe498     1.0  0.95106  0.59966  0.28590  1.0000
  C   C2933     1.0  0.60210  0.65454  0.03858  1.0000
  H   H2941     1.0  0.55664  0.65878  0.05358  1.0000
  H   H2942     1.0  0.94841  0.74745  0.45438  1.0000
  S   S985      1.0  0.59502  0.69650  0.99422  1.0000
  C   C2934     1.0  0.56813  0.63456  0.00415  1.0000
  N   N246      1.0  0.97621  0.67053  0.40995  1.0000
  C   C2935     1.0  0.67447  0.61898  0.05726  1.0000
  S   S986      1.0  0.99303  0.63867  0.33993  1.0000
  H   H2943     1.0  0.52069  0.78729  0.13117  1.0000
  H   H2944     1.0  0.86098  0.77851  0.40353  1.0000
  C   C2936     1.0  0.52394  0.78727  0.11959  1.0000
  C   C2937     1.0  0.53169  0.76794  0.22591  1.0000
  H   H2945     1.0  0.93473  0.62473  0.32320  1.0000
  C   C2938     1.0  0.90870  0.76252  0.37651  1.0000
  N   N247      1.0  0.66593  0.63242  0.05755  1.0000
  H   H2946     1.0  0.55702  0.67062  0.00139  1.0000
  C   C2939     1.0  0.50803  0.60316  0.03850  1.0000
  C   C2940     1.0  0.62051  0.68229  0.00286  1.0000
  H   H2947     1.0  0.88847  0.74409  0.40544  1.0000
  H   H2948     1.0  0.61153  0.65118  0.04331  1.0000
  H   H2949     1.0  0.53936  0.76047  0.20086  1.0000
  H   H2950     1.0  0.64889  0.59923  0.07412  1.0000
  C   C2941     1.0  0.94589  0.61741  0.34047  1.0000
  S   S987      1.0  0.96809  0.59992  0.43651  1.0000
  C   C2942     1.0  0.56189  0.66812  0.04943  1.0000
  S   S988      1.0  0.95078  0.71925  0.44307  1.0000
  C   C2943     1.0  0.50373  0.72360  0.16900  1.0000
  C   C2944     1.0  0.93770  0.61582  0.33182  1.0000
  C   C2945     1.0  0.51793  0.77600  0.10377  1.0000
  H   H2951     1.0  0.58701  0.65861  0.05800  1.0000
  H   H2952     1.0  0.91278  0.74093  0.38907  1.0000
  H   H2953     1.0  0.99788  0.67633  0.36702  1.0000
  H   H2954     1.0  0.52878  0.73579  0.12422  1.0000
  N   N248      1.0  0.93356  0.60320  0.33411  1.0000
  H   H2955     1.0  0.51681  0.60869  0.03472  1.0000
  C   C2946     1.0  0.98770  0.77417  0.41940  1.0000
  H   H2956     1.0  0.53400  0.77885  0.22178  1.0000
  H   H2957     1.0  0.66046  0.62033  0.12856  1.0000
  Fe  Fe499     1.0  0.99005  0.60028  0.43839  1.0000
  H   H2958     1.0  0.91944  0.76125  0.36948  1.0000
  H   H2959     1.0  0.51231  0.73844  0.19133  1.0000
  C   C2947     1.0  0.99650  0.72857  0.36894  1.0000
  H   H2960     1.0  0.94835  0.77744  0.44444  1.0000
  C   C2948     1.0  0.56276  0.66051  0.99847  1.0000
  C   C2949     1.0  0.94502  0.59335  0.35415  1.0000
  H   H2961     1.0  0.86724  0.76212  0.41533  1.0000
  C   C2950     1.0  0.92121  0.72689  0.47914  1.0000
  H   H2962     1.0  0.52673  0.76659  0.23752  1.0000
  S   S989      1.0  0.51288  0.59804  0.06555  1.0000
  H   H2963     1.0  0.50422  0.60652  0.01745  1.0000
  H   H2964     1.0  0.97512  0.72571  0.37059  1.0000
  H   H2965     1.0  0.96280  0.74771  0.48027  1.0000
  H   H2966     1.0  0.50263  0.77241  0.23328  1.0000
  H   H2967     1.0  0.50896  0.71796  0.16041  1.0000
  C   C2951     1.0  0.56975  0.78662  0.19639  1.0000
  H   H2968     1.0  0.68081  0.63294  0.11802  1.0000
  H   H2969     1.0  0.68097  0.59907  0.09302  1.0000
  H   H2970     1.0  0.99290  0.73469  0.37720  1.0000
  H   H2971     1.0  0.68608  0.61751  0.05282  1.0000
  H   H2972     1.0  0.52413  0.72506  0.17206  1.0000
  H   H2973     1.0  0.72425  0.59553  0.03324  1.0000
  H   H2974     1.0  0.99904  0.60253  0.31202  1.0000
  C   C2952     1.0  0.98450  0.59276  0.39668  1.0000
  H   H2975     1.0  0.99699  0.69304  0.40860  1.0000
  H   H2976     1.0  0.50741  0.63399  0.06648  1.0000
  C   C2953     1.0  0.56604  0.78701  0.10543  1.0000
  H   H2977     1.0  0.53488  0.78004  0.11780  1.0000
  C   C2954     1.0  0.68304  0.62131  0.12051  1.0000
  C   C2955     1.0  0.50368  0.59734  0.05309  1.0000
  C   C2956     1.0  0.72849  0.59163  0.02350  1.0000
  H   H2978     1.0  0.99898  0.66978  0.40309  1.0000
  H   H2979     1.0  0.94278  0.74524  0.47350  1.0000
  H   H2980     1.0  0.98227  0.78387  0.45958  1.0000
  C   C2957     1.0  0.50724  0.76923  0.22313  1.0000
  H   H2981     1.0  0.99238  0.65825  0.28717  1.0000
  N   N249      1.0  0.51347  0.78234  0.11523  1.0000
  C   C2958     1.0  0.51237  0.72756  0.17556  1.0000
  H   H2982     1.0  0.55646  0.78759  0.21743  1.0000
  H   H2983     1.0  0.99603  0.64205  0.45648  1.0000
  C   C2959     1.0  0.99928  0.64042  0.46673  1.0000
  S   S990      1.0  0.94919  0.78899  0.40720  1.0000
  C   C2960     1.0  0.96557  0.78788  0.41158  1.0000
  C   C2961     1.0  0.93833  0.78906  0.48402  1.0000
  C   C2962     1.0  0.00059  0.59525  0.28413  1.0000
  C   C2963     1.0  0.67454  0.59929  0.12896  1.0000
  C   C2964     1.0  0.99114  0.78689  0.41945  1.0000
  H   H2984     1.0  0.00157  0.61732  0.28096  1.0000
  C   C2965     1.0  0.58136  0.79130  0.18597  1.0000
  H   H2985     1.0  0.58297  0.62440  0.98753  1.0000
  N   N250      1.0  0.70006  0.59870  0.11966  1.0000
  C   C2966     1.0  0.93471  0.59224  0.22290  1.0000
  H   H2986     1.0  0.94598  0.59280  0.22113  1.0000
  C   C2967     1.0  0.93678  0.59219  0.34533  1.0000
  H   H2987     1.0  0.89876  0.79018  0.46278  1.0000
  C   C2968     1.0  0.68892  0.59164  0.12551  1.0000
  C   C2969     1.0  0.69021  0.66037  0.95578  1.0000
  H   H2988     1.0  0.51171  0.75432  0.89956  1.0000
  H   H2989     1.0  0.68862  0.65904  0.93527  1.0000
  C   C2970     1.0  0.70748  0.64114  0.96687  1.0000
  S   S991      1.0  0.96197  0.60489  0.69312  1.0000
  C   C2971     1.0  0.57224  0.66041  0.98507  1.0000
  H   H2990     1.0  0.92745  0.66905  0.57421  1.0000
  C   C2972     1.0  0.51036  0.75632  0.92082  1.0000
  H   H2991     1.0  0.70627  0.64325  0.92136  1.0000
  C   C2973     1.0  0.57950  0.64741  0.98106  1.0000
  C   C2974     1.0  0.93767  0.77314  0.54898  1.0000
  Fe  Fe500     1.0  0.56600  0.78877  0.86693  1.0000
  S   S992      1.0  0.68467  0.60048  0.94155  1.0000
  H   H2992     1.0  0.71254  0.63573  0.97590  1.0000
  H   H2993     1.0  0.57953  0.74619  0.93165  1.0000
  Fe  Fe501     1.0  0.63252  0.66967  0.95919  1.0000
  S   S993      1.0  0.62426  0.69330  0.95813  1.0000
  S   S994      1.0  0.65492  0.65815  0.96277  1.0000
  Fe  Fe502     1.0  0.60294  0.66543  0.96016  1.0000
  S   S995      1.0  0.59201  0.68862  0.95918  1.0000
  S   S996      1.0  0.59187  0.64737  0.96453  1.0000
  Fe  Fe503     1.0  0.61195  0.69278  0.94246  1.0000
  S   S997      1.0  0.61158  0.71111  0.92302  1.0000
  H   H2994     1.0  0.94451  0.70450  0.51767  1.0000
  H   H2995     1.0  0.66285  0.62471  0.93199  1.0000
  S   S998      1.0  0.62200  0.66949  0.94205  1.0000
  C   C2975     1.0  0.66287  0.64215  0.95678  1.0000
  C   C2976     1.0  0.64570  0.60202  0.95538  1.0000
  H   H2996     1.0  0.70263  0.62676  0.93339  1.0000
  S   S999      1.0  0.55629  0.77171  0.86494  1.0000
  C   C2977     1.0  0.52683  0.77559  0.93840  1.0000
  S   S1000     1.0  0.72329  0.59826  0.94564  1.0000
  S   S1001     1.0  0.52975  0.78107  0.89128  1.0000
  H   H2997     1.0  0.93081  0.74903  0.56651  1.0000
  Fe  Fe504     1.0  0.55171  0.76603  0.88902  1.0000
  S   S1002     1.0  0.55232  0.74419  0.90386  1.0000
  H   H2998     1.0  0.60494  0.73952  0.93094  1.0000
  H   H2999     1.0  0.71952  0.62532  0.95467  1.0000
  C   C2978     1.0  0.95779  0.78628  0.49577  1.0000
  C   C2979     1.0  0.51292  0.76859  0.86636  1.0000
  C   C2980     1.0  0.56371  0.73664  0.94844  1.0000
  H   H3000     1.0  0.61178  0.72639  0.94506  1.0000
  H   H3001     1.0  0.94347  0.77174  0.50169  1.0000
  H   H3002     1.0  0.88483  0.76178  0.56887  1.0000
  H   H3003     1.0  0.68874  0.61164  0.96352  1.0000
  H   H3004     1.0  0.68150  0.66990  0.95626  1.0000
  C   C2981     1.0  0.62763  0.62594  0.96493  1.0000
  H   H3005     1.0  0.95831  0.70593  0.52555  1.0000
  C   C2982     1.0  0.51614  0.78130  0.94917  1.0000
  C   C2983     1.0  0.57214  0.78480  0.82577  1.0000
  C   C2984     1.0  0.92198  0.68513  0.55576  1.0000
  Fe  Fe505     1.0  0.98076  0.65552  0.62227  1.0000
  S   S1003     1.0  0.98307  0.67521  0.60487  1.0000
  S   S1004     1.0  0.98569  0.65364  0.64341  1.0000
  Fe  Fe506     1.0  0.97816  0.63898  0.60206  1.0000
  S   S1005     1.0  0.98094  0.65704  0.58284  1.0000
  H   H3006     1.0  0.94592  0.76540  0.55469  1.0000
  C   C2985     1.0  0.89554  0.76427  0.56539  1.0000
  H   H3007     1.0  0.63925  0.63397  0.98149  1.0000
  Fe  Fe507     1.0  0.96550  0.67073  0.59760  1.0000
  S   S1006     1.0  0.94517  0.68609  0.59190  1.0000
  S   S1007     1.0  0.56336  0.78162  0.89077  1.0000
  S   S1008     1.0  0.96169  0.65239  0.61640  1.0000
  C   C2986     1.0  0.71139  0.63528  0.95479  1.0000
  H   H3008     1.0  0.96407  0.78018  0.50368  1.0000
  Fe  Fe508     1.0  0.91433  0.73502  0.51250  1.0000
  S   S1009     1.0  0.89963  0.75621  0.50564  1.0000
  S   S1010     1.0  0.91719  0.71376  0.50755  1.0000
  Fe  Fe509     1.0  0.92898  0.74638  0.52829  1.0000
  S   S1011     1.0  0.91590  0.76884  0.52298  1.0000
  S   S1012     1.0  0.94752  0.73958  0.53960  1.0000
  Fe  Fe510     1.0  0.89697  0.75859  0.52795  1.0000
  S   S1013     1.0  0.87554  0.76828  0.54076  1.0000
  Fe  Fe511     1.0  0.91944  0.76506  0.50112  1.0000
  C   C2987     1.0  0.62537  0.62224  0.95336  1.0000
  S   S1014     1.0  0.90966  0.73638  0.53536  1.0000
  S   S1015     1.0  0.93449  0.74366  0.50577  1.0000
  S   S1016     1.0  0.97336  0.61815  0.60245  1.0000
  C   C2988     1.0  0.89730  0.77767  0.55684  1.0000
  H   H3009     1.0  0.57368  0.67042  0.97772  1.0000
  H   H3010     1.0  0.65648  0.59967  0.97204  1.0000
  N   N251      1.0  0.63875  0.61797  0.97144  1.0000
  H   H3011     1.0  0.00147  0.62159  0.58412  1.0000
  Fe  Fe512     1.0  0.60510  0.68718  0.97480  1.0000
  C   C2989     1.0  0.50763  0.78283  0.85992  1.0000
  H   H3012     1.0  0.97806  0.61880  0.62930  1.0000
  C   C2990     1.0  0.64757  0.60598  0.96700  1.0000
  S   S1017     1.0  0.00053  0.59171  0.70396  1.0000
  H   H3013     1.0  0.72062  0.63034  0.92868  1.0000
  C   C2991     1.0  0.60318  0.73620  0.94279  1.0000
  Fe  Fe513     1.0  0.99833  0.65969  0.59195  1.0000
  C   C2992     1.0  0.92142  0.75721  0.56389  1.0000
  H   H3014     1.0  0.63306  0.60740  0.93939  1.0000
  H   H3015     1.0  0.82112  0.78174  0.51614  1.0000
  H   H3016     1.0  0.61657  0.62873  0.94820  1.0000
  C   C2993     1.0  0.94612  0.78151  0.49462  1.0000
  H   H3017     1.0  0.93794  0.78412  0.54930  1.0000
  C   C2994     1.0  0.50453  0.75681  0.90944  1.0000
  H   H3018     1.0  0.65315  0.59287  0.95151  1.0000
  C   C2995     1.0  0.69431  0.65417  0.94390  1.0000
  H   H3019     1.0  0.59499  0.71972  0.96835  1.0000
  C   C2996     1.0  0.93141  0.67636  0.56445  1.0000
  C   C2997     1.0  0.95849  0.59445  0.66195  1.0000
  H   H3020     1.0  0.69346  0.65828  0.97676  1.0000
  H   H3021     1.0  0.59389  0.78706  0.81469  1.0000
  H   H3022     1.0  0.55506  0.74131  0.94263  1.0000
  C   C2998     1.0  0.95839  0.61127  0.63926  1.0000
  N   N252      1.0  0.97956  0.60412  0.64927  1.0000
  C   C2999     1.0  0.94624  0.70096  0.57746  1.0000
  C   C3000     1.0  0.93345  0.70891  0.57300  1.0000
  C   C3001     1.0  0.93384  0.72056  0.56124  1.0000
  C   C3002     1.0  0.94700  0.72455  0.55399  1.0000
  C   C3003     1.0  0.95982  0.71668  0.55851  1.0000
  C   C3004     1.0  0.95948  0.70479  0.57014  1.0000
  H   H3023     1.0  0.92319  0.70595  0.57863  1.0000
  H   H3024     1.0  0.92389  0.72663  0.55804  1.0000
  H   H3025     1.0  0.97003  0.71977  0.55299  1.0000
  H   H3026     1.0  0.96939  0.69869  0.57355  1.0000
  H   H3027     1.0  0.90642  0.74347  0.57555  1.0000
  S   S1018     1.0  0.50889  0.76990  0.96475  1.0000
  C   C3005     1.0  0.98116  0.59811  0.58640  1.0000
  C   C3006     1.0  0.94597  0.67724  0.56070  1.0000
  C   C3007     1.0  0.95085  0.68713  0.54844  1.0000
  H   H3028     1.0  0.60456  0.74478  0.94701  1.0000
  C   C3008     1.0  0.96817  0.61904  0.67983  1.0000
  C   C3009     1.0  0.96020  0.62667  0.66936  1.0000
  C   C3010     1.0  0.96559  0.63720  0.65800  1.0000
  C   C3011     1.0  0.97867  0.64052  0.65742  1.0000
  C   C3012     1.0  0.98639  0.63325  0.66813  1.0000
  C   C3013     1.0  0.98124  0.62241  0.67921  1.0000
  H   H3029     1.0  0.94997  0.62424  0.66989  1.0000
  H   H3030     1.0  0.95946  0.64295  0.64987  1.0000
  C   C3014     1.0  0.97279  0.59523  0.66074  1.0000
  H   H3031     1.0  0.98723  0.61692  0.68743  1.0000
  C   C3015     1.0  0.64081  0.62211  0.98357  1.0000
  H   H3032     1.0  0.95296  0.61758  0.63070  1.0000
  C   C3016     1.0  0.57761  0.73935  0.94226  1.0000
  C   C3017     1.0  0.56115  0.72770  0.96200  1.0000
  C   C3018     1.0  0.66585  0.62675  0.94073  1.0000
  H   H3033     1.0  0.67661  0.63404  0.97200  1.0000
  C   C3019     1.0  0.92726  0.69479  0.54347  1.0000
  C   C3020     1.0  0.58624  0.72453  0.96268  1.0000
  N   N253      1.0  0.58871  0.73313  0.94929  1.0000
  C   C3021     1.0  0.98508  0.60930  0.58927  1.0000
  C   C3022     1.0  0.99835  0.61302  0.58185  1.0000
  N   N254      1.0  0.94151  0.69574  0.54001  1.0000
  H   H3034     1.0  0.52208  0.75353  0.91979  1.0000
  H   H3035     1.0  0.99617  0.61600  0.64279  1.0000
  H   H3036     1.0  0.94057  0.71726  0.52872  1.0000
  H   H3037     1.0  0.53994  0.78020  0.91716  1.0000
  H   H3038     1.0  0.53110  0.76413  0.93995  1.0000
  H   H3039     1.0  0.99643  0.63593  0.66782  1.0000
  H   H3040     1.0  0.52391  0.76518  0.86802  1.0000
  C   C3023     1.0  0.65894  0.63947  0.94555  1.0000
  C   C3024     1.0  0.63454  0.61025  0.94851  1.0000
  C   C3025     1.0  0.70879  0.63526  0.93111  1.0000
  S   S1019     1.0  0.99685  0.64024  0.60978  1.0000
  H   H3041     1.0  0.57552  0.77757  0.83521  1.0000
  H   H3042     1.0  0.94084  0.69459  0.49335  1.0000
  H   H3043     1.0  0.55044  0.72545  0.96689  1.0000
  N   N255      1.0  0.70492  0.64188  0.94344  1.0000
  H   H3044     1.0  0.65074  0.64726  0.94045  1.0000
  H   H3045     1.0  0.95328  0.67071  0.56761  1.0000
  C   C3026     1.0  0.97264  0.61190  0.63849  1.0000
  C   C3027     1.0  0.57246  0.72164  0.96922  1.0000
  C   C3028     1.0  0.59511  0.71983  0.91751  1.0000
  C   C3029     1.0  0.58247  0.71451  0.92362  1.0000
  C   C3030     1.0  0.56943  0.72199  0.91926  1.0000
  C   C3031     1.0  0.56891  0.73488  0.90887  1.0000
  C   C3032     1.0  0.58155  0.74021  0.90279  1.0000
  C   C3033     1.0  0.59461  0.73266  0.90705  1.0000
  H   H3046     1.0  0.58275  0.70458  0.93160  1.0000
  H   H3047     1.0  0.55972  0.71776  0.92395  1.0000
  H   H3048     1.0  0.58132  0.75005  0.89468  1.0000
  H   H3049     1.0  0.60437  0.73680  0.90221  1.0000
  C   C3034     1.0  0.94654  0.70632  0.52735  1.0000
  C   C3035     1.0  0.95126  0.60254  0.65112  1.0000
  H   H3050     1.0  0.91986  0.70163  0.53678  1.0000
  H   H3051     1.0  0.91062  0.68456  0.55857  1.0000
  H   H3052     1.0  0.91256  0.79078  0.54479  1.0000
  H   H3053     1.0  0.54940  0.78516  0.83434  1.0000
  C   C3036     1.0  0.69682  0.65378  0.96734  1.0000
  H   H3054     1.0  0.62051  0.63529  0.96859  1.0000
  H   H3055     1.0  0.96205  0.68811  0.54597  1.0000
  S   S1020     1.0  0.61427  0.66369  0.97725  1.0000
  C   C3037     1.0  0.67658  0.61664  0.94722  1.0000
  C   C3038     1.0  0.68047  0.61934  0.95846  1.0000
  C   C3039     1.0  0.67361  0.63205  0.96324  1.0000
  C   C3040     1.0  0.90764  0.75399  0.56905  1.0000
  Fe  Fe514     1.0  0.53551  0.78838  0.86756  1.0000
  H   H3056     1.0  0.97091  0.59521  0.59214  1.0000
  N   N256      1.0  0.92307  0.77032  0.55536  1.0000
  C   C3041     1.0  0.53178  0.78470  0.92548  1.0000
  H   H3057     1.0  0.50837  0.74745  0.87483  1.0000
  H   H3058     1.0  0.94012  0.60214  0.65196  1.0000
  S   S1021     1.0  0.72273  0.60454  0.98290  1.0000
  C   C3042     1.0  0.92567  0.71485  0.48946  1.0000
  C   C3043     1.0  0.99446  0.60502  0.64829  1.0000
  C   C3044     1.0  0.91122  0.78054  0.55189  1.0000
  C   C3045     1.0  0.86865  0.78580  0.53194  1.0000
  H   H3059     1.0  0.57067  0.71462  0.97976  1.0000
  C   C3046     1.0  0.50414  0.75857  0.87021  1.0000
  H   H3060     1.0  0.94096  0.77201  0.53769  1.0000
  H   H3061     1.0  0.88767  0.78681  0.51477  1.0000
  H   H3062     1.0  0.99667  0.60286  0.65910  1.0000
  H   H3063     1.0  0.50565  0.75882  0.94239  1.0000
  C   C3047     1.0  0.58250  0.79010  0.81420  1.0000
  C   C3048     1.0  0.55741  0.78926  0.82525  1.0000
  H   H3064     1.0  0.84839  0.78815  0.54752  1.0000
  H   H3065     1.0  0.65202  0.61746  0.98533  1.0000
  H   H3066     1.0  0.88796  0.78554  0.55360  1.0000
  H   H3067     1.0  0.00232  0.59713  0.64232  1.0000
  H   H3068     1.0  0.80309  0.79062  0.51290  1.0000
  C   C3049     1.0  0.59812  0.84161  0.10417  1.0000
  S   S1022     1.0  0.88416  0.89182  0.43518  1.0000
  C   C3050     1.0  0.65457  0.94395  0.37970  1.0000
  C   C3051     1.0  0.76881  0.85299  0.42650  1.0000
  S   S1023     1.0  0.97121  0.85580  0.42871  1.0000
  Fe  Fe515     1.0  0.57514  0.86496  0.21318  1.0000
  S   S1024     1.0  0.56073  0.86569  0.23479  1.0000
  S   S1025     1.0  0.57864  0.88466  0.19635  1.0000
  Fe  Fe516     1.0  0.57826  0.84754  0.24255  1.0000
  S   S1026     1.0  0.58453  0.84854  0.26251  1.0000
  S   S1027     1.0  0.59330  0.84791  0.22092  1.0000
  S   S1028     1.0  0.58235  0.94308  0.15307  1.0000
  Fe  Fe517     1.0  0.58080  0.87152  0.13257  1.0000
  S   S1029     1.0  0.56206  0.88376  0.14621  1.0000
  S   S1030     1.0  0.60212  0.86338  0.13919  1.0000
  Fe  Fe518     1.0  0.56229  0.87038  0.11372  1.0000
  S   S1031     1.0  0.54173  0.88249  0.12574  1.0000
  S   S1032     1.0  0.56479  0.85943  0.09618  1.0000
  Fe  Fe519     1.0  0.55611  0.89657  0.12557  1.0000
  S   S1033     1.0  0.54788  0.92043  0.12283  1.0000
  Fe  Fe520     1.0  0.54949  0.86876  0.14526  1.0000
  S   S1034     1.0  0.57614  0.88559  0.11184  1.0000
  S   S1035     1.0  0.56871  0.85535  0.13336  1.0000
  S   S1036     1.0  0.79222  0.82209  0.44689  1.0000
  H   H3069     1.0  0.55783  0.87513  0.18143  1.0000
  H   H3070     1.0  0.70615  0.96791  0.42696  1.0000
  C   C3052     1.0  0.53199  0.82492  0.22901  1.0000
  H   H3071     1.0  0.86498  0.88307  0.46229  1.0000
  Fe  Fe521     1.0  0.98607  0.83570  0.43781  1.0000
  H   H3072     1.0  0.52812  0.88702  0.16995  1.0000
  Fe  Fe522     1.0  0.88776  0.92791  0.46034  1.0000
  Fe  Fe523     1.0  0.72071  0.93256  0.36395  1.0000
  S   S1037     1.0  0.69764  0.93336  0.36467  1.0000
  S   S1038     1.0  0.72646  0.95424  0.35745  1.0000
  Fe  Fe524     1.0  0.72828  0.90020  0.37071  1.0000
  S   S1039     1.0  0.70548  0.89831  0.37198  1.0000
  S   S1040     1.0  0.74613  0.88040  0.37496  1.0000
  Fe  Fe525     1.0  0.70594  0.91606  0.35231  1.0000
  S   S1041     1.0  0.69320  0.92187  0.33496  1.0000
  Fe  Fe526     1.0  0.69867  0.91578  0.38407  1.0000
  S   S1042     1.0  0.67836  0.91783  0.40132  1.0000
  S   S1043     1.0  0.72931  0.91663  0.34983  1.0000
  S   S1044     1.0  0.72124  0.91620  0.38461  1.0000
  S   S1045     1.0  0.66575  0.96635  0.30060  1.0000
  Fe  Fe527     1.0  0.64793  0.88867  0.30541  1.0000
  S   S1046     1.0  0.64602  0.90240  0.28353  1.0000
  S   S1047     1.0  0.66760  0.88024  0.31549  1.0000
  Fe  Fe528     1.0  0.61595  0.88764  0.31387  1.0000
  S   S1048     1.0  0.61108  0.90180  0.29326  1.0000
  S   S1049     1.0  0.59932  0.87711  0.33074  1.0000
  Fe  Fe529     1.0  0.63165  0.88828  0.28314  1.0000
  S   S1050     1.0  0.63180  0.88031  0.26382  1.0000
  Fe  Fe530     1.0  0.62552  0.91465  0.29547  1.0000
  S   S1051     1.0  0.61864  0.93868  0.29276  1.0000
  S   S1052     1.0  0.63576  0.87330  0.30377  1.0000
  S   S1053     1.0  0.62826  0.90178  0.31723  1.0000
  H   H3073     1.0  0.87342  0.81456  0.43160  1.0000
  Fe  Fe531     1.0  0.59308  0.93361  0.37155  1.0000
  S   S1054     1.0  0.61214  0.91921  0.37989  1.0000
  S   S1055     1.0  0.51847  0.83480  0.05889  1.0000
  Fe  Fe532     1.0  0.57202  0.92698  0.39966  1.0000
  S   S1056     1.0  0.58947  0.91249  0.41097  1.0000
  S   S1057     1.0  0.54811  0.93007  0.40971  1.0000
  Fe  Fe533     1.0  0.60248  0.92922  0.39881  1.0000
  S   S1058     1.0  0.62001  0.93663  0.40314  1.0000
  Fe  Fe534     1.0  0.59771  0.90393  0.39106  1.0000
  S   S1059     1.0  0.60452  0.88064  0.39088  1.0000
  S   S1060     1.0  0.58412  0.94466  0.38974  1.0000
  S   S1061     1.0  0.57957  0.91714  0.38052  1.0000
  H   H3074     1.0  0.75673  0.87913  0.43767  1.0000
  H   H3075     1.0  0.72893  0.98234  0.35688  1.0000
  Fe  Fe535     1.0  0.62194  0.97308  0.45728  1.0000
  S   S1062     1.0  0.64116  0.95633  0.46352  1.0000
  C   C3053     1.0  0.59887  0.98347  0.41358  1.0000
  C   C3054     1.0  0.81003  0.88704  0.46006  1.0000
  C   C3055     1.0  0.99187  0.87108  0.44443  1.0000
  Fe  Fe536     1.0  0.65406  0.97170  0.44775  1.0000
  S   S1063     1.0  0.67524  0.96621  0.43229  1.0000
  C   C3056     1.0  0.57443  0.84040  0.17279  1.0000
  Fe  Fe537     1.0  0.82785  0.85287  0.43506  1.0000
  S   S1064     1.0  0.80414  0.85846  0.43495  1.0000
  S   S1065     1.0  0.83547  0.85629  0.45282  1.0000
  Fe  Fe538     1.0  0.83599  0.83725  0.41113  1.0000
  S   S1066     1.0  0.81290  0.84093  0.40906  1.0000
  Fe  Fe539     1.0  0.81093  0.86333  0.41107  1.0000
  S   S1067     1.0  0.79737  0.88369  0.40022  1.0000
  Fe  Fe540     1.0  0.80773  0.83584  0.43305  1.0000
  S   S1068     1.0  0.83454  0.86016  0.41129  1.0000
  S   S1069     1.0  0.83091  0.82986  0.43491  1.0000
  H   H3076     1.0  0.66142  0.90146  0.34778  1.0000
  C   C3057     1.0  0.61529  0.94411  0.41810  1.0000
  C   C3058     1.0  0.60148  0.94473  0.42716  1.0000
  C   C3059     1.0  0.59768  0.95165  0.43855  1.0000
  C   C3060     1.0  0.60775  0.95780  0.44091  1.0000
  C   C3061     1.0  0.62163  0.95689  0.43200  1.0000
  C   C3062     1.0  0.62535  0.95015  0.42054  1.0000
  H   H3077     1.0  0.59370  0.94000  0.42531  1.0000
  C   C3063     1.0  0.64221  0.88808  0.37988  1.0000
  H   H3078     1.0  0.62938  0.96169  0.43374  1.0000
  H   H3079     1.0  0.52007  0.92378  0.41379  1.0000
  C   C3064     1.0  0.52468  0.92584  0.37822  1.0000
  C   C3065     1.0  0.89203  0.95470  0.47630  1.0000
  C   C3066     1.0  0.52488  0.92590  0.40246  1.0000
  C   C3067     1.0  0.53826  0.93004  0.39751  1.0000
  C   C3068     1.0  0.54421  0.93312  0.38282  1.0000
  C   C3069     1.0  0.53756  0.93083  0.37323  1.0000
  C   C3070     1.0  0.70506  0.97279  0.31383  1.0000
  S   S1070     1.0  0.61894  0.98474  0.47439  1.0000
  H   H3080     1.0  0.55393  0.93734  0.37884  1.0000
  H   H3081     1.0  0.54235  0.93295  0.36191  1.0000
  C   C3071     1.0  0.60097  0.87792  0.34742  1.0000
  C   C3072     1.0  0.60017  0.86603  0.35887  1.0000
  C   C3073     1.0  0.60173  0.86667  0.37219  1.0000
  C   C3074     1.0  0.60371  0.87932  0.37408  1.0000
  C   C3075     1.0  0.60425  0.89126  0.36268  1.0000
  C   C3076     1.0  0.60302  0.89052  0.34933  1.0000
  H   H3082     1.0  0.59860  0.85627  0.35739  1.0000
  H   H3083     1.0  0.60122  0.85745  0.38103  1.0000
  H   H3084     1.0  0.60582  0.90105  0.36404  1.0000
  H   H3085     1.0  0.60338  0.89981  0.34059  1.0000
  C   C3077     1.0  0.89614  0.96193  0.48420  1.0000
  C   C3078     1.0  0.62489  0.88635  0.15926  1.0000
  Fe  Fe541     1.0  0.98880  0.81259  0.46440  1.0000
  C   C3079     1.0  0.65232  0.95844  0.29940  1.0000
  C   C3080     1.0  0.65655  0.94511  0.29564  1.0000
  C   C3081     1.0  0.64618  0.93882  0.29398  1.0000
  C   C3082     1.0  0.63157  0.94601  0.29572  1.0000
  C   C3083     1.0  0.62734  0.95939  0.29939  1.0000
  C   C3084     1.0  0.63767  0.96553  0.30138  1.0000
  H   H3086     1.0  0.66789  0.93962  0.29388  1.0000
  H   H3087     1.0  0.64957  0.92856  0.29101  1.0000
  H   H3088     1.0  0.61604  0.96499  0.30079  1.0000
  H   H3089     1.0  0.63821  0.96587  0.26641  1.0000
  C   C3085     1.0  0.67744  0.93115  0.41010  1.0000
  C   C3086     1.0  0.66493  0.93535  0.42024  1.0000
  C   C3087     1.0  0.66414  0.94614  0.42712  1.0000
  C   C3088     1.0  0.67599  0.95252  0.42406  1.0000
  C   C3089     1.0  0.68858  0.94810  0.41413  1.0000
  C   C3090     1.0  0.68918  0.93767  0.40695  1.0000
  H   H3090     1.0  0.65586  0.93025  0.42280  1.0000
  H   H3091     1.0  0.65444  0.94938  0.43487  1.0000
  H   H3092     1.0  0.69796  0.95261  0.41199  1.0000
  H   H3093     1.0  0.69884  0.93457  0.39914  1.0000
  C   C3091     1.0  0.76109  0.88181  0.38062  1.0000
  C   C3092     1.0  0.76186  0.89472  0.38303  1.0000
  C   C3093     1.0  0.77328  0.89523  0.38866  1.0000
  C   C3094     1.0  0.78387  0.88281  0.39214  1.0000
  C   C3095     1.0  0.78321  0.86994  0.38956  1.0000
  C   C3096     1.0  0.77197  0.86950  0.38365  1.0000
  H   H3094     1.0  0.75367  0.90432  0.38059  1.0000
  H   H3095     1.0  0.77378  0.90526  0.39049  1.0000
  H   H3096     1.0  0.79139  0.86035  0.39203  1.0000
  H   H3097     1.0  0.77151  0.85950  0.38172  1.0000
  C   C3097     1.0  0.68645  0.90998  0.32963  1.0000
  C   C3098     1.0  0.67602  0.91576  0.32121  1.0000
  C   C3099     1.0  0.67007  0.90676  0.31692  1.0000
  C   C3100     1.0  0.67476  0.89187  0.32077  1.0000
  C   C3101     1.0  0.68526  0.88608  0.32915  1.0000
  C   C3102     1.0  0.69102  0.89508  0.33366  1.0000
  H   H3098     1.0  0.67243  0.92724  0.31805  1.0000
  H   H3099     1.0  0.66200  0.91133  0.31049  1.0000
  H   H3100     1.0  0.68895  0.87456  0.33215  1.0000
  H   H3101     1.0  0.69908  0.89049  0.34012  1.0000
  H   H3102     1.0  0.63404  0.88171  0.38478  1.0000
  H   H3103     1.0  0.89084  0.79247  0.44051  1.0000
  C   C3103     1.0  0.72660  0.95389  0.38511  1.0000
  C   C3104     1.0  0.72736  0.96179  0.37103  1.0000
  C   C3105     1.0  0.72822  0.97621  0.36776  1.0000
  H   H3104     1.0  0.57480  0.82681  0.15300  1.0000
  N   N257      1.0  0.82102  0.89472  0.45036  1.0000
  H   H3105     1.0  0.72595  0.94277  0.38775  1.0000
  H   H3106     1.0  0.69388  0.96955  0.29981  1.0000
  S   S1071     1.0  0.90397  0.91140  0.44916  1.0000
  C   C3106     1.0  0.59903  0.81766  0.11759  1.0000
  H   H3107     1.0  0.62373  0.87234  0.18020  1.0000
  H   H3108     1.0  0.75995  0.88886  0.41918  1.0000
  C   C3107     1.0  0.62038  0.90023  0.15160  1.0000
  C   C3108     1.0  0.54851  0.86200  0.09101  1.0000
  C   C3109     1.0  0.53702  0.87360  0.09376  1.0000
  C   C3110     1.0  0.52377  0.87508  0.09023  1.0000
  C   C3111     1.0  0.63911  0.93861  0.35188  1.0000
  C   C3112     1.0  0.53353  0.85336  0.08119  1.0000
  C   C3113     1.0  0.54683  0.85200  0.08453  1.0000
  H   H3109     1.0  0.53221  0.84553  0.07635  1.0000
  H   H3110     1.0  0.55573  0.84305  0.08231  1.0000
  C   C3114     1.0  0.57350  0.93774  0.14312  1.0000
  C   C3115     1.0  0.56123  0.94674  0.13837  1.0000
  C   C3116     1.0  0.55374  0.94169  0.13139  1.0000
  C   C3117     1.0  0.55845  0.92762  0.12933  1.0000
  C   C3118     1.0  0.57101  0.91889  0.13360  1.0000
  C   C3119     1.0  0.57848  0.92391  0.14053  1.0000
  H   H3111     1.0  0.55729  0.95743  0.14036  1.0000
  H   H3112     1.0  0.54406  0.94852  0.12799  1.0000
  H   H3113     1.0  0.57492  0.90823  0.13159  1.0000
  H   H3114     1.0  0.58810  0.91704  0.14392  1.0000
  C   C3120     1.0  0.59599  0.85981  0.26189  1.0000
  C   C3121     1.0  0.60661  0.86345  0.24965  1.0000
  C   C3122     1.0  0.61718  0.87024  0.25024  1.0000
  C   C3123     1.0  0.61707  0.87376  0.26295  1.0000
  C   C3124     1.0  0.60595  0.87085  0.27495  1.0000
  C   C3125     1.0  0.59556  0.86381  0.27445  1.0000
  H   H3115     1.0  0.60710  0.86045  0.23991  1.0000
  H   H3116     1.0  0.62570  0.87249  0.24088  1.0000
  H   H3117     1.0  0.60570  0.87351  0.28480  1.0000
  H   H3118     1.0  0.58738  0.86109  0.28397  1.0000
  C   C3126     1.0  0.58688  0.87897  0.18037  1.0000
  C   C3127     1.0  0.59367  0.86455  0.18059  1.0000
  C   C3128     1.0  0.59962  0.85987  0.16777  1.0000
  C   C3129     1.0  0.59844  0.86958  0.15478  1.0000
  C   C3130     1.0  0.59214  0.88405  0.15455  1.0000
  C   C3131     1.0  0.58641  0.88879  0.16733  1.0000
  H   H3119     1.0  0.59419  0.85690  0.19062  1.0000
  H   H3120     1.0  0.60443  0.84863  0.16800  1.0000
  H   H3121     1.0  0.59133  0.89150  0.14445  1.0000
  H   H3122     1.0  0.58127  0.89996  0.16709  1.0000
  C   C3132     1.0  0.51625  0.85791  0.15282  1.0000
  H   H3123     1.0  0.53450  0.84414  0.11661  1.0000
  C   C3133     1.0  0.93998  0.88440  0.44870  1.0000
  N   N258      1.0  0.59525  0.82839  0.10637  1.0000
  C   C3134     1.0  0.86550  0.80966  0.40705  1.0000
  C   C3135     1.0  0.65756  0.89906  0.35925  1.0000
  S   S1072     1.0  0.85612  0.82579  0.39790  1.0000
  C   C3136     1.0  0.94979  0.87755  0.43814  1.0000
  H   H3124     1.0  0.54072  0.82083  0.08792  1.0000
  H   H3125     1.0  0.95038  0.88267  0.42696  1.0000
  H   H3126     1.0  0.54777  0.88172  0.19728  1.0000
  C   C3137     1.0  0.87128  0.88118  0.44032  1.0000
  C   C3138     1.0  0.86878  0.87549  0.43013  1.0000
  C   C3139     1.0  0.85792  0.86763  0.43390  1.0000
  C   C3140     1.0  0.84962  0.86539  0.44789  1.0000
  C   C3141     1.0  0.85246  0.87067  0.45817  1.0000
  C   C3142     1.0  0.86320  0.87864  0.45439  1.0000
  H   H3127     1.0  0.87503  0.87742  0.41924  1.0000
  H   H3128     1.0  0.85588  0.86348  0.42593  1.0000
  H   H3129     1.0  0.84611  0.86887  0.46902  1.0000
  H   H3130     1.0  0.64312  0.89127  0.40011  1.0000
  C   C3143     1.0  0.50233  0.85286  0.26717  1.0000
  H   H3131     1.0  0.60721  0.85486  0.11155  1.0000
  S   S1073     1.0  0.50799  0.80245  0.22066  1.0000
  C   C3144     1.0  0.58717  0.82597  0.09730  1.0000
  H   H3132     1.0  0.93558  0.96295  0.48198  1.0000
  H   H3133     1.0  0.63602  0.87679  0.36242  1.0000
  N   N259      1.0  0.70709  0.94999  0.30885  1.0000
  C   C3145     1.0  0.71661  0.94355  0.31768  1.0000
  C   C3146     1.0  0.70137  0.96443  0.30684  1.0000
  C   C3147     1.0  0.72054  0.95161  0.32481  1.0000
  C   C3148     1.0  0.87020  0.83450  0.46907  1.0000
  H   H3134     1.0  0.80615  0.88105  0.45457  1.0000
  C   C3149     1.0  0.70283  0.94154  0.30148  1.0000
  H   H3135     1.0  0.72105  0.93207  0.31944  1.0000
  H   H3136     1.0  0.96569  0.79191  0.44272  1.0000
  H   H3137     1.0  0.72808  0.94650  0.33181  1.0000
  H   H3138     1.0  0.94590  0.83110  0.44635  1.0000
  C   C3150     1.0  0.57201  0.80090  0.21161  1.0000
  H   H3139     1.0  0.63601  0.94974  0.41350  1.0000
  H   H3140     1.0  0.70824  0.92999  0.30397  1.0000
  H   H3141     1.0  0.88989  0.94419  0.48115  1.0000
  C   C3151     1.0  0.89330  0.97494  0.45617  1.0000
  N   N260      1.0  0.70696  0.97763  0.44291  1.0000
  H   H3142     1.0  0.58693  0.95235  0.44546  1.0000
  H   H3143     1.0  0.66589  0.94414  0.37949  1.0000
  C   C3152     1.0  0.60513  0.84430  0.11321  1.0000
  H   H3144     1.0  0.84040  0.89962  0.41616  1.0000
  H   H3145     1.0  0.62283  0.84653  0.30709  1.0000
  Fe  Fe542     1.0  0.50480  0.84494  0.07715  1.0000
  H   H3146     1.0  0.51485  0.88401  0.09244  1.0000
  H   H3147     1.0  0.71738  0.97262  0.32870  1.0000
  C   C3153     1.0  0.60262  0.96167  0.34829  1.0000
  N   N261      1.0  0.65292  0.94337  0.36575  1.0000
  C   C3154     1.0  0.66283  0.94743  0.35353  1.0000
  C   C3155     1.0  0.64104  0.93927  0.36500  1.0000
  C   C3156     1.0  0.59927  0.98261  0.35774  1.0000
  Fe  Fe543     1.0  0.58000  0.98708  0.16820  1.0000
  S   S1074     1.0  0.56947  0.80023  0.12438  1.0000
  C   C3157     1.0  0.82559  0.89383  0.43631  1.0000
  C   C3158     1.0  0.98693  0.87291  0.45850  1.0000
  C   C3159     1.0  0.87677  0.81335  0.44142  1.0000
  C   C3160     1.0  0.88542  0.81076  0.46631  1.0000
  C   C3161     1.0  0.51800  0.81812  0.13975  1.0000
  H   H3148     1.0  0.82144  0.80797  0.46440  1.0000
  C   C3162     1.0  0.50780  0.83992  0.22966  1.0000
  H   H3149     1.0  0.58996  0.97966  0.42166  1.0000
  H   H3150     1.0  0.83694  0.82400  0.46419  1.0000
  N   N262      1.0  0.54213  0.89443  0.17777  1.0000
  C   C3163     1.0  0.53249  0.89600  0.16959  1.0000
  C   C3164     1.0  0.54809  0.90562  0.17684  1.0000
  C   C3165     1.0  0.52852  0.90907  0.16023  1.0000
  C   C3166     1.0  0.54427  0.91887  0.16768  1.0000
  C   C3167     1.0  0.53435  0.92058  0.15941  1.0000
  C   C3168     1.0  0.54695  0.88044  0.18685  1.0000
  H   H3151     1.0  0.91266  0.85795  0.47177  1.0000
  H   H3152     1.0  0.55600  0.90427  0.18307  1.0000
  C   C3169     1.0  0.61355  0.98565  0.39003  1.0000
  H   H3153     1.0  0.54925  0.92765  0.16672  1.0000
  H   H3154     1.0  0.53153  0.93068  0.15199  1.0000
  H   H3155     1.0  0.63425  0.97579  0.30426  1.0000
  H   H3156     1.0  0.50913  0.87687  0.28083  1.0000
  H   H3157     1.0  0.63299  0.93650  0.37461  1.0000
  S   S1075     1.0  0.88826  0.88711  0.47403  1.0000
  H   H3158     1.0  0.63237  0.81900  0.26017  1.0000
  H   H3159     1.0  0.82111  0.88746  0.43216  1.0000
  H   H3160     1.0  0.53839  0.88155  0.09841  1.0000
  N   N263      1.0  0.64746  0.89082  0.36539  1.0000
  H   H3161     1.0  0.59482  0.85023  0.09549  1.0000
  H   H3162     1.0  0.59045  0.81467  0.09608  1.0000
  H   H3163     1.0  0.65123  0.88059  0.34819  1.0000
  C   C3170     1.0  0.64204  0.88532  0.35619  1.0000
  H   H3164     1.0  0.63464  0.89416  0.35036  1.0000
  H   H3165     1.0  0.67153  0.91050  0.36273  1.0000
  H   H3166     1.0  0.93314  0.89479  0.44562  1.0000
  H   H3167     1.0  0.59931  0.92925  0.17577  1.0000
  H   H3168     1.0  0.84283  0.91529  0.45114  1.0000
  C   C3171     1.0  0.65799  0.90147  0.38247  1.0000
  C   C3172     1.0  0.85827  0.80131  0.41926  1.0000
  C   C3173     1.0  0.55426  0.81214  0.10329  1.0000
  N   N264      1.0  0.58256  0.93407  0.32464  1.0000
  C   C3174     1.0  0.57532  0.93085  0.33862  1.0000
  C   C3175     1.0  0.58529  0.92472  0.31599  1.0000
  C   C3176     1.0  0.57038  0.91808  0.34418  1.0000
  C   C3177     1.0  0.58035  0.91195  0.32116  1.0000
  C   C3178     1.0  0.57287  0.90863  0.33534  1.0000
  C   C3179     1.0  0.58820  0.94719  0.31905  1.0000
  H   H3169     1.0  0.57341  0.93810  0.34559  1.0000
  H   H3170     1.0  0.59143  0.92709  0.30505  1.0000
  H   H3171     1.0  0.56480  0.91549  0.35529  1.0000
  H   H3172     1.0  0.58259  0.90447  0.31435  1.0000
  H   H3173     1.0  0.56936  0.89856  0.33950  1.0000
  H   H3174     1.0  0.58779  0.95165  0.30762  1.0000
  H   H3175     1.0  0.58190  0.95559  0.32512  1.0000
  H   H3176     1.0  0.59972  0.94471  0.31991  1.0000
  N   N265      1.0  0.92405  0.86319  0.43581  1.0000
  C   C3180     1.0  0.91601  0.86558  0.44886  1.0000
  C   C3181     1.0  0.93448  0.85084  0.43483  1.0000
  C   C3182     1.0  0.91866  0.85570  0.46143  1.0000
  C   C3183     1.0  0.93731  0.84066  0.44718  1.0000
  C   C3184     1.0  0.92939  0.84317  0.46055  1.0000
  C   C3185     1.0  0.92104  0.87375  0.42284  1.0000
  H   H3177     1.0  0.90773  0.87534  0.44959  1.0000
  H   H3178     1.0  0.94098  0.84897  0.42450  1.0000
  H   H3179     1.0  0.69285  0.97710  0.40345  1.0000
  H   H3180     1.0  0.52130  0.83804  0.18550  1.0000
  C   C3186     1.0  0.59392  0.97281  0.39659  1.0000
  C   C3187     1.0  0.87140  0.82422  0.44911  1.0000
  C   C3188     1.0  0.64929  0.94247  0.33942  1.0000
  H   H3181     1.0  0.52478  0.79825  0.11330  1.0000
  S   S1076     1.0  0.53692  0.85850  0.16624  1.0000
  C   C3189     1.0  0.95885  0.86415  0.44203  1.0000
  H   H3182     1.0  0.66225  0.90542  0.38918  1.0000
  H   H3183     1.0  0.80054  0.89465  0.46492  1.0000
  H   H3184     1.0  0.64702  0.95355  0.38322  1.0000
  S   S1077     1.0  0.54086  0.79695  0.07697  1.0000
  C   C3190     1.0  0.99692  0.86969  0.46710  1.0000
  S   S1078     1.0  0.89130  0.91582  0.48211  1.0000
  H   H3185     1.0  0.98408  0.87365  0.43778  1.0000
  C   C3191     1.0  0.66316  0.90434  0.36767  1.0000
  C   C3192     1.0  0.64733  0.89342  0.38862  1.0000
  Fe  Fe544     1.0  0.55185  0.84880  0.23131  1.0000
  H   H3186     1.0  0.53048  0.85651  0.27666  1.0000
  N   N266      1.0  0.55264  0.89054  0.40008  1.0000
  C   C3193     1.0  0.56403  0.88703  0.38919  1.0000
  C   C3194     1.0  0.53868  0.89180  0.39919  1.0000
  C   C3195     1.0  0.56159  0.88541  0.37666  1.0000
  C   C3196     1.0  0.53582  0.89024  0.38684  1.0000
  C   C3197     1.0  0.54735  0.88721  0.37545  1.0000
  C   C3198     1.0  0.58382  0.80533  0.20136  1.0000
  H   H3187     1.0  0.57509  0.88558  0.39012  1.0000
  H   H3188     1.0  0.52962  0.89443  0.40789  1.0000
  H   H3189     1.0  0.57070  0.88280  0.36798  1.0000
  H   H3190     1.0  0.52469  0.89185  0.38593  1.0000
  H   H3191     1.0  0.54518  0.88630  0.36572  1.0000
  S   S1079     1.0  0.56464  0.84991  0.20888  1.0000
  H   H3192     1.0  0.55213  0.82214  0.10651  1.0000
  H   H3193     1.0  0.69093  0.94220  0.30500  1.0000
  H   H3194     1.0  0.53875  0.81541  0.19781  1.0000
  C   C3199     1.0  0.61159  0.91078  0.15896  1.0000
  C   C3200     1.0  0.92626  0.95210  0.45074  1.0000
  H   H3195     1.0  0.91826  0.88485  0.42459  1.0000
  C   C3201     1.0  0.96920  0.80058  0.41135  1.0000
  C   C3202     1.0  0.82394  0.80816  0.47425  1.0000
  Fe  Fe545     1.0  0.65838  0.98684  0.30852  1.0000
  H   H3196     1.0  0.62095  0.95866  0.33074  1.0000
  H   H3197     1.0  0.58890  0.83308  0.08646  1.0000
  Fe  Fe546     1.0  0.58156  0.83259  0.21835  1.0000
  C   C3203     1.0  0.54775  0.81140  0.09281  1.0000
  N   N267      1.0  0.87563  0.82276  0.46147  1.0000
  C   C3204     1.0  0.60699  0.99085  0.41722  1.0000
  C   C3205     1.0  0.76680  0.84139  0.42258  1.0000
  H   H3198     1.0  0.81477  0.87905  0.46877  1.0000
  C   C3206     1.0  0.72682  0.96036  0.39582  1.0000
  H   H3199     1.0  0.93176  0.83557  0.47023  1.0000
  C   C3207     1.0  0.78220  0.81304  0.47574  1.0000
  H   H3200     1.0  0.72642  0.95412  0.40665  1.0000
  C   C3208     1.0  0.79472  0.83247  0.46850  1.0000
  S   S1080     1.0  0.60252  0.96781  0.45406  1.0000
  C   C3209     1.0  0.54656  0.81800  0.18792  1.0000
  N   N268      1.0  0.56541  0.83044  0.17404  1.0000
  C   C3210     1.0  0.69299  0.98288  0.44948  1.0000
  C   C3211     1.0  0.62070  0.88320  0.17415  1.0000
  C   C3212     1.0  0.88804  0.79177  0.40859  1.0000
  H   H3201     1.0  0.59758  0.91610  0.19231  1.0000
  H   H3202     1.0  0.80053  0.83973  0.46035  1.0000
  H   H3203     1.0  0.54307  0.82316  0.23003  1.0000
  S   S1081     1.0  0.88790  0.95140  0.45135  1.0000
  H   H3204     1.0  0.61609  0.98379  0.37931  1.0000
  H   H3205     1.0  0.53023  0.84519  0.26566  1.0000
  C   C3213     1.0  0.55807  0.81515  0.16387  1.0000
  C   C3214     1.0  0.72756  0.97481  0.39256  1.0000
  C   C3215     1.0  0.54786  0.81194  0.17654  1.0000
  C   C3216     1.0  0.98192  0.80009  0.41535  1.0000
  C   C3217     1.0  0.69058  0.97799  0.38249  1.0000
  S   S1082     1.0  0.56241  0.97561  0.17109  1.0000
  S   S1083     1.0  0.52758  0.85134  0.23499  1.0000
  N   N269      1.0  0.76080  0.86652  0.42250  1.0000
  C   C3218     1.0  0.83791  0.90944  0.44682  1.0000
  C   C3219     1.0  0.56684  0.82446  0.16282  1.0000
  C   C3220     1.0  0.89912  0.97556  0.47801  1.0000
  H   H3206     1.0  0.61443  0.83544  0.13177  1.0000
  C   C3221     1.0  0.92893  0.93346  0.47678  1.0000
  H   H3207     1.0  0.86386  0.83386  0.44510  1.0000
  H   H3208     1.0  0.55932  0.81038  0.15498  1.0000
  H   H3209     1.0  0.60904  0.81145  0.13572  1.0000
  H   H3210     1.0  0.84670  0.80475  0.42320  1.0000
  C   C3222     1.0  0.74802  0.85745  0.41095  1.0000
  C   C3223     1.0  0.55029  0.79845  0.08873  1.0000
  H   H3211     1.0  0.72196  0.96017  0.43440  1.0000
  C   C3224     1.0  0.55551  0.89233  0.41302  1.0000
  S   S1084     1.0  0.56806  0.83036  0.24094  1.0000
  H   H3212     1.0  0.74401  0.87953  0.41175  1.0000
  H   H3213     1.0  0.52006  0.80843  0.14791  1.0000
  H   H3214     1.0  0.69797  0.96772  0.38171  1.0000
  H   H3215     1.0  0.55821  0.88173  0.42028  1.0000
  H   H3216     1.0  0.54601  0.89928  0.41876  1.0000
  H   H3217     1.0  0.56471  0.89776  0.41027  1.0000
  C   C3225     1.0  0.51312  0.81627  0.22461  1.0000
  C   C3226     1.0  0.52220  0.83785  0.23082  1.0000
  C   C3227     1.0  0.76312  0.87852  0.42669  1.0000
  H   H3218     1.0  0.92135  0.93488  0.44520  1.0000
  H   H3219     1.0  0.92456  0.95968  0.44084  1.0000
  H   H3220     1.0  0.58581  0.91868  0.18040  1.0000
  S   S1085     1.0  0.99417  0.83430  0.45709  1.0000
  C   C3228     1.0  0.93937  0.87795  0.46317  1.0000
  C   C3229     1.0  0.55542  0.82733  0.18648  1.0000
  Fe  Fe547     1.0  0.90588  0.89857  0.47109  1.0000
  H   H3221     1.0  0.67210  0.95100  0.35398  1.0000
  H   H3222     1.0  0.57537  0.82834  0.10223  1.0000
  C   C3230     1.0  0.61398  0.83188  0.28465  1.0000
  S   S1086     1.0  0.86869  0.91897  0.46169  1.0000
  C   C3231     1.0  0.59705  0.91841  0.18091  1.0000
  S   S1087     1.0  0.56730  0.98435  0.13563  1.0000
  C   C3232     1.0  0.84280  0.90842  0.43255  1.0000
  N   N270      1.0  0.60737  0.90756  0.17355  1.0000
  H   H3223     1.0  0.60788  0.92147  0.15290  1.0000
  H   H3224     1.0  0.60798  0.89127  0.19268  1.0000
  S   S1088     1.0  0.97914  0.81481  0.44592  1.0000
  H   H3225     1.0  0.62964  0.97946  0.33112  1.0000
  H   H3226     1.0  0.50934  0.83296  0.00995  1.0000
  Fe  Fe548     1.0  0.88526  0.90119  0.45275  1.0000
  C   C3233     1.0  0.75030  0.86880  0.41506  1.0000
  C   C3234     1.0  0.61182  0.89399  0.18116  1.0000
  H   H3227     1.0  0.87629  0.84313  0.46365  1.0000
  C   C3235     1.0  0.83653  0.90068  0.42719  1.0000
  H   H3228     1.0  0.96208  0.81082  0.40817  1.0000
  H   H3229     1.0  0.64269  0.85101  0.28562  1.0000
  C   C3236     1.0  0.52737  0.81408  0.22620  1.0000
  C   C3237     1.0  0.50331  0.82924  0.22637  1.0000
  C   C3238     1.0  0.52601  0.85618  0.26775  1.0000
  Fe  Fe549     1.0  0.87335  0.90574  0.48279  1.0000
  H   H3230     1.0  0.93580  0.80760  0.46678  1.0000
  H   H3231     1.0  0.62331  0.90274  0.14000  1.0000
  H   H3232     1.0  0.53491  0.80401  0.22511  1.0000
  S   S1089     1.0  0.58797  0.98963  0.18619  1.0000
  C   C3239     1.0  0.52246  0.85239  0.16479  1.0000
  C   C3240     1.0  0.62563  0.83003  0.25987  1.0000
  H   H3233     1.0  0.82326  0.90326  0.46671  1.0000
  H   H3234     1.0  0.63128  0.87795  0.15366  1.0000
  C   C3241     1.0  0.89094  0.96102  0.46216  1.0000
  C   C3242     1.0  0.66119  0.94698  0.34021  1.0000
  C   C3243     1.0  0.95811  0.85765  0.45649  1.0000
  H   H3235     1.0  0.75494  0.83484  0.41129  1.0000
  C   C3244     1.0  0.61188  0.98594  0.34807  1.0000
  Fe  Fe550     1.0  0.00173  0.80508  0.43557  1.0000
  C   C3245     1.0  0.60912  0.83340  0.12461  1.0000
  C   C3246     1.0  0.79284  0.83274  0.48282  1.0000
  H   H3236     1.0  0.59299  0.98951  0.36499  1.0000
  H   H3237     1.0  0.89247  0.97991  0.44523  1.0000
  H   H3238     1.0  0.52051  0.86595  0.14409  1.0000
  C   C3247     1.0  0.89099  0.79969  0.45889  1.0000
  Fe  Fe551     1.0  0.57685  0.96670  0.15235  1.0000
  C   C3248     1.0  0.89740  0.98220  0.46407  1.0000
  C   C3249     1.0  0.63525  0.84104  0.27327  1.0000
  C   C3250     1.0  0.92440  0.93817  0.45322  1.0000
  S   S1090     1.0  0.59774  0.94584  0.34897  1.0000
  H   H3239     1.0  0.65200  0.93430  0.38795  1.0000
  H   H3240     1.0  0.58263  0.84142  0.16251  1.0000
  H   H3241     1.0  0.70563  0.94564  0.28973  1.0000
  H   H3242     1.0  0.94804  0.85955  0.47822  1.0000
  C   C3251     1.0  0.61314  0.83605  0.29717  1.0000
  H   H3243     1.0  0.50801  0.92013  0.39670  1.0000
  H   H3244     1.0  0.88904  0.80965  0.47595  1.0000
  H   H3245     1.0  0.52135  0.91016  0.15331  1.0000
  H   H3246     1.0  0.85166  0.91335  0.42574  1.0000
  H   H3247     1.0  0.93065  0.87305  0.41375  1.0000
  H   H3248     1.0  0.99324  0.87087  0.47810  1.0000
  H   H3249     1.0  0.61459  0.83027  0.25878  1.0000
  H   H3250     1.0  0.74016  0.85947  0.40445  1.0000
  S   S1091     1.0  0.59328  0.81648  0.20447  1.0000
  C   C3252     1.0  0.52199  0.86487  0.08409  1.0000
  C   C3253     1.0  0.51677  0.84213  0.17609  1.0000
  H   H3251     1.0  0.96470  0.84713  0.45962  1.0000
  H   H3252     1.0  0.87123  0.83080  0.48040  1.0000
  C   C3254     1.0  0.78940  0.82266  0.46489  1.0000
  H   H3253     1.0  0.93022  0.96751  0.45964  1.0000
  H   H3254     1.0  0.62062  0.98348  0.25278  1.0000
  C   C3255     1.0  0.88040  0.80489  0.40179  1.0000
  C   C3256     1.0  0.51212  0.84324  0.11949  1.0000
  H   H3255     1.0  0.95606  0.81638  0.46929  1.0000
  H   H3256     1.0  0.64789  0.94210  0.32915  1.0000
  H   H3257     1.0  0.53932  0.87328  0.18911  1.0000
  H   H3258     1.0  0.77484  0.87722  0.42628  1.0000
  H   H3259     1.0  0.62964  0.93538  0.35134  1.0000
  H   H3260     1.0  0.63034  0.83744  0.25016  1.0000
  H   H3261     1.0  0.68447  0.97751  0.45047  1.0000
  C   C3257     1.0  0.60606  0.81998  0.12685  1.0000
  C   C3258     1.0  0.50417  0.82350  0.13669  1.0000
  Fe  Fe552     1.0  0.52085  0.81456  0.07594  1.0000
  S   S1092     1.0  0.50885  0.82515  0.09426  1.0000
  C   C3259     1.0  0.94855  0.86463  0.46704  1.0000
  H   H3262     1.0  0.55433  0.83198  0.19541  1.0000
  C   C3260     1.0  0.56309  0.79985  0.10986  1.0000
  H   H3263     1.0  0.53022  0.86379  0.25793  1.0000
  C   C3261     1.0  0.75641  0.84368  0.41466  1.0000
  C   C3262     1.0  0.51804  0.92386  0.39280  1.0000
  H   H3264     1.0  0.60424  0.83435  0.30634  1.0000
  N   N271      1.0  0.62484  0.83457  0.27285  1.0000
  C   C3263     1.0  0.59472  0.97038  0.35796  1.0000
  H   H3265     1.0  0.50666  0.85626  0.01550  1.0000
  H   H3266     1.0  0.77692  0.85109  0.43266  1.0000
  S   S1093     1.0  0.65794  0.98653  0.33107  1.0000
  N   N272      1.0  0.93072  0.94716  0.47427  1.0000
  C   C3264     1.0  0.83265  0.81711  0.47412  1.0000
  C   C3265     1.0  0.92941  0.95646  0.46145  1.0000
  H   H3267     1.0  0.58039  0.83659  0.18157  1.0000
  H   H3268     1.0  0.53983  0.82145  0.13461  1.0000
  H   H3269     1.0  0.64371  0.84346  0.26385  1.0000
  C   C3266     1.0  0.62358  0.84286  0.29760  1.0000
  C   C3267     1.0  0.82690  0.90254  0.45561  1.0000
  S   S1094     1.0  0.59533  0.97648  0.15099  1.0000
  H   H3270     1.0  0.98458  0.80994  0.41525  1.0000
  H   H3271     1.0  0.56746  0.85122  0.17338  1.0000
  C   C3268     1.0  0.71772  0.98456  0.44131  1.0000
  C   C3269     1.0  0.63475  0.84532  0.28560  1.0000
  H   H3272     1.0  0.60557  0.82700  0.28423  1.0000
  H   H3273     1.0  0.77339  0.83073  0.42562  1.0000
  C   C3270     1.0  0.50408  0.84265  0.00342  1.0000
  S   S1095     1.0  0.72767  0.98269  0.40620  1.0000
  H   H3274     1.0  0.92421  0.91792  0.46838  1.0000
  C   C3271     1.0  0.88658  0.80099  0.44639  1.0000
  C   C3272     1.0  0.71011  0.96490  0.43700  1.0000
  C   C3273     1.0  0.94191  0.80166  0.47487  1.0000
  H   H3275     1.0  0.88605  0.81136  0.39239  1.0000
  H   H3276     1.0  0.91164  0.87206  0.41991  1.0000
  S   S1096     1.0  0.50497  0.86580  0.08122  1.0000
  Fe  Fe553     1.0  0.63938  0.96941  0.47918  1.0000
  S   S1097     1.0  0.51795  0.92088  0.36625  1.0000
  N   N273      1.0  0.51006  0.85995  0.27120  1.0000
  C   C3274     1.0  0.95350  0.80650  0.47611  1.0000
  C   C3275     1.0  0.62895  0.98698  0.25526  1.0000
  C   C3276     1.0  0.61490  0.96532  0.33829  1.0000
  S   S1098     1.0  0.65410  0.98319  0.46401  1.0000
  C   C3277     1.0  0.71461  0.96630  0.32298  1.0000
  H   H3277     1.0  0.66919  0.94998  0.33056  1.0000
  C   C3278     1.0  0.92583  0.92873  0.46628  1.0000
  H   H3278     1.0  0.85847  0.83918  0.46927  1.0000
  C   C3279     1.0  0.52607  0.83820  0.12228  1.0000
  C   C3280     1.0  0.68409  0.98606  0.37116  1.0000
  H   H3279     1.0  0.70456  0.95654  0.44462  1.0000
  H   H3280     1.0  0.60111  0.96560  0.38948  1.0000
  C   C3281     1.0  0.63881  0.97711  0.26291  1.0000
  C   C3282     1.0  0.72814  0.98276  0.37852  1.0000
  C   C3283     1.0  0.52903  0.82550  0.13242  1.0000
  H   H3281     1.0  0.50788  0.84422  0.26162  1.0000
  C   C3284     1.0  0.68755  0.98329  0.39480  1.0000
  H   H3282     1.0  0.59772  0.80375  0.18064  1.0000
  H   H3283     1.0  0.59657  0.80725  0.11945  1.0000
  H   H3284     1.0  0.58490  0.96790  0.36535  1.0000
  C   C3285     1.0  0.58850  0.80046  0.18856  1.0000
  C   C3286     1.0  0.50301  0.87106  0.27787  1.0000
  H   H3285     1.0  0.79673  0.84056  0.48537  1.0000
  H   H3286     1.0  0.54108  0.80460  0.17772  1.0000
  H   H3287     1.0  0.70052  0.98424  0.31218  1.0000
  H   H3288     1.0  0.50985  0.85319  0.11172  1.0000
  C   C3287     1.0  0.50406  0.85344  0.15241  1.0000
  H   H3289     1.0  0.58544  0.98042  0.39117  1.0000
  H   H3290     1.0  0.68676  0.98229  0.36134  1.0000
  S   S1099     1.0  0.92727  0.88631  0.47658  1.0000
  C   C3288     1.0  0.50510  0.83718  0.17537  1.0000
  C   C3289     1.0  0.61973  0.97722  0.33841  1.0000
  H   H3291     1.0  0.56842  0.80444  0.22157  1.0000
  H   H3292     1.0  0.77804  0.80541  0.47303  1.0000
  C   C3290     1.0  0.64941  0.98181  0.26613  1.0000
  H   H3293     1.0  0.97540  0.87664  0.46273  1.0000
  H   H3294     1.0  0.72873  0.98069  0.43569  1.0000
  S   S1100     1.0  0.63500  0.98751  0.44019  1.0000
  C   C3291     1.0  0.50263  0.85585  0.00659  1.0000
  N   N274      1.0  0.60243  0.98067  0.40023  1.0000
  H   H3295     1.0  0.65714  0.97405  0.27193  1.0000
  H   H3296     1.0  0.58856  0.96584  0.40627  1.0000
  C   C3292     1.0  0.93354  0.95191  0.48564  1.0000
  C   C3293     1.0  0.56523  0.79136  0.20923  1.0000
  C   C3294     1.0  0.96172  0.79859  0.48627  1.0000
  H   H3297     1.0  0.89718  0.95686  0.49506  1.0000
  C   C3295     1.0  0.58626  0.97686  0.70867  1.0000
  H   H3298     1.0  0.61038  0.80242  0.83107  1.0000
  C   C3296     1.0  0.60552  0.85395  0.73442  1.0000
  S   S1101     1.0  0.51796  0.89104  0.88836  1.0000
  S   S1102     1.0  0.90636  0.98344  0.48732  1.0000
  C   C3297     1.0  0.51078  0.79612  0.94718  1.0000
  C   C3298     1.0  0.81529  0.89443  0.49609  1.0000
  H   H3299     1.0  0.63527  0.96010  0.53173  1.0000
  H   H3300     1.0  0.83865  0.81299  0.53537  1.0000
  H   H3301     1.0  0.50383  0.93138  0.85301  1.0000
  C   C3299     1.0  0.61965  0.86958  0.73680  1.0000
  H   H3302     1.0  0.92388  0.95221  0.49471  1.0000
  H   H3303     1.0  0.58226  0.96839  0.71707  1.0000
  H   H3304     1.0  0.63138  0.88346  0.73987  1.0000
  H   H3305     1.0  0.55017  0.85708  0.87869  1.0000
  H   H3306     1.0  0.51198  0.95446  0.84468  1.0000
  C   C3300     1.0  0.56373  0.82191  0.88971  1.0000
  C   C3301     1.0  0.51590  0.80816  0.78510  1.0000
  H   H3307     1.0  0.58215  0.95427  0.63937  1.0000
  N   N275      1.0  0.61032  0.86051  0.74319  1.0000
  C   C3302     1.0  0.82670  0.91032  0.50143  1.0000
  H   H3308     1.0  0.54966  0.83031  0.91324  1.0000
  Fe  Fe554     1.0  0.54903  0.98309  0.68129  1.0000
  S   S1103     1.0  0.55203  0.95921  0.68847  1.0000
  N   N276      1.0  0.57838  0.97359  0.62357  1.0000
  H   H3309     1.0  0.56301  0.81332  0.89921  1.0000
  H   H3310     1.0  0.51665  0.92895  0.90896  1.0000
  C   C3303     1.0  0.84024  0.90095  0.49864  1.0000
  H   H3311     1.0  0.75071  0.86792  0.56926  1.0000
  H   H3312     1.0  0.56453  0.83116  0.81682  1.0000
  S   S1104     1.0  0.64013  0.94453  0.58367  1.0000
  C   C3304     1.0  0.67801  0.90393  0.62589  1.0000
  C   C3305     1.0  0.66798  0.95025  0.54595  1.0000
  C   C3306     1.0  0.81782  0.79998  0.48728  1.0000
  H   H3313     1.0  0.65428  0.93508  0.55399  1.0000
  Fe  Fe555     1.0  0.53988  0.86805  0.78572  1.0000
  S   S1105     1.0  0.53705  0.86408  0.76578  1.0000
  S   S1106     1.0  0.52361  0.88384  0.79744  1.0000
  Fe  Fe556     1.0  0.56895  0.84758  0.78533  1.0000
  S   S1107     1.0  0.56890  0.84186  0.76527  1.0000
  Fe  Fe557     1.0  0.56055  0.86537  0.75745  1.0000
  S   S1108     1.0  0.56902  0.87625  0.73466  1.0000
  Fe  Fe558     1.0  0.54562  0.84107  0.77547  1.0000
  S   S1109     1.0  0.53829  0.82171  0.77552  1.0000
  S   S1110     1.0  0.56261  0.87122  0.77669  1.0000
  S   S1111     1.0  0.54631  0.84483  0.79624  1.0000
  H   H3314     1.0  0.60041  0.96167  0.61916  1.0000
  Fe  Fe559     1.0  0.62573  0.92658  0.66915  1.0000
  S   S1112     1.0  0.61770  0.94016  0.68538  1.0000
  S   S1113     1.0  0.61112  0.92745  0.65527  1.0000
  Fe  Fe560     1.0  0.65436  0.91336  0.67780  1.0000
  S   S1114     1.0  0.64893  0.92582  0.69485  1.0000
  S   S1115     1.0  0.67494  0.89657  0.67475  1.0000
  Fe  Fe561     1.0  0.62697  0.92046  0.70023  1.0000
  S   S1116     1.0  0.61448  0.91458  0.72294  1.0000
  Fe  Fe562     1.0  0.64017  0.94427  0.67840  1.0000
  S   S1117     1.0  0.64372  0.96666  0.67302  1.0000
  S   S1118     1.0  0.63315  0.90640  0.68455  1.0000
  S   S1119     1.0  0.64747  0.93227  0.66081  1.0000
  C   C3307     1.0  0.60034  0.80869  0.82802  1.0000
  Fe  Fe563     1.0  0.71884  0.92167  0.58622  1.0000
  S   S1120     1.0  0.73162  0.93654  0.56969  1.0000
  S   S1121     1.0  0.70523  0.91043  0.58043  1.0000
  Fe  Fe564     1.0  0.73155  0.92295  0.60985  1.0000
  S   S1122     1.0  0.74610  0.93744  0.59531  1.0000
  S   S1123     1.0  0.73108  0.91609  0.63332  1.0000
  Fe  Fe565     1.0  0.72636  0.94918  0.58652  1.0000
  S   S1124     1.0  0.71776  0.97305  0.58241  1.0000
  Fe  Fe566     1.0  0.75026  0.92345  0.57983  1.0000
  S   S1125     1.0  0.77149  0.91773  0.56438  1.0000
  S   S1126     1.0  0.71149  0.93561  0.60214  1.0000
  S   S1127     1.0  0.73776  0.90767  0.59530  1.0000
  Fe  Fe567     1.0  0.80320  0.86640  0.50741  1.0000
  S   S1128     1.0  0.78510  0.85690  0.52273  1.0000
  H   H3315     1.0  0.50473  0.83638  0.91264  1.0000
  C   C3308     1.0  0.81365  0.79228  0.51342  1.0000
  S   S1129     1.0  0.81045  0.82845  0.53155  1.0000
  Fe  Fe568     1.0  0.79712  0.83688  0.51484  1.0000
  S   S1130     1.0  0.78558  0.82185  0.51163  1.0000
  Fe  Fe569     1.0  0.80010  0.84961  0.53779  1.0000
  S   S1131     1.0  0.79187  0.85259  0.56036  1.0000
  S   S1132     1.0  0.81413  0.84712  0.49808  1.0000
  S   S1133     1.0  0.81745  0.86045  0.52297  1.0000
  H   H3316     1.0  0.62314  0.87237  0.72525  1.0000
  C   C3309     1.0  0.50443  0.84411  0.82558  1.0000
  H   H3317     1.0  0.64294  0.93067  0.61327  1.0000
  C   C3310     1.0  0.54002  0.98902  0.93136  1.0000
  H   H3318     1.0  0.74939  0.92398  0.54207  1.0000
  C   C3311     1.0  0.62121  0.98940  0.70972  1.0000
  H   H3319     1.0  0.84218  0.82440  0.48697  1.0000
  H   H3320     1.0  0.59565  0.97682  0.60530  1.0000
  H   H3321     1.0  0.67029  0.94424  0.50886  1.0000
  S   S1134     1.0  0.85535  0.90395  0.50235  1.0000
  H   H3322     1.0  0.50704  0.82975  0.88924  1.0000
  C   C3312     1.0  0.77771  0.89953  0.56374  1.0000
  C   C3313     1.0  0.77364  0.88875  0.57548  1.0000
  C   C3314     1.0  0.77828  0.87431  0.57448  1.0000
  C   C3315     1.0  0.78669  0.87065  0.56163  1.0000
  C   C3316     1.0  0.79079  0.88143  0.54991  1.0000
  C   C3317     1.0  0.78655  0.89580  0.55106  1.0000
  H   H3323     1.0  0.76713  0.89151  0.58541  1.0000
  H   H3324     1.0  0.77520  0.86600  0.58362  1.0000
  H   H3325     1.0  0.79713  0.87878  0.53992  1.0000
  H   H3326     1.0  0.78971  0.90412  0.54195  1.0000
  H   H3327     1.0  0.57869  0.80794  0.87631  1.0000
  H   H3328     1.0  0.51249  0.90090  0.81865  1.0000
  C   C3318     1.0  0.73944  0.97811  0.59180  1.0000
  H   H3329     1.0  0.53762  0.97658  0.64159  1.0000
  H   H3330     1.0  0.81106  0.79806  0.52217  1.0000
  H   H3331     1.0  0.53053  0.80035  0.82351  1.0000
  S   S1135     1.0  0.51592  0.86011  0.88452  1.0000
  H   H3332     1.0  0.74579  0.96774  0.59005  1.0000
  C   C3319     1.0  0.57414  0.96324  0.63515  1.0000
  H   H3333     1.0  0.68280  0.96171  0.51085  1.0000
  C   C3320     1.0  0.69022  0.90258  0.66320  1.0000
  C   C3321     1.0  0.68893  0.91376  0.65112  1.0000
  C   C3322     1.0  0.70147  0.91759  0.64150  1.0000
  C   C3323     1.0  0.71524  0.91075  0.64435  1.0000
  C   C3324     1.0  0.71642  0.89985  0.65661  1.0000
  C   C3325     1.0  0.70399  0.89556  0.66582  1.0000
  H   H3334     1.0  0.67833  0.91920  0.64900  1.0000
  H   H3335     1.0  0.70044  0.92609  0.63214  1.0000
  H   H3336     1.0  0.72702  0.89457  0.65890  1.0000
  H   H3337     1.0  0.70505  0.88689  0.67511  1.0000
  S   S1136     1.0  0.64098  0.96017  0.50211  1.0000
  C   C3326     1.0  0.62188  0.97476  0.71174  1.0000
  C   C3327     1.0  0.62890  0.96768  0.70053  1.0000
  C   C3328     1.0  0.63537  0.97523  0.68730  1.0000
  H   H3338     1.0  0.53871  0.96040  0.86893  1.0000
  C   C3329     1.0  0.75185  0.91261  0.54231  1.0000
  H   H3339     1.0  0.61686  0.96890  0.72198  1.0000
  H   H3340     1.0  0.62936  0.95637  0.70217  1.0000
  C   C3330     1.0  0.53050  0.92988  0.86770  1.0000
  H   H3341     1.0  0.61121  0.82002  0.80797  1.0000
  C   C3331     1.0  0.58162  0.88693  0.73151  1.0000
  C   C3332     1.0  0.58462  0.89050  0.74276  1.0000
  C   C3333     1.0  0.59458  0.89916  0.73998  1.0000
  C   C3334     1.0  0.60183  0.90407  0.72595  1.0000
  C   C3335     1.0  0.59885  0.90053  0.71465  1.0000
  C   C3336     1.0  0.58871  0.89203  0.71743  1.0000
  H   H3342     1.0  0.57918  0.88676  0.75361  1.0000
  H   H3343     1.0  0.59679  0.90194  0.74876  1.0000
  H   H3344     1.0  0.60426  0.90442  0.70377  1.0000
  H   H3345     1.0  0.58639  0.88936  0.70865  1.0000
  C   C3337     1.0  0.52018  0.82083  0.78366  1.0000
  S   S1137     1.0  0.97746  0.80341  0.48656  1.0000
  C   C3338     1.0  0.50995  0.83250  0.78834  1.0000
  C   C3339     1.0  0.66143  0.89501  0.64737  1.0000
  H   H3346     1.0  0.62321  0.87754  0.76638  1.0000
  C   C3340     1.0  0.84926  0.80730  0.53077  1.0000
  H   H3347     1.0  0.53584  0.79770  0.80547  1.0000
  H   H3348     1.0  0.65950  0.88781  0.65779  1.0000
  C   C3341     1.0  0.67601  0.95784  0.53382  1.0000
  C   C3342     1.0  0.56145  0.92217  0.71700  1.0000
  H   H3349     1.0  0.68898  0.90361  0.61939  1.0000
  S   S1138     1.0  0.54554  0.80580  0.86784  1.0000
  C   C3343     1.0  0.61973  0.87263  0.75989  1.0000
  H   H3350     1.0  0.59870  0.84972  0.76288  1.0000
  C   C3344     1.0  0.66998  0.94556  0.51937  1.0000
  C   C3345     1.0  0.62442  0.87584  0.74503  1.0000
  C   C3346     1.0  0.60080  0.81866  0.81494  1.0000
  H   H3351     1.0  0.58601  0.80421  0.79338  1.0000
  C   C3347     1.0  0.65806  0.93489  0.58363  1.0000
  C   C3348     1.0  0.66225  0.92093  0.58138  1.0000
  C   C3349     1.0  0.67678  0.91348  0.58035  1.0000
  C   C3350     1.0  0.68714  0.91993  0.58167  1.0000
  C   C3351     1.0  0.68290  0.93378  0.58419  1.0000
  C   C3352     1.0  0.66833  0.94117  0.58537  1.0000
  H   H3352     1.0  0.65430  0.91595  0.58020  1.0000
  H   H3353     1.0  0.68002  0.90271  0.57852  1.0000
  H   H3354     1.0  0.69083  0.93884  0.58521  1.0000
  H   H3355     1.0  0.66507  0.95165  0.58780  1.0000
  Fe  Fe570     1.0  0.82666  0.84005  0.51532  1.0000
  H   H3356     1.0  0.53528  0.83949  0.90410  1.0000
  C   C3353     1.0  0.57451  0.82489  0.81989  1.0000
  N   N277      1.0  0.55317  0.79876  0.81351  1.0000
  C   C3354     1.0  0.53683  0.93871  0.87163  1.0000
  C   C3355     1.0  0.61045  0.86314  0.76632  1.0000
  Fe  Fe571     1.0  0.63822  0.96811  0.58081  1.0000
  C   C3356     1.0  0.50330  0.85310  0.93559  1.0000
  H   H3357     1.0  0.54373  0.90664  0.74968  1.0000
  H   H3358     1.0  0.66837  0.92194  0.61136  1.0000
  H   H3359     1.0  0.51163  0.81662  0.93279  1.0000
  H   H3360     1.0  0.53419  0.96495  0.91663  1.0000
  C   C3357     1.0  0.56796  0.95102  0.67799  1.0000
  C   C3358     1.0  0.56927  0.93733  0.67599  1.0000
  C   C3359     1.0  0.58236  0.93032  0.66838  1.0000
  C   C3360     1.0  0.59421  0.93691  0.66299  1.0000
  C   C3361     1.0  0.59279  0.95074  0.66471  1.0000
  C   C3362     1.0  0.57961  0.95786  0.67210  1.0000
  H   H3361     1.0  0.56018  0.93212  0.68038  1.0000
  H   H3362     1.0  0.58348  0.91960  0.66710  1.0000
  H   H3363     1.0  0.60194  0.95588  0.66044  1.0000
  H   H3364     1.0  0.57857  0.96846  0.67360  1.0000
  C   C3363     1.0  0.53854  0.88163  0.83726  1.0000
  C   C3364     1.0  0.54687  0.87281  0.82786  1.0000
  C   C3365     1.0  0.54258  0.87385  0.81532  1.0000
  C   C3366     1.0  0.53001  0.88377  0.81213  1.0000
  H   H3365     1.0  0.82963  0.87515  0.49039  1.0000
  N   N278      1.0  0.59881  0.98502  0.68455  1.0000
  H   H3366     1.0  0.55638  0.86487  0.83046  1.0000
  H   H3367     1.0  0.54890  0.86678  0.80830  1.0000
  C   C3367     1.0  0.55942  0.96409  0.64175  1.0000
  C   C3368     1.0  0.50808  0.96648  0.93437  1.0000
  H   H3368     1.0  0.63770  0.93485  0.63071  1.0000
  H   H3369     1.0  0.59442  0.85197  0.73949  1.0000
  C   C3369     1.0  0.72555  0.98318  0.58884  1.0000
  C   C3370     1.0  0.64995  0.90546  0.64247  1.0000
  C   C3371     1.0  0.67553  0.89424  0.63899  1.0000
  S   S1139     1.0  0.65752  0.97783  0.56977  1.0000
  Fe  Fe572     1.0  0.50964  0.87177  0.90220  1.0000
  H   H3370     1.0  0.81066  0.79343  0.48733  1.0000
  C   C3372     1.0  0.54269  0.97955  0.92249  1.0000
  C   C3373     1.0  0.51071  0.99073  0.65439  1.0000
  C   C3374     1.0  0.51524  0.92620  0.85395  1.0000
  H   H3371     1.0  0.53249  0.91850  0.87252  1.0000
  H   H3372     1.0  0.53468  0.81491  0.80881  1.0000
  C   C3375     1.0  0.87697  0.79248  0.51929  1.0000
  H   H3373     1.0  0.55277  0.97831  0.91445  1.0000
  N   N279      1.0  0.52160  0.93558  0.85821  1.0000
  H   H3374     1.0  0.51378  0.82516  0.83980  1.0000
  S   S1140     1.0  0.58716  0.79336  0.85293  1.0000
  C   C3376     1.0  0.50952  0.93424  0.90163  1.0000
  C   C3377     1.0  0.52621  0.79953  0.92342  1.0000
  C   C3378     1.0  0.67702  0.95551  0.52041  1.0000
  C   C3379     1.0  0.51903  0.94996  0.85220  1.0000
  H   H3375     1.0  0.73880  0.90737  0.56347  1.0000
  H   H3376     1.0  0.56369  0.81332  0.83993  1.0000
  C   C3380     1.0  0.83554  0.81741  0.48689  1.0000
  C   C3381     1.0  0.60589  0.85709  0.75776  1.0000
  H   H3377     1.0  0.61322  0.97126  0.67118  1.0000
  C   C3382     1.0  0.50755  0.94908  0.89617  1.0000
  H   H3378     1.0  0.51213  0.86570  0.84809  1.0000
  C   C3383     1.0  0.58700  0.80661  0.83703  1.0000
  C   C3384     1.0  0.50332  0.86647  0.83034  1.0000
  H   H3379     1.0  0.83145  0.80952  0.50963  1.0000
  S   S1141     1.0  0.79961  0.88943  0.49607  1.0000
  H   H3380     1.0  0.87802  0.81169  0.50275  1.0000
  S   S1142     1.0  0.85084  0.83145  0.50910  1.0000
  H   H3381     1.0  0.82582  0.91992  0.50497  1.0000
  H   H3382     1.0  0.75600  0.98276  0.59906  1.0000
  C   C3385     1.0  0.56328  0.80390  0.80206  1.0000
  H   H3383     1.0  0.77537  0.80541  0.49853  1.0000
  S   S1143     1.0  0.51750  0.95864  0.90078  1.0000
  C   C3386     1.0  0.64036  0.92608  0.62495  1.0000
  N   N280      1.0  0.83383  0.87536  0.54018  1.0000
  C   C3387     1.0  0.84550  0.86990  0.53046  1.0000
  C   C3388     1.0  0.82686  0.86637  0.55140  1.0000
  C   C3389     1.0  0.85046  0.85506  0.53180  1.0000
  C   C3390     1.0  0.83151  0.85147  0.55306  1.0000
  C   C3391     1.0  0.84336  0.84581  0.54315  1.0000
  C   C3392     1.0  0.82797  0.89089  0.53785  1.0000
  H   H3384     1.0  0.85085  0.87701  0.52141  1.0000
  H   H3385     1.0  0.81740  0.87066  0.55894  1.0000
  H   H3386     1.0  0.85940  0.85077  0.52380  1.0000
  H   H3387     1.0  0.82556  0.84444  0.56168  1.0000
  H   H3388     1.0  0.84680  0.83430  0.54400  1.0000
  H   H3389     1.0  0.81992  0.89401  0.53102  1.0000
  H   H3390     1.0  0.82252  0.89429  0.54810  1.0000
  H   H3391     1.0  0.83674  0.89691  0.53238  1.0000
  S   S1144     1.0  0.62314  0.98461  0.56813  1.0000
  H   H3392     1.0  0.61319  0.84363  0.73296  1.0000
  H   H3393     1.0  0.51470  0.91602  0.86210  1.0000
  S   S1145     1.0  0.51868  0.79530  0.85448  1.0000
  H   H3394     1.0  0.55993  0.81136  0.79272  1.0000
  H   H3395     1.0  0.77225  0.88824  0.52257  1.0000
  C   C3393     1.0  0.66630  0.91430  0.62138  1.0000
  C   C3394     1.0  0.54681  0.83879  0.90389  1.0000
  C   C3395     1.0  0.53209  0.97214  0.92370  1.0000
  H   H3396     1.0  0.68108  0.96579  0.53479  1.0000
  N   N281      1.0  0.51918  0.97411  0.93351  1.0000
  C   C3396     1.0  0.75889  0.88332  0.54387  1.0000
  H   H3397     1.0  0.92964  0.92617  0.48704  1.0000
  H   H3398     1.0  0.57368  0.94792  0.70677  1.0000
  C   C3397     1.0  0.57966  0.93677  0.71030  1.0000
  C   C3398     1.0  0.52523  0.95910  0.85586  1.0000
  N   N282      1.0  0.65247  0.91486  0.62957  1.0000
  H   H3399     1.0  0.51731  0.83331  0.94369  1.0000
  H   H3400     1.0  0.59450  0.96411  0.69284  1.0000
  C   C3399     1.0  0.58794  0.82665  0.81075  1.0000
  H   H3401     1.0  0.94315  0.94458  0.48949  1.0000
  C   C3400     1.0  0.85756  0.81395  0.51810  1.0000
  H   H3402     1.0  0.76618  0.91438  0.52140  1.0000
  H   H3403     1.0  0.76197  0.87184  0.54452  1.0000
  H   H3404     1.0  0.66687  0.95220  0.55637  1.0000
  H   H3405     1.0  0.60481  0.86119  0.72379  1.0000
  C   C3401     1.0  0.74390  0.87901  0.56829  1.0000
  S   S1146     1.0  0.54269  0.87890  0.85385  1.0000
  N   N283      1.0  0.82028  0.80076  0.49983  1.0000
  H   H3406     1.0  0.52019  0.89915  0.84075  1.0000
  H   H3407     1.0  0.54774  0.84913  0.90534  1.0000
  C   C3402     1.0  0.50628  0.83964  0.94475  1.0000
  C   C3403     1.0  0.59388  0.97284  0.61709  1.0000
  H   H3408     1.0  0.50255  0.86587  0.80001  1.0000
  C   C3404     1.0  0.53414  0.95341  0.86568  1.0000
  H   H3409     1.0  0.52301  0.97054  0.85127  1.0000
  N   N284      1.0  0.74988  0.88869  0.55527  1.0000
  C   C3405     1.0  0.51586  0.80522  0.93433  1.0000
  H   H3410     1.0  0.64351  0.93497  0.52704  1.0000
  H   H3411     1.0  0.51685  0.98796  0.66257  1.0000
  C   C3406     1.0  0.58461  0.99024  0.71149  1.0000
  C   C3407     1.0  0.81424  0.90720  0.49990  1.0000
  H   H3412     1.0  0.66022  0.92279  0.52122  1.0000
  C   C3408     1.0  0.52635  0.89197  0.83377  1.0000
  H   H3413     1.0  0.80375  0.91436  0.50228  1.0000
  N   N285      1.0  0.70680  0.95662  0.63009  1.0000
  C   C3409     1.0  0.70366  0.94905  0.64390  1.0000
  C   C3410     1.0  0.69586  0.96452  0.62328  1.0000
  C   C3411     1.0  0.68922  0.94915  0.65122  1.0000
  C   C3412     1.0  0.68130  0.96485  0.63030  1.0000
  C   C3413     1.0  0.67799  0.95712  0.64435  1.0000
  C   C3414     1.0  0.72194  0.95686  0.62275  1.0000
  H   H3414     1.0  0.71236  0.94260  0.64921  1.0000
  H   H3415     1.0  0.69834  0.97056  0.61232  1.0000
  H   H3416     1.0  0.68675  0.94292  0.66209  1.0000
  H   H3417     1.0  0.67265  0.97106  0.62485  1.0000
  H   H3418     1.0  0.66675  0.95728  0.64991  1.0000
  H   H3419     1.0  0.72957  0.94704  0.62709  1.0000
  H   H3420     1.0  0.72357  0.95723  0.61123  1.0000
  H   H3421     1.0  0.72484  0.96646  0.62381  1.0000
  H   H3422     1.0  0.64004  0.97557  0.54442  1.0000
  H   H3423     1.0  0.55808  0.91914  0.75706  1.0000
  C   C3415     1.0  0.64215  0.97830  0.53294  1.0000
  C   C3416     1.0  0.55886  0.92006  0.74581  1.0000
  S   S1147     1.0  0.66549  0.99015  0.59947  1.0000
  H   H3424     1.0  0.63905  0.90616  0.64915  1.0000
  C   C3417     1.0  0.56828  0.98507  0.61844  1.0000
  H   H3425     1.0  0.51318  0.95560  0.93219  1.0000
  C   C3418     1.0  0.82930  0.80906  0.49972  1.0000
  C   C3419     1.0  0.57404  0.81484  0.83305  1.0000
  H   H3426     1.0  0.52380  0.79912  0.78152  1.0000
  C   C3420     1.0  0.76473  0.89251  0.53145  1.0000
  C   C3421     1.0  0.78066  0.81306  0.49015  1.0000
  H   H3427     1.0  0.68457  0.88646  0.64290  1.0000
  H   H3428     1.0  0.54593  0.90861  0.72386  1.0000
  Fe  Fe573     1.0  0.54178  0.79695  0.89136  1.0000
  S   S1148     1.0  0.53796  0.98811  0.87995  1.0000
  H   H3429     1.0  0.50771  0.83232  0.75824  1.0000
  H   H3430     1.0  0.63051  0.92168  0.62726  1.0000
  H   H3431     1.0  0.51876  0.83907  0.85433  1.0000
  N   N286      1.0  0.55606  0.83559  0.89034  1.0000
  C   C3422     1.0  0.63966  0.96939  0.52570  1.0000
  C   C3423     1.0  0.55648  0.84629  0.87823  1.0000
  C   C3424     1.0  0.57250  0.81877  0.87678  1.0000
  C   C3425     1.0  0.56500  0.84349  0.86510  1.0000
  C   C3426     1.0  0.57312  0.82964  0.86441  1.0000
  S   S1149     1.0  0.63155  0.97908  0.59904  1.0000
  H   H3432     1.0  0.58441  0.93181  0.70085  1.0000
  C   C3427     1.0  0.76130  0.90722  0.53076  1.0000
  H   H3433     1.0  0.57489  0.93291  0.73863  1.0000
  H   H3434     1.0  0.56528  0.85203  0.85552  1.0000
  C   C3428     1.0  0.63479  0.98985  0.68528  1.0000
  C   C3429     1.0  0.51628  0.98374  0.94192  1.0000
  C   C3430     1.0  0.55076  0.91309  0.74168  1.0000
  C   C3431     1.0  0.74606  0.90314  0.55448  1.0000
  H   H3435     1.0  0.60674  0.86048  0.77788  1.0000
  C   C3432     1.0  0.59331  0.97448  0.69501  1.0000
  C   C3433     1.0  0.55199  0.91420  0.72718  1.0000
  C   C3434     1.0  0.52669  0.99125  0.94106  1.0000
  Fe  Fe574     1.0  0.51648  0.98193  0.88997  1.0000
  C   C3435     1.0  0.66094  0.94050  0.54451  1.0000
  H   H3436     1.0  0.73263  0.87889  0.56831  1.0000
  S   S1150     1.0  0.51734  0.85936  0.92217  1.0000
  H   H3437     1.0  0.59801  0.97963  0.62147  1.0000
  H   H3438     1.0  0.74366  0.88264  0.57793  1.0000
  S   S1151     1.0  0.53169  0.81089  0.90701  1.0000
  H   H3439     1.0  0.58898  0.93687  0.71448  1.0000
  H   H3440     1.0  0.57984  0.82731  0.85432  1.0000
  Fe  Fe575     1.0  0.52195  0.88026  0.87045  1.0000
  H   H3441     1.0  0.56237  0.92296  0.70576  1.0000
  N   N287      1.0  0.66212  0.93816  0.53134  1.0000
  C   C3436     1.0  0.56834  0.92783  0.73533  1.0000
  C   C3437     1.0  0.55347  0.98632  0.62484  1.0000
  C   C3438     1.0  0.65399  0.92858  0.52985  1.0000
  C   C3439     1.0  0.87147  0.80656  0.51245  1.0000
  S   S1152     1.0  0.58923  0.83828  0.79378  1.0000
  C   C3440     1.0  0.64296  0.97236  0.51077  1.0000
  N   N288      1.0  0.56971  0.92859  0.72115  1.0000
  H   H3442     1.0  0.55610  0.95596  0.65103  1.0000
  H   H3443     1.0  0.65169  0.92041  0.53988  1.0000
  C   C3441     1.0  0.54904  0.97569  0.63649  1.0000
  C   C3442     1.0  0.84138  0.88850  0.49418  1.0000
  H   H3444     1.0  0.52182  0.92361  0.84360  1.0000
  C   C3443     1.0  0.64851  0.98449  0.50310  1.0000
  C   C3444     1.0  0.51096  0.83678  0.83715  1.0000
  H   H3445     1.0  0.54344  0.93426  0.87956  1.0000
  C   C3445     1.0  0.52210  0.89307  0.82119  1.0000
  C   C3446     1.0  0.82885  0.88511  0.49319  1.0000
  C   C3447     1.0  0.50242  0.92614  0.89754  1.0000
  C   C3448     1.0  0.60622  0.98223  0.67034  1.0000
  C   C3449     1.0  0.85482  0.79326  0.53770  1.0000
  H   H3446     1.0  0.50275  0.80058  0.95558  1.0000
  C   C3450     1.0  0.51001  0.85952  0.84184  1.0000
  C   C3451     1.0  0.51376  0.84458  0.84530  1.0000
  C   C3452     1.0  0.53778  0.80312  0.81284  1.0000
  H   H3447     1.0  0.50387  0.91474  0.90195  1.0000
  H   H3448     1.0  0.59810  0.98348  0.66404  1.0000
  H   H3449     1.0  0.85182  0.88116  0.49213  1.0000
  C   C3453     1.0  0.57807  0.79973  0.80226  1.0000
  Fe  Fe576     1.0  0.64971  0.99024  0.58704  1.0000
  H   H3450     1.0  0.50585  0.98574  0.94930  1.0000
  H   H3451     1.0  0.51325  0.84231  0.78726  1.0000
  H   H3452     1.0  0.65113  0.98688  0.49159  1.0000
  C   C3454     1.0  0.78613  0.82285  0.49369  1.0000
  H   H3453     1.0  0.50878  0.82634  0.98021  1.0000
  C   C3455     1.0  0.74526  0.98667  0.59679  1.0000
  H   H3454     1.0  0.61350  0.98974  0.66437  1.0000
  H   H3455     1.0  0.69006  0.98939  0.57436  1.0000
  H   H3456     1.0  0.50498  0.81061  0.87907  1.0000
  C   C3456     1.0  0.64756  0.99050  0.52534  1.0000
