data_image0
_chemical_formula_structural       SHFe2CHSC2HFeS4NH2FeS2FeS2FeSFeCS2HS2C6H2NHC6H4SNH2C2H2SCH2C6HSH2C2H3CFeHFeSNC2HCSHCH2C2H3SC3H2C4SC2H5C2SH2S2HFeH2CFeHS2H3C2H2NC6H8CHC2H2FeCHC2FeCHCSFeSHNFe2CH3SCHFeH2CHFeHC2FeC2SH2C4HFeCH2C3HSHCSHCHCHCH2NH5CFeSFeCSCHCHS2FeHSFeSHFeCS2CHSC4SH3CHSC9HCH5C6HSHC2HFeC3H3C2HCHSC2SHSH3CH2SCSC4H7CH2CHCHCH2CSHSCNFeCSCH2CHFeCNH2C2HC3H2C2HC2H3CHS2CHCNHC2FeHFe2HFeCSCHCFeCHC2HC2H2SCHNCHC3HSHCSHC2S2HFeSHFeSFeS3H2CHFeSCFeSFe2SFeSHS2H2CH4S2C2FeS2FeS2FeSFeS3C6H3NC4H4SHC10H4C6H7CH4CNSHCSCNFeC9H4C7SH3FeH2CH2CH3FeHC2FeCH2SHCSH3C2NHC2HC2HCHCSCSCH3SCH2CSH6FeC2N2C4HCHC2HCS2C2H5C4HC4HCHNC4H4SCNH2SCH2FeH2CHC4H2CHC2H4C2H5FeHSFeSFeH2S2H2CH3CSH2C2NH3SCFeS2FeSCNCSHFeHFeS2FeS3FeCSC2H2CSC2H2CH2CH2C6H4C4HFeCHSCHC2H2NC3H3C4H3C4NHCH5CH3CNHCHC3HC3H5C2H2C2NC2HCHCH3C2FeCHFeSFeCHC3HC3H4S2H3C2SC3H3CH2CFeS2FeCHFeSCHSCH3C7SHFeS2CSFeS2HSHSFeHC2HC5SHSNHFeCSHCHSC2HCSHCFeHC2NHCH2FeSC2FeHSHC3FeHCHC7H4CFeH2SC2HC2SH2C2HC3SC4H5C5H4CHSC3HCFeHCNC3N2HC4SNH2CH7CHC2SHCHCHCH4NHS2H5C2SH2SCHSNC4H6C3HSHSCHCHCHFeSCH5FeH2SCHC3SFeH2S2HCHC3HC2H2C2HSCNHCSHFeCHCHC2SCSC3FeCH2CH2CHC3HCH7NCHSCHCHSC3H2SHCHCHC3S3H3SHCSCHC2FeH3CFeHCH4FeC2SCHSH2SCH2C2SC2NHFeCHCFeHFeSC2H2CHCH2CH3NHCSH3CNHC2HFe2SCSCS3HSHFeS2FeS2FeSFeS3FeS2FeS2FeSFeS4HC7H4C2NCHCHC6H3C6H6C6H4C6H4C4HCSFeC3FeC3NC6H8FeCHCHSHCH2SC2HNC6H8C2H2FeHCHCH3C2FeNH2C3HCHCH4SH2CHN2C4HCH3CHSC2H2SHFeSH3CSHCH2CNC3FeSHCHCH2CH2SNCH5SHCHC2HCH3C2H2CHSHC4H2C5HSC2H3CSH3CH2CHCH2NC2HNCH3NFeCH2CHCH2CH2CHCFeHS2C2H2CSNSHSH2CH2C2HCSCFe2SC11H2FeNFeHCHS2HCH2CHCFe2SH4S2CFeHCHCSHCH2C2HC2FeS2FeS2FeSFeS3FeS2FeS2FeCFeS2CSHCSFe2SC2H2FeHSCFeSHFeSFeSCSFeSFeHSFeS2HC6H4C6H3NHCH4C7H4CSCFeC3SH3C2SFeC6H4C6H4NSFeH2C2H2CH2C5H7SH4C2S2H2C2SHCSHCHNHCHNC6H8C5H3CH3FeC2SCHCHCHC4HNCSC2SH2NSHS2H2FeH3CHCHSC2H4C2NH2C2SH3C2NC2NC3H4CFeHC3H2C2H2CH3CHCHCH3NCHCHCS2C2H2CHCH4FeHSCSFeSFeS2FeS2FeSCFeSFeS3CH2CH2C2H3CHCHC4H2CNC6H4C5H2SH2C2NCHCHC3FeCH3CH2CH3SHN2HSC2FeSHCSHC2H2S2H3C3FeHC2H4C2SH2S2H3FeC3HCHFeHCNC4FeS2HSFeSHFeS2C2HCH2CFeHS2H3CHCFeSCSC2FeS2FeS2FeSFeS2FeCHFeHCHCHC4H3C6H5FeH4CH2CHC2H3CH2CSHCHCHC6H4C6H2C5NHCH3CSH2CSC2HCH3NC2HS2H4C2FeHNSCHCH3C2HC2FeCHCSFeH2CH2C3HSHSCHS3H2C4NCHC3NFeHCH3CSC2HCSHC3HCH2NSNHCH2C2HCHCHNC2HC2SH3CSHSHSHCSCHCHS4H2FeCSCHNC3HCHSH3FeC2HC2H4CH2SFeH2C2H2CH2NC2NC5HC7H4SCHC2SH2SHSCHC2HC2FeHFeHC3FeCHSHSH3CHCH4NH2C2H5SCH3C2HNHNC2HNCFeS2FeHCNSHFeHSHCSFeS2FeS2FeSFeS3CSH2FeCH2C2FeS2C5FeH3CS2FeS2C2H3C2H2SFeCHCHC2H2C2H2C2SNH2C7H4C6H2CHC6H4C4H4CHC2HFeCH2FeH2C6H6CFeH2FeHCHSFeSC2HCNC6H9FeSH4C3NH2CHNCNC6H6CHC2HCH3C3SC2H3CHSHCHC3S2H2NHCSCHFeHC6HSFe2S2Fe2S4H2CFeS2FeSFeS3CH2C2HC2HC2SHCHCNH2C4H3SHC4HC2H2C6HCHC7H6SCSNHC2H2FeCH2C2HC3HC2FeCHSC2HNC6H4FeH4C4SHCHCHC2SNCHCHC3SCHFeH3CNHSH4SCH2CH3FeHCHNH2NH3C3HCH3C4FeH4C3H4CSC2H3C2HC2HCH2SCFeH2SCSH2NS2HC3FeSFeCSHFeSFeS3C2SFeS2FeSFeSH2FeS2FeSFeSFeS2CFeHSCSC9H4C3HFeC6H4C6H2S2CH2C3HC7H4CH4SH2C3HCHCH2C2SCNHCSH6SH4CHSH2SFeC2HC3H2CHNC6H8NCHCH5C2SNCHC2HFeHNHC12H4NCH2C2HC2HSNH2SCH4CNC3S2CHFeCSCSHCH3CS2C2H2NH2CHFeS3H4FeHSC2HCH3CH2CHCSHC2FeSCSH6S2FeS2C3FeS2FeS2FeSFeS3C2HC6H6CSCHC2H2CHC4H3CHCSCH2CH2C6H5FeHFeH2CSC3SCHCNCSCH2FeSCH6FeSCHSNC6H8SHC2HCHSH2SCH3SCH2NCNCHCHC2HC3HCHC2H2CNC6H5CHCHC2HC2SHC3HS2HFeHC2H2S3CFeC5H2FeCH2C2HCHSN2SHSCH2CHC2HCFeC3H3CNCSC2H4CHCHNHCHC2HC2SCH2CH2CHFeSHS2CH2C2NC2HNCS2H2CNCH2C2H2CHCHC4H2CH2CHCFeHCHFeC2FeCSHCSH4CHCH4C2HCFeS2FeS2FeSFeS3FeS2FeS2Fe2S4NC5H2C3H3C2SCH2CH2CHCH2CHCHCNC2HC3H2CHCSH2CHC5HCH2C3NH5C2H3C4H3C4H3CH3NH2C6H2CHC6H4C6H3NH2C2H3FeCH2CH5C2H2CH2C2NHNCHC2H4C2HCH3NCH2C2HFeHSH2SCSHFeSHFeS2FeSFeS3CHCHNCHSCSH2FeCSHSH2C2Fe2CHCHSHC6H4FeHC3HC2H4SHC5H3NC2SHCNC2HCHCH2CH3S2H2CHCSFe2C2HC3H2CHC4H2CFeH3SNC2HCNH2C2SH4NC5HC2H3C2H4CFeH3NHCFeS2FeS2FeSFeS3C2FeCH2C2HSH2FeSFeS2FeSFeS5FeSFeSH2C2NFeHCHC2HC4H5C2H2C2H2CSCHC7H5CHC2H5C6H6CHCH2CH3CHCH3FeSCHSHFeCHNC3H5C2HNC5HCFeC3SC2HCNH2S2H2FeC2H2SHC3NCHC3NH2CSCH2NCFeC2HCH4SCSH3FeHC2H2C3HCSHCHSCH3C2H2CSHCH3C2HCH4C2HCHC2FeS2FeSFeSFeS3CHCH2CHCSH2C2H3CHSH3NHSC3HCHC2HC2SC2H2CHSNC2H2CHC4FeH3C3FeH2C3SHCHCS2CHSCFeHCNSH2CH2C2HC3NH3CHCH2FeH4C2SCH3C3NH3C2H2C3H3C2
_chemical_formula_sum              "S576 H1728 Fe288 C1728 N144"
_cell_length_a       71.9169
_cell_length_b       72.6925
_cell_length_c       73.2567
_cell_angle_alpha    77.7321
_cell_angle_beta     77.8086
_cell_angle_gamma    77.8036

_space_group_name_H-M_alt    "P 1"
_space_group_IT_number       1

loop_
  _space_group_symop_operation_xyz
  'x, y, z'

loop_
  _atom_site_type_symbol
  _atom_site_label
  _atom_site_symmetry_multiplicity
  _atom_site_fract_x
  _atom_site_fract_y
  _atom_site_fract_z
  _atom_site_occupancy
  S   S1        1.0  0.48538  0.03717  0.29233  1.0000
  H   H1        1.0  0.48031  0.08753  0.29624  1.0000
  Fe  Fe1       1.0  0.48251  0.22434  0.28675  1.0000
  Fe  Fe2       1.0  0.48280  0.18124  0.29905  1.0000
  C   C1        1.0  0.48702  0.09989  0.29476  1.0000
  H   H2        1.0  0.46007  0.11878  0.30166  1.0000
  S   S2        1.0  0.46921  0.15572  0.29957  1.0000
  C   C2        1.0  0.47560  0.11758  0.29783  1.0000
  C   C3        1.0  0.48412  0.13378  0.29566  1.0000
  H   H3        1.0  0.49065  0.23206  0.23933  1.0000
  Fe  Fe3       1.0  0.37983  0.03264  0.57397  1.0000
  S   S3        1.0  0.35143  0.04817  0.56626  1.0000
  S   S4        1.0  0.40240  0.02110  0.55124  1.0000
  S   S5        1.0  0.38361  0.05516  0.58895  1.0000
  S   S6        1.0  0.36722  0.01389  0.60012  1.0000
  N   N1        1.0  0.43022  0.17197  0.36762  1.0000
  H   H4        1.0  0.40041  0.02659  0.35042  1.0000
  H   H5        1.0  0.39219  0.03024  0.37432  1.0000
  Fe  Fe4       1.0  0.36668  0.01491  0.46609  1.0000
  S   S7        1.0  0.34407  0.02427  0.44757  1.0000
  S   S8        1.0  0.35741  0.00012  0.49578  1.0000
  Fe  Fe5       1.0  0.39808  0.02898  0.43479  1.0000
  S   S9        1.0  0.37783  0.03930  0.41386  1.0000
  S   S10       1.0  0.42994  0.02938  0.42590  1.0000
  Fe  Fe6       1.0  0.35730  0.05097  0.43799  1.0000
  S   S11       1.0  0.33880  0.08044  0.43503  1.0000
  Fe  Fe7       1.0  0.36705  0.01162  0.42556  1.0000
  C   C4        1.0  0.29529  0.98880  0.60090  1.0000
  S   S12       1.0  0.37822  0.04242  0.45834  1.0000
  S   S13       1.0  0.38875  0.00047  0.44486  1.0000
  H   H6        1.0  0.34350  0.98877  0.58750  1.0000
  S   S14       1.0  0.44544  0.04292  0.33695  1.0000
  S   S15       1.0  0.37326  0.14783  0.45098  1.0000
  C   C5        1.0  0.34906  0.09966  0.43749  1.0000
  C   C6        1.0  0.36804  0.09675  0.44067  1.0000
  C   C7        1.0  0.37534  0.11179  0.44439  1.0000
  C   C8        1.0  0.36382  0.12992  0.44478  1.0000
  C   C9        1.0  0.34497  0.13302  0.44115  1.0000
  C   C10       1.0  0.33760  0.11789  0.43759  1.0000
  H   H7        1.0  0.37707  0.08285  0.44047  1.0000
  H   H8        1.0  0.38995  0.10930  0.44713  1.0000
  N   N2        1.0  0.29706  0.07828  0.59781  1.0000
  H   H9        1.0  0.32288  0.12024  0.43516  1.0000
  C   C11       1.0  0.43592  0.03571  0.40119  1.0000
  C   C12       1.0  0.42265  0.04833  0.39099  1.0000
  C   C13       1.0  0.42596  0.05096  0.37116  1.0000
  C   C14       1.0  0.44281  0.04135  0.36147  1.0000
  C   C15       1.0  0.45687  0.02990  0.37155  1.0000
  C   C16       1.0  0.45341  0.02707  0.39146  1.0000
  H   H10       1.0  0.40977  0.05604  0.39839  1.0000
  H   H11       1.0  0.41527  0.06020  0.36337  1.0000
  H   H12       1.0  0.47005  0.02262  0.36408  1.0000
  H   H13       1.0  0.46384  0.01748  0.39932  1.0000
  S   S16       1.0  0.34269  0.20822  0.63477  1.0000
  N   N3        1.0  0.41499  0.00661  0.37103  1.0000
  H   H14       1.0  0.38774  0.20108  0.49323  1.0000
  H   H15       1.0  0.45980  0.10506  0.33906  1.0000
  C   C17       1.0  0.38377  0.20717  0.53905  1.0000
  C   C18       1.0  0.30025  0.09696  0.62005  1.0000
  H   H16       1.0  0.39344  0.12942  0.59810  1.0000
  H   H17       1.0  0.38599  0.01043  0.36703  1.0000
  S   S17       1.0  0.34665  0.19526  0.42171  1.0000
  C   C19       1.0  0.39238  0.11670  0.57427  1.0000
  H   H18       1.0  0.40381  0.00534  0.40054  1.0000
  H   H19       1.0  0.40213  0.18133  0.36032  1.0000
  C   C20       1.0  0.39086  0.01354  0.53609  1.0000
  C   C21       1.0  0.37318  0.00727  0.54305  1.0000
  C   C22       1.0  0.36348  0.00209  0.53075  1.0000
  C   C23       1.0  0.37116  0.00374  0.51136  1.0000
  C   C24       1.0  0.38895  0.00978  0.50443  1.0000
  C   C25       1.0  0.39896  0.01439  0.51687  1.0000
  H   H20       1.0  0.36690  0.00649  0.55792  1.0000
  S   S18       1.0  0.34199  0.15478  0.63116  1.0000
  H   H21       1.0  0.39496  0.01103  0.48947  1.0000
  H   H22       1.0  0.41265  0.01922  0.51146  1.0000
  C   C26       1.0  0.29039  0.06481  0.61245  1.0000
  C   C27       1.0  0.31265  0.99582  0.59613  1.0000
  H   H23       1.0  0.33958  0.14134  0.56886  1.0000
  H   H24       1.0  0.40839  0.03801  0.61526  1.0000
  H   H25       1.0  0.36156  0.22716  0.55277  1.0000
  C   C28       1.0  0.41046  0.17577  0.37164  1.0000
  Fe  Fe8       1.0  0.35389  0.06903  0.58377  1.0000
  H   H26       1.0  0.46061  0.08118  0.33507  1.0000
  Fe  Fe9       1.0  0.33902  0.03123  0.59367  1.0000
  S   S19       1.0  0.38042  0.22661  0.38976  1.0000
  N   N4        1.0  0.47969  0.08307  0.35273  1.0000
  C   C29       1.0  0.38601  0.15066  0.57421  1.0000
  C   C30       1.0  0.44011  0.17437  0.34780  1.0000
  H   H27       1.0  0.45499  0.17719  0.34652  1.0000
  C   C31       1.0  0.43144  0.16225  0.40091  1.0000
  S   S20       1.0  0.33883  0.05356  0.61065  1.0000
  H   H28       1.0  0.33595  0.14693  0.44148  1.0000
  C   C32       1.0  0.38192  0.20665  0.50624  1.0000
  H   H29       1.0  0.33834  0.16282  0.59141  1.0000
  H   H30       1.0  0.46824  0.06296  0.37587  1.0000
  C   C33       1.0  0.34495  0.11543  0.58911  1.0000
  C   C34       1.0  0.36566  0.22115  0.50698  1.0000
  H   H31       1.0  0.39604  0.10221  0.58173  1.0000
  H   H32       1.0  0.40389  0.16399  0.41978  1.0000
  H   H33       1.0  0.44878  0.08804  0.35748  1.0000
  S   S21       1.0  0.33684  0.19464  0.46751  1.0000
  C   C35       1.0  0.41847  0.21356  0.39444  1.0000
  C   C36       1.0  0.44557  0.21259  0.36794  1.0000
  C   C37       1.0  0.44681  0.98875  0.36291  1.0000
  H   H34       1.0  0.38508  0.17642  0.39363  1.0000
  H   H35       1.0  0.37891  0.10624  0.53806  1.0000
  C   C38       1.0  0.34741  0.10773  0.60781  1.0000
  C   C39       1.0  0.35840  0.22847  0.52384  1.0000
  C   C40       1.0  0.41130  0.16611  0.40513  1.0000
  C   C41       1.0  0.40072  0.17298  0.39044  1.0000
  S   S22       1.0  0.34585  0.20232  0.59122  1.0000
  C   C42       1.0  0.43268  0.22066  0.35535  1.0000
  C   C43       1.0  0.29908  0.07564  0.57815  1.0000
  H   H36       1.0  0.28181  0.99831  0.60444  1.0000
  H   H37       1.0  0.32529  0.03673  0.48696  1.0000
  H   H38       1.0  0.31118  0.22721  0.50033  1.0000
  H   H39       1.0  0.40495  0.10243  0.53646  1.0000
  H   H40       1.0  0.30208  0.06018  0.57716  1.0000
  C   C44       1.0  0.40559  0.22143  0.38180  1.0000
  C   C45       1.0  0.30143  0.09446  0.60139  1.0000
  S   S23       1.0  0.39526  0.19822  0.55900  1.0000
  H   H41       1.0  0.38139  0.14093  0.53233  1.0000
  H   H42       1.0  0.40396  0.18901  0.52139  1.0000
  S   S24       1.0  0.47048  0.20552  0.35972  1.0000
  S   S25       1.0  0.46227  0.20709  0.30774  1.0000
  H   H43       1.0  0.28563  0.08252  0.57253  1.0000
  Fe  Fe10      1.0  0.35060  0.18364  0.61889  1.0000
  H   H44       1.0  0.38987  0.09029  0.55638  1.0000
  H   H45       1.0  0.45892  0.98443  0.35216  1.0000
  C   C46       1.0  0.34088  0.14749  0.59604  1.0000
  Fe  Fe11      1.0  0.47598  0.03289  0.32395  1.0000
  H   H46       1.0  0.38474  0.16268  0.58126  1.0000
  S   S26       1.0  0.38233  0.18367  0.61371  1.0000
  S   S27       1.0  0.31158  0.02030  0.59605  1.0000
  H   H47       1.0  0.41311  0.21083  0.40953  1.0000
  H   H48       1.0  0.43239  0.18683  0.33900  1.0000
  H   H49       1.0  0.35006  0.09239  0.61243  1.0000
  C   C47       1.0  0.38407  0.13827  0.54677  1.0000
  C   C48       1.0  0.29414  0.08297  0.63507  1.0000
  H   H50       1.0  0.43903  0.04792  0.61601  1.0000
  H   H51       1.0  0.39607  0.98528  0.57855  1.0000
  N   N5        1.0  0.33534  0.06092  0.49111  1.0000
  C   C49       1.0  0.34595  0.05045  0.50445  1.0000
  C   C50       1.0  0.33742  0.07942  0.48360  1.0000
  C   C51       1.0  0.35997  0.05804  0.50970  1.0000
  C   C52       1.0  0.35126  0.08752  0.48853  1.0000
  C   C53       1.0  0.36276  0.07664  0.50149  1.0000
  C   C54       1.0  0.32104  0.05255  0.48547  1.0000
  H   H52       1.0  0.34371  0.03607  0.51095  1.0000
  H   H53       1.0  0.32857  0.08792  0.47346  1.0000
  H   H54       1.0  0.36871  0.04947  0.51991  1.0000
  H   H55       1.0  0.35321  0.10204  0.48209  1.0000
  H   H56       1.0  0.37381  0.08259  0.50516  1.0000
  H   H57       1.0  0.30669  0.05606  0.49436  1.0000
  H   H58       1.0  0.31993  0.05808  0.47027  1.0000
  H   H59       1.0  0.44831  0.20322  0.39736  1.0000
  C   C55       1.0  0.44073  0.16524  0.38195  1.0000
  H   H60       1.0  0.42952  0.00539  0.34259  1.0000
  C   C56       1.0  0.33006  0.98335  0.59148  1.0000
  C   C57       1.0  0.41584  0.00073  0.38990  1.0000
  H   H61       1.0  0.30630  0.10535  0.58980  1.0000
  H   H62       1.0  0.30438  0.10953  0.62277  1.0000
  Fe  Fe12      1.0  0.35722  0.21534  0.46288  1.0000
  C   C58       1.0  0.38246  0.15385  0.55572  1.0000
  H   H63       1.0  0.28663  0.05210  0.60963  1.0000
  C   C59       1.0  0.39111  0.19988  0.52216  1.0000
  C   C60       1.0  0.39097  0.13199  0.58361  1.0000
  Fe  Fe13      1.0  0.37711  0.20427  0.58695  1.0000
  C   C61       1.0  0.34627  0.11993  0.62069  1.0000
  H   H64       1.0  0.29189  0.22162  0.61346  1.0000
  C   C62       1.0  0.34154  0.13531  0.58330  1.0000
  S   S28       1.0  0.37250  0.23030  0.60057  1.0000
  Fe  Fe14      1.0  0.35949  0.17915  0.44712  1.0000
  S   S29       1.0  0.38101  0.19853  0.44445  1.0000
  H   H65       1.0  0.41967  0.22037  0.62651  1.0000
  N   N6        1.0  0.38881  0.11999  0.55611  1.0000
  Fe  Fe15      1.0  0.37463  0.20932  0.62803  1.0000
  Fe  Fe16      1.0  0.32617  0.21308  0.44172  1.0000
  C   C63       1.0  0.43240  0.98909  0.39574  1.0000
  H   H66       1.0  0.34792  0.11392  0.63521  1.0000
  H   H67       1.0  0.44107  0.16133  0.34178  1.0000
  H   H68       1.0  0.43980  0.15729  0.41226  1.0000
  S   S30       1.0  0.34604  0.10050  0.57278  1.0000
  C   C64       1.0  0.34319  0.13984  0.61478  1.0000
  H   H69       1.0  0.31148  0.08190  0.56903  1.0000
  Fe  Fe17      1.0  0.48169  0.20552  0.32835  1.0000
  H   H70       1.0  0.45640  0.16268  0.37879  1.0000
  H   H71       1.0  0.45154  0.22569  0.63045  1.0000
  C   C65       1.0  0.42818  0.04658  0.62872  1.0000
  H   H72       1.0  0.31118  0.21807  0.40035  1.0000
  Fe  Fe18      1.0  0.36836  0.03776  0.61468  1.0000
  H   H73       1.0  0.30316  0.23037  0.37835  1.0000
  C   C66       1.0  0.46131  0.08972  0.34579  1.0000
  C   C67       1.0  0.39752  0.01903  0.36534  1.0000
  Fe  Fe19      1.0  0.36717  0.21523  0.41983  1.0000
  C   C68       1.0  0.39084  0.10394  0.54622  1.0000
  C   C69       1.0  0.43841  0.20931  0.38752  1.0000
  S   S31       1.0  0.36629  0.99122  0.40650  1.0000
  H   H74       1.0  0.37846  0.16833  0.54842  1.0000
  H   H75       1.0  0.34967  0.99749  0.53615  1.0000
  C   C70       1.0  0.43008  0.00056  0.35758  1.0000
  C   C71       1.0  0.48098  0.06870  0.36814  1.0000
  C   C72       1.0  0.36725  0.22134  0.53989  1.0000
  C   C73       1.0  0.41074  0.04120  0.62823  1.0000
  H   H76       1.0  0.33338  0.99009  0.43703  1.0000
  Fe  Fe20      1.0  0.34112  0.22727  0.60642  1.0000
  C   C74       1.0  0.30261  0.23130  0.39339  1.0000
  H   H77       1.0  0.43324  0.98519  0.41074  1.0000
  H   H78       1.0  0.29453  0.22515  0.48571  1.0000
  C   C75       1.0  0.28118  0.22911  0.62346  1.0000
  C   C76       1.0  0.28900  0.06685  0.63128  1.0000
  C   C77       1.0  0.42343  0.21764  0.64051  1.0000
  H   H79       1.0  0.28749  0.23168  0.40114  1.0000
  S   S32       1.0  0.29407  0.22353  0.44134  1.0000
  H   H80       1.0  0.43804  0.22358  0.34029  1.0000
  C   C78       1.0  0.41278  0.22512  0.36227  1.0000
  S   S33       1.0  0.35450  0.23122  0.48699  1.0000
  H   H81       1.0  0.40293  0.23138  0.35242  1.0000
  C   C79       1.0  0.44801  0.98313  0.38213  1.0000
  H   H82       1.0  0.42856  0.00780  0.66132  1.0000
  C   C80       1.0  0.44147  0.22065  0.64280  1.0000
  H   H83       1.0  0.40328  0.98648  0.71844  1.0000
  C   C81       1.0  0.44131  0.99282  0.72780  1.0000
  H   H84       1.0  0.47262  0.00078  0.75829  1.0000
  H   H85       1.0  0.44862  0.00008  0.71467  1.0000
  N   N7        1.0  0.39919  0.11782  0.66145  1.0000
  H   H86       1.0  0.47899  0.12514  0.74959  1.0000
  H   H87       1.0  0.41803  0.09254  0.65411  1.0000
  H   H88       1.0  0.44828  0.15770  0.69399  1.0000
  H   H89       1.0  0.46854  0.10595  0.73047  1.0000
  H   H90       1.0  0.41644  0.00111  0.77105  1.0000
  C   C82       1.0  0.43260  0.00294  0.74263  1.0000
  Fe  Fe21      1.0  0.48132  0.19513  0.72996  1.0000
  S   S34       1.0  0.47748  0.16571  0.74587  1.0000
  Fe  Fe22      1.0  0.47790  0.21985  0.69163  1.0000
  C   C83       1.0  0.40796  0.14091  0.67575  1.0000
  S   S35       1.0  0.46882  0.22243  0.66315  1.0000
  C   C84       1.0  0.47121  0.15621  0.65055  1.0000
  H   H91       1.0  0.41843  0.01151  0.69521  1.0000
  C   C85       1.0  0.42323  0.99340  0.75956  1.0000
  H   H92       1.0  0.36914  0.16039  0.65420  1.0000
  S   S36       1.0  0.45895  0.22007  0.72022  1.0000
  S   S37       1.0  0.45379  0.05638  0.64590  1.0000
  Fe  Fe23      1.0  0.45766  0.08554  0.70034  1.0000
  H   H93       1.0  0.39547  0.09732  0.64588  1.0000
  S   S38       1.0  0.44935  0.11765  0.69743  1.0000
  Fe  Fe24      1.0  0.45006  0.04492  0.71695  1.0000
  S   S39       1.0  0.47154  0.03191  0.69434  1.0000
  H   H94       1.0  0.37466  0.12754  0.64752  1.0000
  Fe  Fe25      1.0  0.45888  0.05737  0.67474  1.0000
  C   C86       1.0  0.41016  0.21149  0.65639  1.0000
  S   S40       1.0  0.46963  0.06262  0.72276  1.0000
  S   S41       1.0  0.43580  0.06909  0.69703  1.0000
  C   C87       1.0  0.39298  0.15468  0.66928  1.0000
  H   H95       1.0  0.45943  0.17672  0.71254  1.0000
  S   S42       1.0  0.47974  0.07548  0.67641  1.0000
  C   C88       1.0  0.43331  0.21093  0.67676  1.0000
  C   C89       1.0  0.40027  0.04273  0.66159  1.0000
  C   C90       1.0  0.41787  0.04782  0.66216  1.0000
  C   C91       1.0  0.41082  0.12242  0.67175  1.0000
  S   S43       1.0  0.38688  0.20842  0.65456  1.0000
  H   H96       1.0  0.39060  0.16909  0.67229  1.0000
  H   H97       1.0  0.38949  0.04118  0.67432  1.0000
  H   H98       1.0  0.42066  0.05000  0.67536  1.0000
  C   C92       1.0  0.47254  0.13223  0.73729  1.0000
  H   H99       1.0  0.28436  0.05579  0.64282  1.0000
  S   S44       1.0  0.43316  0.02732  0.74123  1.0000
  C   C93       1.0  0.43178  0.04987  0.64568  1.0000
  C   C94       1.0  0.41615  0.99903  0.69062  1.0000
  C   C95       1.0  0.46995  0.15223  0.73232  1.0000
  C   C96       1.0  0.46154  0.16131  0.71645  1.0000
  C   C97       1.0  0.45520  0.15050  0.70597  1.0000
  C   C98       1.0  0.45769  0.13051  0.71098  1.0000
  C   C99       1.0  0.46663  0.12135  0.72649  1.0000
  C   C100      1.0  0.39671  0.03943  0.64460  1.0000
  C   C101      1.0  0.38423  0.13117  0.65533  1.0000
  H   H100      1.0  0.47240  0.12568  0.65820  1.0000
  C   C102      1.0  0.41524  0.20805  0.67448  1.0000
  H   H101      1.0  0.42237  0.11173  0.67701  1.0000
  H   H102      1.0  0.40507  0.20324  0.68685  1.0000
  H   H103      1.0  0.41721  0.14450  0.68394  1.0000
  H   H104      1.0  0.43698  0.20831  0.69078  1.0000
  H   H105      1.0  0.47288  0.18615  0.64625  1.0000
  C   C103      1.0  0.42177  0.99700  0.67161  1.0000
  C   C104      1.0  0.47819  0.17179  0.65313  1.0000
  C   C105      1.0  0.47807  0.13789  0.65968  1.0000
  C   C106      1.0  0.38097  0.14980  0.65909  1.0000
  C   C107      1.0  0.40232  0.09819  0.65786  1.0000
  C   C108      1.0  0.44642  0.21746  0.66092  1.0000
  H   H106      1.0  0.39622  0.08871  0.67075  1.0000
  S   S45       1.0  0.37488  0.03270  0.64413  1.0000
  H   H107      1.0  0.29350  0.08455  0.64960  1.0000
  C   C109      1.0  0.40758  0.98483  0.70367  1.0000
  C   C110      1.0  0.48084  0.99325  0.74701  1.0000
  H   H108      1.0  0.27028  0.23115  0.67054  1.0000
  Fe  Fe26      1.0  0.49025  0.05126  0.69851  1.0000
  C   C111      1.0  0.49171  0.13545  0.67147  1.0000
  C   C112      1.0  0.28238  0.22426  0.64276  1.0000
  C   C113      1.0  0.49193  0.16884  0.66489  1.0000
  H   H109      1.0  0.46032  0.15837  0.64170  1.0000
  H   H110      1.0  0.29383  0.21312  0.64759  1.0000
  H   H111      1.0  0.41347  0.46107  0.97433  1.0000
  C   C114      1.0  0.27461  0.42944  0.27765  1.0000
  C   C115      1.0  0.30483  0.45565  0.12127  1.0000
  H   H112      1.0  0.31766  0.43153  0.14000  1.0000
  C   C116      1.0  0.44844  0.41591  0.99306  1.0000
  H   H113      1.0  0.46810  0.30951  0.98515  1.0000
  S   S46       1.0  0.40185  0.45133  0.01505  1.0000
  C   C117      1.0  0.44072  0.41975  0.13263  1.0000
  C   C118      1.0  0.44720  0.29423  0.18612  1.0000
  S   S47       1.0  0.16068  0.46187  0.29504  1.0000
  H   H114      1.0  0.45484  0.41110  0.13373  1.0000
  S   S48       1.0  0.35095  0.44449  0.16892  1.0000
  H   H115      1.0  0.41921  0.26655  0.23855  1.0000
  H   H116      1.0  0.12388  0.45096  0.29812  1.0000
  H   H117      1.0  0.27912  0.48164  0.17702  1.0000
  C   C119      1.0  0.30690  0.44449  0.13896  1.0000
  H   H118      1.0  0.47940  0.30140  0.21294  1.0000
  H   H119      1.0  0.40812  0.46348  0.05231  1.0000
  S   S49       1.0  0.48550  0.33472  0.18833  1.0000
  C   C120      1.0  0.40008  0.41271  0.17612  1.0000
  S   S50       1.0  0.43989  0.36554  0.16727  1.0000
  C   C121      1.0  0.42894  0.38808  0.17340  1.0000
  C   C122      1.0  0.40928  0.39446  0.17247  1.0000
  C   C123      1.0  0.44460  0.28002  0.20218  1.0000
  C   C124      1.0  0.43927  0.39990  0.17852  1.0000
  H   H120      1.0  0.40113  0.38534  0.16869  1.0000
  H   H121      1.0  0.42985  0.33316  0.20728  1.0000
  H   H122      1.0  0.39762  0.41760  0.12299  1.0000
  H   H123      1.0  0.29038  0.48177  0.10641  1.0000
  H   H124      1.0  0.26476  0.44507  0.22867  1.0000
  H   H125      1.0  0.43799  0.42726  0.18635  1.0000
  H   H126      1.0  0.38501  0.41745  0.17517  1.0000
  C   C125      1.0  0.42106  0.44124  0.99905  1.0000
  H   H127      1.0  0.31378  0.45126  0.10849  1.0000
  H   H128      1.0  0.42022  0.38465  0.13214  1.0000
  C   C126      1.0  0.43092  0.39325  0.12304  1.0000
  H   H129      1.0  0.43622  0.27404  0.24931  1.0000
  C   C127      1.0  0.43396  0.42516  0.00580  1.0000
  H   H130      1.0  0.44465  0.25639  0.23459  1.0000
  C   C128      1.0  0.35045  0.46206  0.07927  1.0000
  H   H131      1.0  0.45795  0.40313  0.99829  1.0000
  H   H132      1.0  0.43244  0.41953  0.02085  1.0000
  C   C129      1.0  0.34577  0.47013  0.09576  1.0000
  S   S51       1.0  0.34840  0.46357  0.00800  1.0000
  H   H133      1.0  0.26145  0.43002  0.27172  1.0000
  S   S52       1.0  0.47979  0.32979  0.14621  1.0000
  C   C130      1.0  0.43403  0.26975  0.23630  1.0000
  N   N8        1.0  0.26941  0.43881  0.29433  1.0000
  Fe  Fe27      1.0  0.18301  0.47718  0.29980  1.0000
  C   C131      1.0  0.13776  0.47562  0.29237  1.0000
  S   S53       1.0  0.99428  0.46956  0.29686  1.0000
  C   C132      1.0  0.29165  0.47277  0.12013  1.0000
  H   H134      1.0  0.44378  0.32456  0.17567  1.0000
  H   H135      1.0  0.47564  0.33142  0.07266  1.0000
  C   C133      1.0  0.38827  0.41962  0.98768  1.0000
  H   H136      1.0  0.45391  0.29037  0.17240  1.0000
  Fe  Fe28      1.0  0.47185  0.35293  0.16413  1.0000
  C   C134      1.0  0.43155  0.30363  0.22161  1.0000
  N   N9        1.0  0.43703  0.28482  0.21967  1.0000
  H   H137      1.0  0.26751  0.46103  0.18265  1.0000
  H   H138      1.0  0.44928  0.26515  0.20063  1.0000
  C   C135      1.0  0.34278  0.47147  0.06299  1.0000
  C   C136      1.0  0.48224  0.28636  0.21855  1.0000
  H   H139      1.0  0.38982  0.44983  0.13139  1.0000
  C   C137      1.0  0.28052  0.47840  0.13679  1.0000
  C   C138      1.0  0.10330  0.47708  0.29360  1.0000
  C   C139      1.0  0.43669  0.43804  0.13731  1.0000
  H   H140      1.0  0.29719  0.44170  0.16902  1.0000
  H   H141      1.0  0.47654  0.31429  0.01474  1.0000
  C   C140      1.0  0.26898  0.45757  0.23130  1.0000
  C   C141      1.0  0.41830  0.44897  0.13680  1.0000
  H   H142      1.0  0.38349  0.46730  0.04897  1.0000
  C   C142      1.0  0.28598  0.46364  0.22064  1.0000
  C   C143      1.0  0.49038  0.27326  0.20637  1.0000
  H   H143      1.0  0.28080  0.46392  0.27992  1.0000
  H   H144      1.0  0.44540  0.38545  0.12587  1.0000
  H   H145      1.0  0.34638  0.46504  0.05038  1.0000
  C   C144      1.0  0.41037  0.42470  0.18100  1.0000
  H   H146      1.0  0.28146  0.41428  0.28150  1.0000
  S   S54       1.0  0.30052  0.45054  0.20340  1.0000
  S   S55       1.0  0.47175  0.25328  0.27001  1.0000
  C   C145      1.0  0.43392  0.31820  0.20581  1.0000
  H   H147      1.0  0.35993  0.44836  0.07910  1.0000
  C   C146      1.0  0.44177  0.31341  0.18799  1.0000
  N   N10       1.0  0.42677  0.41257  0.12758  1.0000
  H   H148      1.0  0.24438  0.46282  0.25359  1.0000
  C   C147      1.0  0.42994  0.41811  0.18247  1.0000
  C   C148      1.0  0.12186  0.46640  0.29493  1.0000
  Fe  Fe29      1.0  0.34850  0.46806  0.14374  1.0000
  H   H149      1.0  0.38905  0.47220  0.07025  1.0000
  Fe  Fe30      1.0  0.34655  0.47866  0.97799  1.0000
  Fe  Fe31      1.0  0.36999  0.46133  0.17654  1.0000
  H   H150      1.0  0.45440  0.39508  0.17941  1.0000
  Fe  Fe32      1.0  0.37790  0.47134  0.00188  1.0000
  C   C149      1.0  0.48014  0.26041  0.24568  1.0000
  S   S56       1.0  0.39948  0.44825  0.18442  1.0000
  C   C150      1.0  0.29536  0.45040  0.15532  1.0000
  H   H151      1.0  0.43040  0.39392  0.10787  1.0000
  C   C151      1.0  0.47710  0.27997  0.23807  1.0000
  Fe  Fe33      1.0  0.32615  0.46272  0.18472  1.0000
  C   C152      1.0  0.29123  0.47989  0.22402  1.0000
  H   H152      1.0  0.42551  0.30745  0.23545  1.0000
  C   C153      1.0  0.40877  0.42330  0.12679  1.0000
  C   C154      1.0  0.27349  0.45664  0.29311  1.0000
  H   H153      1.0  0.41470  0.46280  0.14126  1.0000
  C   C155      1.0  0.40427  0.44161  0.13143  1.0000
  C   C156      1.0  0.25744  0.46758  0.24541  1.0000
  H   H154      1.0  0.44748  0.44339  0.14210  1.0000
  H   H155      1.0  0.09112  0.46985  0.29564  1.0000
  S   S57       1.0  0.35505  0.45711  0.11600  1.0000
  C   C157      1.0  0.27082  0.47343  0.17143  1.0000
  H   H156      1.0  0.41047  0.39680  0.99717  1.0000
  N   N11       1.0  0.28222  0.46707  0.15407  1.0000
  C   C158      1.0  0.40493  0.40592  0.98502  1.0000
  H   H157      1.0  0.28506  0.43652  0.26628  1.0000
  C   C159      1.0  0.42310  0.44849  0.97961  1.0000
  C   C160      1.0  0.39385  0.47296  0.05469  1.0000
  C   C161      1.0  0.48312  0.30649  0.98684  1.0000
  H   H158      1.0  0.38070  0.42118  0.00189  1.0000
  S   S58       1.0  0.48489  0.35706  0.97882  1.0000
  H   H159      1.0  0.47048  0.29024  0.24733  1.0000
  C   C162      1.0  0.48777  0.30911  0.00362  1.0000
  S   S59       1.0  0.21302  0.46125  0.30327  1.0000
  H   H160      1.0  0.48843  0.33417  0.10078  1.0000
  C   C163      1.0  0.48847  0.24721  0.23360  1.0000
  C   C164      1.0  0.48836  0.33781  0.07070  1.0000
  S   S60       1.0  0.48836  0.34190  0.03250  1.0000
  S   S61       1.0  0.34539  0.47769  0.19463  1.0000
  H   H161      1.0  0.36886  0.44242  0.97405  1.0000
  Fe  Fe34      1.0  0.03322  0.33925  0.60372  1.0000
  S   S62       1.0  0.02276  0.37000  0.59249  1.0000
  H   H162      1.0  0.15723  0.33215  0.49664  1.0000
  Fe  Fe35      1.0  0.07478  0.34537  0.60074  1.0000
  S   S63       1.0  0.06758  0.37674  0.58965  1.0000
  Fe  Fe36      1.0  0.05059  0.36777  0.57160  1.0000
  S   S64       1.0  0.05440  0.37750  0.54002  1.0000
  S   S65       1.0  0.05957  0.33640  0.58122  1.0000
  S   S66       1.0  0.24297  0.34014  0.55721  1.0000
  H   H163      1.0  0.01463  0.28593  0.58878  1.0000
  H   H164      1.0  0.17863  0.34367  0.40027  1.0000
  C   C165      1.0  0.06450  0.43655  0.63725  1.0000
  H   H165      1.0  0.28914  0.38669  0.59486  1.0000
  Fe  Fe37      1.0  0.01244  0.35046  0.47033  1.0000
  S   S67       1.0  0.03648  0.33060  0.45565  1.0000
  C   C166      1.0  0.28947  0.28282  0.60010  1.0000
  Fe  Fe38      1.0  0.00747  0.37896  0.43436  1.0000
  S   S68       1.0  0.03089  0.36175  0.41650  1.0000
  Fe  Fe39      1.0  0.23164  0.34840  0.58609  1.0000
  Fe  Fe40      1.0  0.01752  0.33681  0.43332  1.0000
  S   S69       1.0  0.01247  0.31489  0.41816  1.0000
  Fe  Fe41      1.0  0.04755  0.35754  0.44028  1.0000
  S   S70       1.0  0.07713  0.36610  0.43358  1.0000
  H   H166      1.0  0.04057  0.40930  0.50669  1.0000
  S   S71       1.0  0.02479  0.37687  0.45685  1.0000
  S   S72       1.0  0.04845  0.45510  0.36466  1.0000
  H   H167      1.0  0.35267  0.26244  0.39162  1.0000
  H   H168      1.0  0.33024  0.29277  0.39688  1.0000
  C   C167      1.0  0.17820  0.41082  0.63208  1.0000
  H   H169      1.0  0.07730  0.43443  0.60824  1.0000
  H   H170      1.0  0.28834  0.33992  0.54522  1.0000
  H   H171      1.0  0.30150  0.35484  0.58563  1.0000
  H   H172      1.0  0.04933  0.29818  0.55634  1.0000
  S   S73       1.0  0.16595  0.36806  0.62495  1.0000
  S   S74       1.0  0.34572  0.23421  0.43774  1.0000
  C   C168      1.0  0.26432  0.39099  0.55912  1.0000
  C   C169      1.0  0.27213  0.29185  0.63000  1.0000
  Fe  Fe42      1.0  0.20165  0.36075  0.42397  1.0000
  S   S75       1.0  0.20406  0.32876  0.42780  1.0000
  S   S76       1.0  0.19648  0.37642  0.39461  1.0000
  Fe  Fe43      1.0  0.20074  0.35879  0.46650  1.0000
  S   S77       1.0  0.20252  0.32702  0.47314  1.0000
  S   S78       1.0  0.19519  0.37512  0.49065  1.0000
  Fe  Fe44      1.0  0.22540  0.32690  0.44685  1.0000
  S   S79       1.0  0.25602  0.31008  0.44657  1.0000
  Fe  Fe45      1.0  0.18097  0.33220  0.45349  1.0000
  S   S80       1.0  0.15414  0.31840  0.46083  1.0000
  S   S81       1.0  0.22468  0.35883  0.44119  1.0000
  S   S82       1.0  0.17764  0.36399  0.44878  1.0000
  C   C170      1.0  0.28343  0.24767  0.44251  1.0000
  C   C171      1.0  0.29455  0.26111  0.44296  1.0000
  C   C172      1.0  0.28588  0.28020  0.44371  1.0000
  C   C173      1.0  0.26594  0.28613  0.44419  1.0000
  C   C174      1.0  0.25470  0.27278  0.44365  1.0000
  C   C175      1.0  0.26346  0.25361  0.44276  1.0000
  H   H173      1.0  0.30984  0.25692  0.44276  1.0000
  H   H174      1.0  0.29467  0.29042  0.44420  1.0000
  H   H175      1.0  0.23929  0.27718  0.44411  1.0000
  N   N12       1.0  0.31012  0.24821  0.39448  1.0000
  C   C176      1.0  0.30215  0.26835  0.60959  1.0000
  C   C177      1.0  0.20170  0.39957  0.38480  1.0000
  C   C178      1.0  0.21032  0.40933  0.39433  1.0000
  C   C179      1.0  0.16355  0.34290  0.40129  1.0000
  H   H176      1.0  0.21390  0.40273  0.40814  1.0000
  H   H177      1.0  0.10972  0.34099  0.40471  1.0000
  H   H178      1.0  0.34593  0.23977  0.52449  1.0000
  H   H179      1.0  0.01950  0.31870  0.53298  1.0000
  S   S83       1.0  0.31811  0.25188  0.59642  1.0000
  H   H180      1.0  0.15704  0.34351  0.57296  1.0000
  C   C180      1.0  0.20981  0.43643  0.36803  1.0000
  C   C181      1.0  0.14941  0.35729  0.61807  1.0000
  C   C182      1.0  0.13748  0.34662  0.55347  1.0000
  C   C183      1.0  0.25413  0.25349  0.62968  1.0000
  C   C184      1.0  0.09734  0.35304  0.44351  1.0000
  C   C185      1.0  0.11363  0.36171  0.44058  1.0000
  C   C186      1.0  0.13088  0.35132  0.44619  1.0000
  C   C187      1.0  0.13204  0.33219  0.45505  1.0000
  C   C188      1.0  0.11551  0.32366  0.45859  1.0000
  C   C189      1.0  0.09819  0.33403  0.45281  1.0000
  H   H181      1.0  0.11314  0.37637  0.43334  1.0000
  H   H182      1.0  0.14341  0.35804  0.44305  1.0000
  H   H183      1.0  0.11625  0.30884  0.46543  1.0000
  H   H184      1.0  0.08571  0.32718  0.45509  1.0000
  C   C190      1.0  0.00656  0.42007  0.40593  1.0000
  C   C191      1.0  0.02531  0.42951  0.44659  1.0000
  C   C192      1.0  0.01218  0.44744  0.38124  1.0000
  C   C193      1.0  0.03214  0.44175  0.38039  1.0000
  C   C194      1.0  0.03928  0.42530  0.39247  1.0000
  C   C195      1.0  0.02652  0.41440  0.40511  1.0000
  H   H185      1.0  0.20509  0.41590  0.63665  1.0000
  H   H186      1.0  0.00656  0.46024  0.37220  1.0000
  H   H187      1.0  0.05470  0.42087  0.39188  1.0000
  H   H188      1.0  0.03220  0.40174  0.41436  1.0000
  H   H189      1.0  0.01545  0.42014  0.44529  1.0000
  H   H190      1.0  0.27193  0.30668  0.48915  1.0000
  H   H191      1.0  0.03780  0.32289  0.55634  1.0000
  C   C196      1.0  0.27595  0.25926  0.48907  1.0000
  H   H192      1.0  0.08213  0.39056  0.45997  1.0000
  H   H193      1.0  0.26590  0.36896  0.54322  1.0000
  H   H194      1.0  0.13171  0.31214  0.41713  1.0000
  H   H195      1.0  0.07263  0.39168  0.49452  1.0000
  C   C197      1.0  0.19714  0.40832  0.36686  1.0000
  N   N13       1.0  0.28486  0.36024  0.56353  1.0000
  S   S84       1.0  0.21563  0.45926  0.35772  1.0000
  H   H196      1.0  0.31015  0.25525  0.63671  1.0000
  C   C198      1.0  0.11700  0.35914  0.61183  1.0000
  S   S85       1.0  0.04482  0.46917  0.31145  1.0000
  C   C199      1.0  0.20114  0.42669  0.35851  1.0000
  N   N14       1.0  0.26734  0.24373  0.61713  1.0000
  Fe  Fe46      1.0  0.04051  0.37587  0.61168  1.0000
  C   C200      1.0  0.30040  0.26629  0.62927  1.0000
  C   C201      1.0  0.03686  0.30779  0.56309  1.0000
  C   C202      1.0  0.15570  0.34379  0.55842  1.0000
  C   C203      1.0  0.22957  0.35011  0.53886  1.0000
  C   C204      1.0  0.21435  0.36553  0.54063  1.0000
  C   C205      1.0  0.20415  0.37339  0.52558  1.0000
  C   C206      1.0  0.20896  0.36572  0.50881  1.0000
  C   C207      1.0  0.22409  0.35021  0.50710  1.0000
  C   C208      1.0  0.23446  0.34253  0.52204  1.0000
  H   H197      1.0  0.21050  0.37149  0.55353  1.0000
  H   H198      1.0  0.19238  0.38533  0.52699  1.0000
  H   H199      1.0  0.22791  0.34425  0.49420  1.0000
  H   H200      1.0  0.24624  0.33062  0.52059  1.0000
  C   C209      1.0  0.03938  0.36787  0.53001  1.0000
  C   C210      1.0  0.02015  0.36737  0.53865  1.0000
  C   C211      1.0  0.00791  0.36095  0.52971  1.0000
  C   C212      1.0  0.01496  0.35475  0.51234  1.0000
  C   C213      1.0  0.03430  0.35483  0.50394  1.0000
  C   C214      1.0  0.04648  0.36136  0.51277  1.0000
  C   C215      1.0  0.18950  0.41969  0.63960  1.0000
  S   S86       1.0  0.24303  0.40092  0.61636  1.0000
  H   H201      1.0  0.03996  0.34969  0.49069  1.0000
  H   H202      1.0  0.06149  0.36118  0.50632  1.0000
  H   H203      1.0  0.00136  0.30012  0.38964  1.0000
  Fe  Fe47      1.0  0.23547  0.33036  0.62650  1.0000
  H   H204      1.0  0.01870  0.42682  0.48423  1.0000
  H   H205      1.0  0.16852  0.33042  0.61600  1.0000
  C   C216      1.0  0.14038  0.32996  0.61022  1.0000
  H   H206      1.0  0.11845  0.37638  0.37391  1.0000
  H   H207      1.0  0.12713  0.38224  0.61885  1.0000
  C   C217      1.0  0.24292  0.40588  0.63900  1.0000
  H   H208      1.0  0.24429  0.43572  0.62858  1.0000
  H   H209      1.0  0.28116  0.24680  0.58818  1.0000
  H   H210      1.0  0.25368  0.46407  0.33795  1.0000
  Fe  Fe48      1.0  0.20718  0.47430  0.32951  1.0000
  H   H211      1.0  0.10274  0.36721  0.61055  1.0000
  C   C218      1.0  0.30472  0.28123  0.39776  1.0000
  C   C219      1.0  0.99404  0.30597  0.54256  1.0000
  Fe  Fe49      1.0  0.23388  0.37348  0.61435  1.0000
  C   C220      1.0  0.05529  0.41684  0.61888  1.0000
  H   H212      1.0  0.30670  0.33577  0.55963  1.0000
  H   H213      1.0  0.99856  0.28574  0.45154  1.0000
  S   S87       1.0  0.01282  0.31814  0.61418  1.0000
  H   H214      1.0  0.28268  0.33089  0.57014  1.0000
  C   C221      1.0  0.27148  0.37292  0.55422  1.0000
  S   S88       1.0  0.99975  0.34652  0.50128  1.0000
  H   H215      1.0  0.14409  0.31531  0.60791  1.0000
  H   H216      1.0  0.19758  0.43327  0.34470  1.0000
  H   H217      1.0  0.26719  0.24912  0.48823  1.0000
  C   C222      1.0  0.27450  0.29448  0.61024  1.0000
  C   C223      1.0  0.26638  0.24859  0.59684  1.0000
  N   N15       1.0  0.01870  0.30294  0.56112  1.0000
  H   H218      1.0  0.29476  0.29428  0.40031  1.0000
  C   C224      1.0  0.21442  0.42767  0.38593  1.0000
  C   C225      1.0  0.29769  0.26493  0.39691  1.0000
  H   H219      1.0  0.25974  0.26382  0.59285  1.0000
  C   C226      1.0  0.29144  0.36512  0.57777  1.0000
  C   C227      1.0  0.32459  0.28035  0.39594  1.0000
  H   H220      1.0  0.26509  0.40982  0.57798  1.0000
  C   C228      1.0  0.29103  0.34077  0.55939  1.0000
  H   H221      1.0  0.28220  0.26562  0.39880  1.0000
  C   C229      1.0  0.29828  0.28590  0.48950  1.0000
  S   S89       1.0  0.04921  0.34511  0.62437  1.0000
  C   C230      1.0  0.06842  0.39888  0.46535  1.0000
  S   S90       1.0  0.07855  0.45290  0.63891  1.0000
  C   C231      1.0  0.27093  0.39606  0.57363  1.0000
  H   H222      1.0  0.32201  0.26227  0.48886  1.0000
  H   H223      1.0  0.01454  0.37257  0.55188  1.0000
  H   H224      1.0  0.25784  0.23927  0.59318  1.0000
  S   S91       1.0  0.21374  0.37566  0.59405  1.0000
  C   C232      1.0  0.12174  0.34023  0.60880  1.0000
  H   H225      1.0  0.05693  0.41179  0.60568  1.0000
  H   H226      1.0  0.22114  0.43511  0.39336  1.0000
  C   C233      1.0  0.13265  0.46148  0.33988  1.0000
  S   S92       1.0  0.21433  0.32926  0.60823  1.0000
  H   H227      1.0  0.05994  0.40801  0.43799  1.0000
  H   H228      1.0  0.16631  0.31351  0.41543  1.0000
  H   H229      1.0  0.26431  0.30497  0.60281  1.0000
  H   H230      1.0  0.14943  0.40861  0.63021  1.0000
  H   H231      1.0  0.13568  0.34988  0.49869  1.0000
  H   H232      1.0  0.24341  0.26538  0.62469  1.0000
  Fe  Fe50      1.0  0.19792  0.35659  0.61778  1.0000
  C   C234      1.0  0.33716  0.26336  0.39304  1.0000
  C   C235      1.0  0.28455  0.38308  0.58305  1.0000
  N   N16       1.0  0.29542  0.25374  0.48872  1.0000
  N   N17       1.0  0.03842  0.41922  0.45972  1.0000
  C   C236      1.0  0.03277  0.41923  0.47878  1.0000
  C   C237      1.0  0.99939  0.43666  0.39407  1.0000
  C   C238      1.0  0.04503  0.40940  0.49154  1.0000
  C   C239      1.0  0.25420  0.43874  0.32687  1.0000
  H   H233      1.0  0.29079  0.28454  0.58487  1.0000
  C   C240      1.0  0.04134  0.41111  0.63429  1.0000
  H   H234      1.0  0.14822  0.45709  0.33838  1.0000
  C   C241      1.0  0.25972  0.42992  0.31088  1.0000
  C   C242      1.0  0.05582  0.40886  0.45298  1.0000
  H   H235      1.0  0.09116  0.44330  0.34814  1.0000
  C   C243      1.0  0.28541  0.27804  0.63945  1.0000
  S   S93       1.0  0.21723  0.35583  0.63855  1.0000
  S   S94       1.0  0.02663  0.39526  0.63286  1.0000
  C   C244      1.0  0.15077  0.35910  0.39470  1.0000
  C   C245      1.0  0.11841  0.37552  0.38924  1.0000
  H   H236      1.0  0.15630  0.37231  0.38873  1.0000
  H   H237      1.0  0.10340  0.37529  0.39714  1.0000
  H   H238      1.0  0.12267  0.38863  0.39140  1.0000
  H   H239      1.0  0.99288  0.36132  0.53592  1.0000
  H   H240      1.0  0.12155  0.43246  0.63945  1.0000
  C   C246      1.0  0.01166  0.30984  0.54458  1.0000
  C   C247      1.0  0.12068  0.44782  0.34380  1.0000
  C   C248      1.0  0.32963  0.24736  0.39225  1.0000
  C   C249      1.0  0.15807  0.41585  0.63592  1.0000
  H   H241      1.0  0.30722  0.29622  0.48941  1.0000
  C   C250      1.0  0.12451  0.48090  0.33695  1.0000
  C   C251      1.0  0.15425  0.33850  0.61471  1.0000
  C   C252      1.0  0.06305  0.39938  0.48471  1.0000
  C   C253      1.0  0.25829  0.45691  0.32574  1.0000
  H   H242      1.0  0.33952  0.23419  0.39005  1.0000
  C   C254      1.0  0.27848  0.29173  0.48955  1.0000
  H   H243      1.0  0.25469  0.24332  0.44241  1.0000
  N   N18       1.0  0.15230  0.34518  0.52100  1.0000
  C   C255      1.0  0.13602  0.34733  0.53455  1.0000
  C   C256      1.0  0.17020  0.34200  0.52585  1.0000
  C   C257      1.0  0.17219  0.34135  0.54458  1.0000
  C   C258      1.0  0.15086  0.34616  0.50113  1.0000
  H   H244      1.0  0.12178  0.34968  0.53082  1.0000
  H   H245      1.0  0.18307  0.34017  0.51513  1.0000
  H   H246      1.0  0.18645  0.33916  0.54827  1.0000
  H   H247      1.0  0.15885  0.35725  0.49187  1.0000
  S   S95       1.0  0.25358  0.34808  0.60391  1.0000
  C   C259      1.0  0.06675  0.42971  0.62031  1.0000
  N   N19       1.0  0.13164  0.35837  0.39615  1.0000
  H   H248      1.0  0.24638  0.43175  0.33997  1.0000
  H   H249      1.0  0.03346  0.43421  0.43223  1.0000
  S   S96       1.0  0.10486  0.32908  0.60296  1.0000
  C   C260      1.0  0.12491  0.34157  0.40346  1.0000
  H   H250      1.0  0.12457  0.34828  0.56425  1.0000
  H   H251      1.0  0.25192  0.28289  0.48892  1.0000
  Fe  Fe51      1.0  0.03580  0.47570  0.34096  1.0000
  H   H252      1.0  0.19052  0.40083  0.35938  1.0000
  H   H253      1.0  0.01648  0.44261  0.45153  1.0000
  C   C261      1.0  0.15669  0.32593  0.40948  1.0000
  H   H254      1.0  0.25336  0.40080  0.55203  1.0000
  C   C262      1.0  0.30472  0.23396  0.48747  1.0000
  C   C263      1.0  0.26789  0.46599  0.30874  1.0000
  C   C264      1.0  0.13728  0.32516  0.41043  1.0000
  C   C265      1.0  0.26719  0.27832  0.48953  1.0000
  H   H255      1.0  0.18500  0.40000  0.62342  1.0000
  H   H256      1.0  0.25603  0.41600  0.31176  1.0000
  C   C266      1.0  0.13080  0.36761  0.61654  1.0000
  H   H257      1.0  0.31648  0.23377  0.47493  1.0000
  C   C267      1.0  0.30655  0.26671  0.48914  1.0000
  C   C268      1.0  0.00912  0.29128  0.57558  1.0000
  H   H258      1.0  0.12689  0.43274  0.34555  1.0000
  H   H259      1.0  0.07765  0.47762  0.34309  1.0000
  H   H260      1.0  0.03785  0.30649  0.57829  1.0000
  H   H261      1.0  0.00422  0.34274  0.57937  1.0000
  C   C269      1.0  0.09312  0.47323  0.34215  1.0000
  C   C270      1.0  0.10075  0.45370  0.34510  1.0000
  H   H262      1.0  0.27063  0.48036  0.30751  1.0000
  H   H263      1.0  0.40925  0.25057  0.68005  1.0000
  H   H264      1.0  0.16082  0.43835  0.75494  1.0000
  H   H265      1.0  0.14689  0.41864  0.74130  1.0000
  H   H266      1.0  0.02784  0.36896  0.69882  1.0000
  Fe  Fe52      1.0  0.09812  0.45133  0.69965  1.0000
  H   H267      1.0  0.37142  0.43989  0.93552  1.0000
  S   S97       1.0  0.12988  0.44117  0.70064  1.0000
  Fe  Fe53      1.0  0.05748  0.44038  0.70883  1.0000
  S   S98       1.0  0.33743  0.46503  0.95706  1.0000
  Fe  Fe54      1.0  0.07393  0.45754  0.66885  1.0000
  H   H268      1.0  0.40738  0.25444  0.71341  1.0000
  H   H269      1.0  0.04211  0.36600  0.66658  1.0000
  S   S99       1.0  0.08455  0.43176  0.68884  1.0000
  S   S100      1.0  0.07208  0.45751  0.72200  1.0000
  H   H270      1.0  0.11758  0.47134  0.72355  1.0000
  H   H271      1.0  0.02836  0.41348  0.66318  1.0000
  C   C271      1.0  0.16120  0.41325  0.73411  1.0000
  H   H272      1.0  0.43896  0.44476  0.95181  1.0000
  H   H273      1.0  0.33999  0.47198  0.88847  1.0000
  H   H274      1.0  0.24117  0.38458  0.68526  1.0000
  C   C272      1.0  0.30011  0.46622  0.79455  1.0000
  S   S101      1.0  0.26507  0.46015  0.71036  1.0000
  H   H275      1.0  0.18261  0.38757  0.69912  1.0000
  H   H276      1.0  0.00191  0.47141  0.66844  1.0000
  C   C273      1.0  0.08452  0.38865  0.67093  1.0000
  C   C274      1.0  0.19741  0.40014  0.71471  1.0000
  N   N20       1.0  0.14948  0.42958  0.64674  1.0000
  H   H277      1.0  0.09620  0.39540  0.67204  1.0000
  H   H278      1.0  0.20810  0.41452  0.73195  1.0000
  H   H279      1.0  0.18590  0.43920  0.74870  1.0000
  S   S102      1.0  0.04562  0.46493  0.68790  1.0000
  C   C275      1.0  0.29051  0.48159  0.87436  1.0000
  Fe  Fe55      1.0  0.47356  0.36028  0.81133  1.0000
  S   S103      1.0  0.45949  0.33759  0.83191  1.0000
  S   S104      1.0  0.45701  0.38622  0.79484  1.0000
  Fe  Fe56      1.0  0.48066  0.33876  0.85012  1.0000
  S   S105      1.0  0.46915  0.34191  0.88065  1.0000
  C   C276      1.0  0.17366  0.46130  0.71190  1.0000
  N   N21       1.0  0.44996  0.26896  0.67474  1.0000
  C   C277      1.0  0.44914  0.27097  0.69306  1.0000
  S   S106      1.0  0.46641  0.41022  0.95728  1.0000
  H   H280      1.0  0.28797  0.46699  0.87700  1.0000
  Fe  Fe57      1.0  0.48309  0.31663  0.81805  1.0000
  H   H281      1.0  0.18940  0.44015  0.65704  1.0000
  Fe  Fe58      1.0  0.24964  0.46110  0.74027  1.0000
  S   S107      1.0  0.46978  0.26748  0.73455  1.0000
  S   S108      1.0  0.26800  0.45000  0.76330  1.0000
  Fe  Fe59      1.0  0.24040  0.44745  0.70660  1.0000
  S   S109      1.0  0.24115  0.41902  0.69804  1.0000
  S   S110      1.0  0.33719  0.47222  0.84390  1.0000
  S   S111      1.0  0.22632  0.44625  0.73721  1.0000
  Fe  Fe60      1.0  0.36686  0.46222  0.82778  1.0000
  C   C278      1.0  0.24178  0.39159  0.65510  1.0000
  S   S112      1.0  0.37937  0.43083  0.83595  1.0000
  C   C279      1.0  0.18109  0.39586  0.71022  1.0000
  C   C280      1.0  0.00960  0.40172  0.74031  1.0000
  H   H282      1.0  0.31786  0.46961  0.75122  1.0000
  H   H283      1.0  0.46060  0.27617  0.69693  1.0000
  C   C281      1.0  0.08549  0.38060  0.65502  1.0000
  S   S113      1.0  0.47828  0.28852  0.81234  1.0000
  C   C282      1.0  0.05416  0.37199  0.66817  1.0000
  C   C283      1.0  0.29194  0.45544  0.78549  1.0000
  H   H284      1.0  0.41635  0.41628  0.93711  1.0000
  H   H285      1.0  0.43681  0.25953  0.65567  1.0000
  C   C284      1.0  0.38481  0.44376  0.93776  1.0000
  H   H286      1.0  0.47791  0.26018  0.65973  1.0000
  H   H287      1.0  0.29667  0.44011  0.78708  1.0000
  C   C285      1.0  0.05085  0.43042  0.65280  1.0000
  H   H288      1.0  0.42824  0.39435  0.96451  1.0000
  H   H289      1.0  0.04923  0.43540  0.66601  1.0000
  C   C286      1.0  0.43702  0.39995  0.80731  1.0000
  C   C287      1.0  0.42913  0.39313  0.82606  1.0000
  C   C288      1.0  0.41182  0.40318  0.83492  1.0000
  C   C289      1.0  0.40243  0.42026  0.82524  1.0000
  C   C290      1.0  0.41074  0.42750  0.80675  1.0000
  C   C291      1.0  0.42792  0.41729  0.79778  1.0000
  H   H290      1.0  0.43601  0.37982  0.83356  1.0000
  H   H291      1.0  0.40547  0.39749  0.84922  1.0000
  H   H292      1.0  0.40360  0.44061  0.79915  1.0000
  H   H293      1.0  0.43397  0.42267  0.78328  1.0000
  C   C292      1.0  0.47571  0.29693  0.77394  1.0000
  C   C293      1.0  0.47641  0.28305  0.79036  1.0000
  C   C294      1.0  0.47587  0.26405  0.78940  1.0000
  C   C295      1.0  0.47450  0.25894  0.77227  1.0000
  H   H294      1.0  0.48752  0.28320  0.95798  1.0000
  Fe  Fe61      1.0  0.47868  0.23820  0.72562  1.0000
  C   C296      1.0  0.41415  0.34974  0.81550  1.0000
  H   H295      1.0  0.17784  0.41974  0.76645  1.0000
  S   S114      1.0  0.04246  0.41592  0.72461  1.0000
  C   C297      1.0  0.14407  0.47815  0.72783  1.0000
  H   H296      1.0  0.04008  0.37816  0.71291  1.0000
  C   C298      1.0  0.41920  0.25875  0.70251  1.0000
  C   C299      1.0  0.44055  0.34206  0.78928  1.0000
  H   H297      1.0  0.43332  0.26741  0.72174  1.0000
  H   H298      1.0  0.18924  0.45798  0.70898  1.0000
  N   N22       1.0  0.39191  0.43066  0.95399  1.0000
  C   C300      1.0  0.43761  0.43931  0.96688  1.0000
  C   C301      1.0  0.07028  0.37217  0.65361  1.0000
  C   C302      1.0  0.43579  0.26183  0.67004  1.0000
  H   H299      1.0  0.01095  0.44260  0.70772  1.0000
  H   H300      1.0  0.39564  0.44350  0.92449  1.0000
  H   H301      1.0  0.42585  0.37673  0.77292  1.0000
  C   C303      1.0  0.24280  0.42896  0.65898  1.0000
  C   C304      1.0  0.24193  0.41456  0.67505  1.0000
  C   C305      1.0  0.24150  0.39589  0.67299  1.0000
  C   C306      1.0  0.01731  0.41666  0.72766  1.0000
  H   H302      1.0  0.38134  0.45871  0.94046  1.0000
  H   H303      1.0  0.24322  0.44338  0.66040  1.0000
  H   H304      1.0  0.39766  0.39903  0.78617  1.0000
  C   C307      1.0  0.03610  0.38031  0.69863  1.0000
  C   C308      1.0  0.14262  0.45535  0.70846  1.0000
  C   C309      1.0  0.41776  0.37228  0.78688  1.0000
  C   C310      1.0  0.25490  0.24903  0.64908  1.0000
  N   N23       1.0  0.42366  0.35490  0.79744  1.0000
  H   H305      1.0  0.39111  0.35830  0.83791  1.0000
  C   C311      1.0  0.16284  0.45195  0.70413  1.0000
  H   H306      1.0  0.33560  0.45455  0.92179  1.0000
  H   H307      1.0  0.02657  0.39447  0.69629  1.0000
  H   H308      1.0  0.48443  0.34834  0.94057  1.0000
  H   H309      1.0  0.17025  0.44157  0.69524  1.0000
  H   H310      1.0  0.01891  0.39060  0.74819  1.0000
  C   C312      1.0  0.06822  0.38818  0.68526  1.0000
  H   H311      1.0  0.47385  0.24431  0.77183  1.0000
  H   H312      1.0  0.06742  0.39471  0.69748  1.0000
  H   H313      1.0  0.46264  0.27839  0.64606  1.0000
  C   C313      1.0  0.39827  0.36215  0.82341  1.0000
  N   N24       1.0  0.05338  0.37980  0.68382  1.0000
  H   H314      1.0  0.45353  0.34898  0.78621  1.0000
  C   C314      1.0  0.47387  0.29190  0.75691  1.0000
  H   H315      1.0  0.47633  0.31155  0.77440  1.0000
  C   C315      1.0  0.47324  0.27290  0.75598  1.0000
  C   C316      1.0  0.00509  0.43100  0.71751  1.0000
  C   C317      1.0  0.40184  0.38496  0.79428  1.0000
  H   H316      1.0  0.29330  0.48097  0.90312  1.0000
  C   C318      1.0  0.40818  0.41714  0.95124  1.0000
  C   C319      1.0  0.33898  0.46883  0.91868  1.0000
  C   C320      1.0  0.34079  0.47744  0.93351  1.0000
  H   H317      1.0  0.12298  0.42497  0.66443  1.0000
  H   H318      1.0  0.01727  0.46045  0.64943  1.0000
  H   H319      1.0  0.47291  0.30281  0.74437  1.0000
  H   H320      1.0  0.21170  0.39513  0.70725  1.0000
  H   H321      1.0  0.14996  0.39955  0.71640  1.0000
  C   C321      1.0  0.19526  0.41114  0.72877  1.0000
  C   C322      1.0  0.17534  0.42922  0.75284  1.0000
  H   H322      1.0  0.41901  0.33612  0.82404  1.0000
  H   H323      1.0  0.43818  0.33883  0.77589  1.0000
  C   C323      1.0  0.13319  0.46874  0.72005  1.0000
  C   C324      1.0  0.38183  0.43182  0.97189  1.0000
  N   N25       1.0  0.17728  0.41776  0.73810  1.0000
  C   C325      1.0  0.42020  0.25665  0.68381  1.0000
  C   C326      1.0  0.39209  0.37986  0.81268  1.0000
  H   H324      1.0  0.44366  0.32822  0.79903  1.0000
  C   C327      1.0  0.16283  0.40241  0.71999  1.0000
  H   H325      1.0  0.00776  0.44591  0.67134  1.0000
  C   C328      1.0  0.47788  0.34519  0.91414  1.0000
  H   H326      1.0  0.46276  0.35134  0.91751  1.0000
  H   H327      1.0  0.38026  0.38995  0.81887  1.0000
  H   H328      1.0  0.47316  0.28459  0.66357  1.0000
  C   C329      1.0  0.34152  0.47864  0.89982  1.0000
  C   C330      1.0  0.46673  0.27330  0.66032  1.0000
  Fe  Fe62      1.0  0.06208  0.48168  0.69940  1.0000
  C   C331      1.0  0.27770  0.46430  0.77438  1.0000
  H   H329      1.0  0.31106  0.45921  0.80305  1.0000
  Fe  Fe63      1.0  0.48856  0.38775  0.97055  1.0000
  S   S115      1.0  0.22296  0.47599  0.69671  1.0000
  Fe  Fe64      1.0  0.21011  0.47531  0.72739  1.0000
  C   C332      1.0  0.48510  0.33922  0.89661  1.0000
  H   H330      1.0  0.28373  0.27602  0.65473  1.0000
  C   C333      1.0  0.43371  0.26603  0.70718  1.0000
  C   C334      1.0  0.45009  0.42286  0.97357  1.0000
  C   C335      1.0  0.16434  0.47424  0.72398  1.0000
  H   H331      1.0  0.15363  0.44865  0.66344  1.0000
  C   C336      1.0  0.41489  0.40453  0.96669  1.0000
  C   C337      1.0  0.16047  0.43811  0.65447  1.0000
  C   C338      1.0  0.18065  0.43335  0.65098  1.0000
  H   H332      1.0  0.24154  0.37712  0.65375  1.0000
  H   H333      1.0  0.12348  0.44944  0.65303  1.0000
  H   H334      1.0  0.47637  0.25320  0.80203  1.0000
  H   H335      1.0  0.48319  0.38460  0.89654  1.0000
  S   S116      1.0  0.08935  0.47676  0.67810  1.0000
  S   S117      1.0  0.25156  0.30415  0.64318  1.0000
  H   H336      1.0  0.31072  0.46973  0.71731  1.0000
  H   H337      1.0  0.48920  0.38605  0.86169  1.0000
  H   H338      1.0  0.48015  0.30872  0.95087  1.0000
  C   C339      1.0  0.12836  0.43429  0.65111  1.0000
  C   C340      1.0  0.26918  0.23436  0.65561  1.0000
  S   S118      1.0  0.36011  0.47842  0.79939  1.0000
  C   C341      1.0  0.03906  0.41799  0.65120  1.0000
  C   C342      1.0  0.49013  0.34351  0.92719  1.0000
  C   C343      1.0  0.00446  0.45914  0.66087  1.0000
  H   H339      1.0  0.24500  0.25750  0.65879  1.0000
  H   H340      1.0  0.28783  0.47762  0.73153  1.0000
  H   H341      1.0  0.99962  0.43103  0.64520  1.0000
  C   C344      1.0  0.49208  0.29733  0.95541  1.0000
  H   H342      1.0  0.07078  0.36624  0.64109  1.0000
  H   H343      1.0  0.09790  0.38109  0.64370  1.0000
  C   C345      1.0  0.24345  0.42457  0.64099  1.0000
  Fe  Fe65      1.0  0.36939  0.62337  0.01245  1.0000
  S   S119      1.0  0.34498  0.64607  0.00373  1.0000
  S   S120      1.0  0.36204  0.59441  0.02597  1.0000
  Fe  Fe66      1.0  0.39764  0.65067  0.00173  1.0000
  C   C346      1.0  0.00853  0.60191  0.27589  1.0000
  H   H344      1.0  0.47387  0.69561  0.98442  1.0000
  Fe  Fe67      1.0  0.35637  0.66441  0.01828  1.0000
  S   S121      1.0  0.33531  0.68445  0.03545  1.0000
  C   C347      1.0  0.38040  0.56964  0.97928  1.0000
  H   H345      1.0  0.07677  0.69266  0.27988  1.0000
  S   S122      1.0  0.37893  0.64098  0.02930  1.0000
  C   C348      1.0  0.39972  0.70123  0.16727  1.0000
  H   H346      1.0  0.28680  0.69158  0.23204  1.0000
  H   H347      1.0  0.38036  0.60411  0.09496  1.0000
  H   H348      1.0  0.37102  0.53788  0.04686  1.0000
  C   C349      1.0  0.37061  0.55414  0.98373  1.0000
  C   C350      1.0  0.40787  0.71719  0.98104  1.0000
  C   C351      1.0  0.39082  0.69912  0.08136  1.0000
  C   C352      1.0  0.32522  0.49693  0.07974  1.0000
  C   C353      1.0  0.37071  0.70548  0.11093  1.0000
  C   C354      1.0  0.32060  0.64270  0.08434  1.0000
  C   C355      1.0  0.11431  0.70582  0.29240  1.0000
  S   S123      1.0  0.42664  0.72487  0.03855  1.0000
  H   H349      1.0  0.03074  0.61846  0.27357  1.0000
  Fe  Fe68      1.0  0.34621  0.66458  0.14216  1.0000
  S   S124      1.0  0.37645  0.65119  0.13189  1.0000
  S   S125      1.0  0.32832  0.68564  0.12281  1.0000
  C   C356      1.0  0.36861  0.59813  0.09178  1.0000
  S   S126      1.0  0.37673  0.62910  0.17555  1.0000
  Fe  Fe69      1.0  0.36773  0.62428  0.14974  1.0000
  S   S127      1.0  0.37858  0.59686  0.13808  1.0000
  S   S128      1.0  0.33665  0.63718  0.15800  1.0000
  H   H350      1.0  0.37433  0.59135  0.07900  1.0000
  S   S129      1.0  0.19333  0.50342  0.28174  1.0000
  H   H351      1.0  0.31928  0.67688  0.22687  1.0000
  S   S130      1.0  0.20699  0.64192  0.28940  1.0000
  Fe  Fe70      1.0  0.36662  0.65480  0.97808  1.0000
  H   H352      1.0  0.39235  0.69971  0.06625  1.0000
  C   C357      1.0  0.43812  0.72514  0.98332  1.0000
  C   C358      1.0  0.26834  0.68935  0.27886  1.0000
  H   H353      1.0  0.37036  0.50455  0.06371  1.0000
  C   C359      1.0  0.01625  0.56859  0.28957  1.0000
  C   C360      1.0  0.11662  0.65323  0.29695  1.0000
  C   C361      1.0  0.44493  0.67677  0.01570  1.0000
  C   C362      1.0  0.40865  0.51472  0.01894  1.0000
  C   C363      1.0  0.34767  0.67341  0.08911  1.0000
  S   S131      1.0  0.00458  0.65263  0.28715  1.0000
  H   H354      1.0  0.38518  0.69833  0.16970  1.0000
  S   S132      1.0  0.07770  0.51087  0.28677  1.0000
  N   N26       1.0  0.40620  0.69143  0.09047  1.0000
  H   H355      1.0  0.39620  0.70811  0.03280  1.0000
  Fe  Fe71      1.0  0.34218  0.49898  0.16782  1.0000
  C   C364      1.0  0.10067  0.49703  0.28904  1.0000
  S   S133      1.0  0.33060  0.52989  0.17046  1.0000
  H   H356      1.0  0.42313  0.67787  0.06775  1.0000
  C   C365      1.0  0.22613  0.54602  0.27461  1.0000
  H   H357      1.0  0.41796  0.48425  0.02319  1.0000
  S   S134      1.0  0.37568  0.67554  0.99176  1.0000
  C   C366      1.0  0.08448  0.69896  0.28754  1.0000
  C   C367      1.0  0.38656  0.69801  0.12002  1.0000
  H   H358      1.0  0.36148  0.66438  0.06236  1.0000
  C   C368      1.0  0.43741  0.70890  0.16157  1.0000
  S   S135      1.0  0.32176  0.48462  0.15863  1.0000
  H   H359      1.0  0.27063  0.49194  0.13582  1.0000
  C   C369      1.0  0.00322  0.58392  0.28182  1.0000
  Fe  Fe72      1.0  0.34601  0.64418  0.18276  1.0000
  H   H360      1.0  0.43297  0.69642  0.07338  1.0000
  C   C370      1.0  0.23760  0.60250  0.26651  1.0000
  C   C371      1.0  0.03924  0.58881  0.28589  1.0000
  N   N27       1.0  0.30281  0.67976  0.25455  1.0000
  H   H361      1.0  0.41655  0.68517  0.11678  1.0000
  C   C372      1.0  0.40812  0.49606  0.02885  1.0000
  H   H362      1.0  0.29967  0.65966  0.19544  1.0000
  H   H363      1.0  0.39653  0.67967  0.01933  1.0000
  Fe  Fe73      1.0  0.33806  0.49274  0.01580  1.0000
  S   S136      1.0  0.36771  0.49933  0.01169  1.0000
  C   C373      1.0  0.34194  0.62165  0.10424  1.0000
  C   C374      1.0  0.11659  0.50624  0.28630  1.0000
  Fe  Fe74      1.0  0.05131  0.49902  0.30340  1.0000
  H   H364      1.0  0.45197  0.71169  0.15948  1.0000
  S   S137      1.0  0.02158  0.51216  0.29713  1.0000
  H   H365      1.0  0.17775  0.58450  0.29697  1.0000
  C   C375      1.0  0.41535  0.68771  0.16090  1.0000
  C   C376      1.0  0.32997  0.48881  0.06322  1.0000
  C   C377      1.0  0.37773  0.58209  0.99218  1.0000
  Fe  Fe75      1.0  0.36389  0.51143  0.98184  1.0000
  H   H366      1.0  0.31534  0.51040  0.07994  1.0000
  C   C378      1.0  0.38152  0.50738  0.05144  1.0000
  H   H367      1.0  0.28419  0.50216  0.24088  1.0000
  C   C379      1.0  0.35250  0.58753  0.20360  1.0000
  C   C380      1.0  0.36501  0.57836  0.14647  1.0000
  C   C381      1.0  0.37356  0.55963  0.14398  1.0000
  C   C382      1.0  0.36308  0.54456  0.15095  1.0000
  C   C383      1.0  0.34391  0.54830  0.16013  1.0000
  C   C384      1.0  0.33526  0.56712  0.16215  1.0000
  C   C385      1.0  0.34584  0.58208  0.15555  1.0000
  H   H368      1.0  0.38841  0.55672  0.13690  1.0000
  H   H369      1.0  0.36984  0.53007  0.14937  1.0000
  H   H370      1.0  0.32040  0.57007  0.16919  1.0000
  H   H371      1.0  0.33909  0.59645  0.15745  1.0000
  C   C386      1.0  0.42758  0.67234  0.01362  1.0000
  Fe  Fe76      1.0  0.23078  0.65922  0.27787  1.0000
  H   H372      1.0  0.26518  0.67021  0.20876  1.0000
  H   H373      1.0  0.38504  0.69727  0.13519  1.0000
  S   S138      1.0  0.42796  0.65432  0.00097  1.0000
  C   C387      1.0  0.43418  0.69163  0.15804  1.0000
  C   C388      1.0  0.44472  0.69252  0.02402  1.0000
  H   H374      1.0  0.35845  0.66453  0.09695  1.0000
  C   C389      1.0  0.13503  0.49559  0.28826  1.0000
  C   C390      1.0  0.27982  0.48976  0.23820  1.0000
  S   S139      1.0  0.24311  0.66415  0.24639  1.0000
  H   H375      1.0  0.30881  0.62807  0.25037  1.0000
  H   H376      1.0  0.36457  0.58676  0.10392  1.0000
  C   C391      1.0  0.42176  0.72245  0.16787  1.0000
  C   C392      1.0  0.37285  0.70618  0.09144  1.0000
  H   H377      1.0  0.23437  0.53909  0.26248  1.0000
  C   C393      1.0  0.28651  0.68859  0.24724  1.0000
  C   C394      1.0  0.32120  0.67507  0.24187  1.0000
  C   C395      1.0  0.34663  0.61944  0.07162  1.0000
  S   S140      1.0  0.33154  0.63624  0.21349  1.0000
  C   C396      1.0  0.36519  0.57917  0.00953  1.0000
  C   C397      1.0  0.35521  0.56378  0.01389  1.0000
  C   C398      1.0  0.35789  0.55129  0.00099  1.0000
  C   C399      1.0  0.40293  0.71857  0.17063  1.0000
  H   H378      1.0  0.38576  0.59364  0.98883  1.0000
  H   H379      1.0  0.32782  0.65985  0.24600  1.0000
  H   H380      1.0  0.34530  0.56157  0.02719  1.0000
  H   H381      1.0  0.34985  0.53965  0.00431  1.0000
  H   H382      1.0  0.25815  0.59047  0.28530  1.0000
  C   C400      1.0  0.29420  0.65496  0.21028  1.0000
  C   C401      1.0  0.33520  0.68466  0.05946  1.0000
  C   C402      1.0  0.31975  0.69635  0.06880  1.0000
  C   C403      1.0  0.31811  0.69652  0.08811  1.0000
  C   C404      1.0  0.33183  0.68493  0.09843  1.0000
  H   H383      1.0  0.30880  0.70521  0.06109  1.0000
  H   H384      1.0  0.30594  0.70555  0.09514  1.0000
  H   H385      1.0  0.45853  0.66813  0.01072  1.0000
  H   H386      1.0  0.16411  0.65787  0.28441  1.0000
  C   C405      1.0  0.14978  0.65827  0.29283  1.0000
  H   H387      1.0  0.39077  0.72898  0.17554  1.0000
  S   S141      1.0  0.21555  0.68330  0.29346  1.0000
  C   C406      1.0  0.42718  0.70404  0.02989  1.0000
  C   C407      1.0  0.02663  0.60443  0.27793  1.0000
  C   C408      1.0  0.39544  0.52988  0.02562  1.0000
  H   H388      1.0  0.25598  0.69982  0.25345  1.0000
  C   C409      1.0  0.27982  0.64329  0.24883  1.0000
  Fe  Fe77      1.0  0.38289  0.65738  0.15846  1.0000
  H   H389      1.0  0.35623  0.60136  0.20300  1.0000
  C   C410      1.0  0.29929  0.63720  0.24122  1.0000
  N   N28       1.0  0.35188  0.61330  0.08913  1.0000
  C   C411      1.0  0.27467  0.66094  0.21788  1.0000
  C   C412      1.0  0.30223  0.67563  0.27377  1.0000
  C   C413      1.0  0.30661  0.64313  0.22196  1.0000
  N   N29       1.0  0.39484  0.49265  0.04503  1.0000
  N   N30       1.0  0.22988  0.56555  0.27213  1.0000
  H   H390      1.0  0.24046  0.61697  0.26450  1.0000
  C   C414      1.0  0.21997  0.58006  0.26076  1.0000
  C   C415      1.0  0.41792  0.72900  0.98648  1.0000
  C   C416      1.0  0.22363  0.59875  0.25783  1.0000
  C   C417      1.0  0.07480  0.70692  0.30343  1.0000
  S   S142      1.0  0.48061  0.72376  0.00998  1.0000
  N   N31       1.0  0.44803  0.71012  0.97471  1.0000
  H   H391      1.0  0.30881  0.65460  0.08231  1.0000
  H   H392      1.0  0.21562  0.61030  0.24900  1.0000
  C   C418      1.0  0.24373  0.56908  0.28056  1.0000
  H   H393      1.0  0.32958  0.49401  0.10865  1.0000
  H   H394      1.0  0.01197  0.55469  0.29422  1.0000
  H   H395      1.0  0.21047  0.54600  0.27568  1.0000
  H   H396      1.0  0.45811  0.69565  0.02591  1.0000
  H   H397      1.0  0.33136  0.68441  0.24246  1.0000
  H   H398      1.0  0.31643  0.62129  0.98465  1.0000
  H   H399      1.0  0.31858  0.64339  0.11398  1.0000
  C   C419      1.0  0.32612  0.63641  0.10211  1.0000
  H   H400      1.0  0.32719  0.63951  0.05494  1.0000
  C   C420      1.0  0.26902  0.69339  0.25928  1.0000
  C   C421      1.0  0.28499  0.68036  0.28621  1.0000
  S   S143      1.0  0.35297  0.67299  0.16763  1.0000
  H   H401      1.0  0.23038  0.53708  0.28789  1.0000
  C   C422      1.0  0.40982  0.69916  0.02846  1.0000
  H   H402      1.0  0.19822  0.60542  0.30259  1.0000
  C   C423      1.0  0.34941  0.67335  0.06954  1.0000
  H   H403      1.0  0.11198  0.69218  0.26966  1.0000
  C   C424      1.0  0.41001  0.68319  0.02057  1.0000
  H   H404      1.0  0.99857  0.61396  0.26989  1.0000
  H   H405      1.0  0.44636  0.68118  0.15320  1.0000
  H   H406      1.0  0.34639  0.61704  0.11800  1.0000
  H   H407      1.0  0.34114  0.58402  0.97542  1.0000
  N   N32       1.0  0.03389  0.57124  0.29176  1.0000
  H   H408      1.0  0.20903  0.57725  0.25406  1.0000
  S   S144      1.0  0.33319  0.50725  0.98634  1.0000
  S   S145      1.0  0.31955  0.50011  0.04312  1.0000
  H   H409      1.0  0.39669  0.56235  0.19209  1.0000
  H   H410      1.0  0.34237  0.61470  0.98295  1.0000
  H   H411      1.0  0.39549  0.54438  0.01789  1.0000
  H   H412      1.0  0.36056  0.71186  0.08424  1.0000
  H   H413      1.0  0.11466  0.52167  0.28272  1.0000
  C   C425      1.0  0.13543  0.65209  0.28649  1.0000
  C   C426      1.0  0.33331  0.58508  0.21023  1.0000
  S   S146      1.0  0.36869  0.48431  0.15059  1.0000
  H   H414      1.0  0.13878  0.64684  0.27319  1.0000
  H   H415      1.0  0.43385  0.67320  0.08858  1.0000
  S   S147      1.0  0.39042  0.63079  0.98571  1.0000
  C   C427      1.0  0.10429  0.69873  0.28176  1.0000
  H   H416      1.0  0.27447  0.63883  0.26371  1.0000
  S   S148      1.0  0.41202  0.66599  0.15589  1.0000
  N   N33       1.0  0.36629  0.57279  0.19791  1.0000
  C   C428      1.0  0.36141  0.55546  0.19836  1.0000
  C   C429      1.0  0.34242  0.55240  0.20522  1.0000
  C   C430      1.0  0.32828  0.56737  0.21106  1.0000
  C   C431      1.0  0.38615  0.57592  0.19033  1.0000
  H   H417      1.0  0.37209  0.54400  0.19305  1.0000
  H   H418      1.0  0.33855  0.53873  0.20524  1.0000
  H   H419      1.0  0.31341  0.56531  0.21585  1.0000
  H   H420      1.0  0.38754  0.58209  0.17497  1.0000
  H   H421      1.0  0.39022  0.58595  0.19772  1.0000
  H   H422      1.0  0.14720  0.50283  0.28624  1.0000
  C   C432      1.0  0.40434  0.69107  0.10952  1.0000
  C   C433      1.0  0.42497  0.68438  0.07955  1.0000
  C   C434      1.0  0.33096  0.63426  0.06895  1.0000
  H   H423      1.0  0.25492  0.69305  0.28838  1.0000
  S   S149      1.0  0.09850  0.64746  0.28755  1.0000
  H   H424      1.0  0.35464  0.61305  0.05953  1.0000
  S   S150      1.0  0.25005  0.49583  0.26753  1.0000
  C   C435      1.0  0.26742  0.65528  0.23720  1.0000
  H   H425      1.0  0.05954  0.55057  0.28892  1.0000
  C   C436      1.0  0.26295  0.48363  0.24900  1.0000
  H   H426      1.0  0.05328  0.59083  0.28752  1.0000
  C   C437      1.0  0.38172  0.52622  0.04193  1.0000
  H   H427      1.0  0.28441  0.67705  0.30148  1.0000
  Fe  Fe78      1.0  0.22280  0.48874  0.28758  1.0000
  S   S151      1.0  0.24877  0.64491  0.30008  1.0000
  C   C438      1.0  0.04743  0.55521  0.30010  1.0000
  H   H428      1.0  0.31513  0.66861  0.27957  1.0000
  H   H429      1.0  0.41887  0.51737  0.00587  1.0000
  H   H430      1.0  0.30421  0.48478  0.21585  1.0000
  H   H431      1.0  0.39219  0.71965  0.98393  1.0000
  H   H432      1.0  0.12986  0.70480  0.28830  1.0000
  Fe  Fe79      1.0  0.02690  0.64724  0.30608  1.0000
  H   H433      1.0  0.35673  0.71053  0.11898  1.0000
  H   H434      1.0  0.32246  0.59697  0.21451  1.0000
  S   S152      1.0  0.04390  0.67032  0.30423  1.0000
  C   C439      1.0  0.33329  0.48771  0.09594  1.0000
  H   H435      1.0  0.25144  0.55766  0.28976  1.0000
  C   C440      1.0  0.18922  0.57848  0.30511  1.0000
  C   C441      1.0  0.24771  0.58760  0.27798  1.0000
  C   C442      1.0  0.33047  0.62140  0.97482  1.0000
  S   S153      1.0  0.05310  0.62419  0.30513  1.0000
  Fe  Fe80      1.0  0.06950  0.64673  0.30649  1.0000
  H   H436      1.0  0.25682  0.48255  0.16885  1.0000
  H   H437      1.0  0.04031  0.54275  0.30704  1.0000
  S   S154      1.0  0.20913  0.65009  0.33166  1.0000
  S   S155      1.0  0.00471  0.48718  0.33842  1.0000
  H   H438      1.0  0.20614  0.70866  0.46455  1.0000
  C   C443      1.0  0.09017  0.71935  0.48284  1.0000
  H   H439      1.0  0.13888  0.71682  0.48450  1.0000
  C   C444      1.0  0.12221  0.67661  0.60163  1.0000
  C   C445      1.0  0.19217  0.55893  0.31274  1.0000
  C   C446      1.0  0.03853  0.71408  0.36625  1.0000
  H   H440      1.0  0.00886  0.70738  0.59876  1.0000
  C   C447      1.0  0.09659  0.50693  0.33466  1.0000
  C   C448      1.0  0.03598  0.57805  0.34909  1.0000
  H   H441      1.0  0.21025  0.70132  0.44205  1.0000
  H   H442      1.0  0.15893  0.56698  0.34698  1.0000
  C   C449      1.0  0.16030  0.58193  0.34464  1.0000
  C   C450      1.0  0.15079  0.61427  0.33064  1.0000
  H   H443      1.0  0.16629  0.71791  0.36574  1.0000
  S   S156      1.0  0.01924  0.64216  0.33778  1.0000
  C   C451      1.0  0.21485  0.70957  0.38301  1.0000
  N   N34       1.0  0.14892  0.59546  0.33377  1.0000
  H   H444      1.0  0.12645  0.70639  0.45980  1.0000
  C   C452      1.0  0.24241  0.70666  0.35740  1.0000
  S   S157      1.0  0.21960  0.50044  0.31431  1.0000
  H   H445      1.0  0.02716  0.53255  0.35717  1.0000
  Fe  Fe81      1.0  0.23185  0.66763  0.31674  1.0000
  C   C453      1.0  0.07173  0.71336  0.36876  1.0000
  H   H446      1.0  0.09254  0.69048  0.35789  1.0000
  C   C454      1.0  0.07209  0.66949  0.62576  1.0000
  H   H447      1.0  0.10767  0.51588  0.32734  1.0000
  C   C455      1.0  0.16888  0.70900  0.47191  1.0000
  C   C456      1.0  0.21547  0.58276  0.31904  1.0000
  S   S158      1.0  0.06743  0.69606  0.59353  1.0000
  C   C457      1.0  0.13191  0.70264  0.61191  1.0000
  S   S159      1.0  0.23004  0.59727  0.32365  1.0000
  C   C458      1.0  0.02187  0.58704  0.33808  1.0000
  C   C459      1.0  0.26047  0.70362  0.62419  1.0000
  C   C460      1.0  0.17471  0.69589  0.44373  1.0000
  Fe  Fe82      1.0  0.18968  0.51358  0.30933  1.0000
  C   C461      1.0  0.12660  0.66648  0.32031  1.0000
  H   H448      1.0  0.08258  0.70154  0.50983  1.0000
  H   H449      1.0  0.16663  0.63475  0.33494  1.0000
  C   C462      1.0  0.08211  0.69963  0.62395  1.0000
  H   H450      1.0  0.27041  0.67406  0.62106  1.0000
  H   H451      1.0  0.25635  0.71020  0.35039  1.0000
  C   C463      1.0  0.00949  0.57646  0.33413  1.0000
  H   H452      1.0  0.00855  0.72398  0.40186  1.0000
  C   C464      1.0  0.05224  0.72177  0.37189  1.0000
  C   C465      1.0  0.26496  0.68385  0.63100  1.0000
  C   C466      1.0  0.21618  0.68990  0.35939  1.0000
  H   H453      1.0  0.13399  0.49140  0.33334  1.0000
  C   C467      1.0  0.20663  0.69736  0.37578  1.0000
  H   H454      1.0  0.20759  0.68381  0.46361  1.0000
  H   H455      1.0  0.22121  0.68933  0.63119  1.0000
  H   H456      1.0  0.22984  0.55718  0.33483  1.0000
  H   H457      1.0  0.05324  0.55942  0.31123  1.0000
  H   H458      1.0  0.18839  0.61013  0.35353  1.0000
  H   H459      1.0  0.99663  0.62293  0.31933  1.0000
  H   H460      1.0  0.08445  0.71353  0.61634  1.0000
  N   N35       1.0  0.18148  0.70160  0.45736  1.0000
  C   C468      1.0  0.01163  0.55675  0.34067  1.0000
  H   H461      1.0  0.12960  0.60069  0.31386  1.0000
  S   S160      1.0  0.17677  0.48861  0.32698  1.0000
  C   C469      1.0  0.20697  0.55125  0.32328  1.0000
  H   H462      1.0  0.11847  0.68645  0.58904  1.0000
  C   C470      1.0  0.23272  0.71435  0.37369  1.0000
  H   H463      1.0  0.17425  0.71345  0.48278  1.0000
  S   S161      1.0  0.04441  0.50455  0.33315  1.0000
  C   C471      1.0  0.04414  0.69770  0.35793  1.0000
  C   C472      1.0  0.07748  0.69713  0.36015  1.0000
  C   C473      1.0  0.20237  0.69868  0.45690  1.0000
  H   H464      1.0  0.02056  0.60214  0.33265  1.0000
  H   H465      1.0  0.20973  0.68045  0.35403  1.0000
  S   S162      1.0  0.02640  0.68815  0.35169  1.0000
  H   H466      1.0  0.19287  0.69350  0.38296  1.0000
  C   C474      1.0  0.11905  0.65778  0.60449  1.0000
  H   H467      1.0  0.10789  0.71973  0.33451  1.0000
  C   C475      1.0  0.07411  0.68795  0.61599  1.0000
  H   H468      1.0  0.23920  0.72374  0.37913  1.0000
  C   C476      1.0  0.08521  0.71423  0.31351  1.0000
  C   C477      1.0  0.06366  0.68928  0.35476  1.0000
  C   C478      1.0  0.11232  0.66012  0.31406  1.0000
  S   S163      1.0  0.08331  0.70514  0.46978  1.0000
  S   S164      1.0  0.20205  0.71850  0.40366  1.0000
  S   S165      1.0  0.10455  0.73010  0.56890  1.0000
  H   H469      1.0  0.29868  0.70532  0.63065  1.0000
  H   H470      1.0  0.14152  0.62503  0.32237  1.0000
  H   H471      1.0  0.12305  0.67231  0.33330  1.0000
  S   S166      1.0  0.08879  0.72336  0.37548  1.0000
  H   H472      1.0  0.20909  0.53625  0.32953  1.0000
  C   C479      1.0  0.15484  0.69772  0.44432  1.0000
  S   S167      1.0  0.06523  0.64183  0.33822  1.0000
  C   C480      1.0  0.16490  0.61987  0.33780  1.0000
  H   H473      1.0  0.06812  0.67669  0.34828  1.0000
  C   C481      1.0  0.17695  0.60609  0.34843  1.0000
  C   C482      1.0  0.08825  0.71434  0.50258  1.0000
  Fe  Fe83      1.0  0.03814  0.66361  0.33598  1.0000
  H   H474      1.0  0.06609  0.66028  0.61958  1.0000
  H   H475      1.0  0.18411  0.57615  0.35995  1.0000
  H   H476      1.0  0.04876  0.55144  0.36461  1.0000
  C   C483      1.0  0.03790  0.55838  0.35598  1.0000
  Fe  Fe84      1.0  0.01437  0.51540  0.32763  1.0000
  H   H477      1.0  0.02356  0.72087  0.36823  1.0000
  C   C484      1.0  0.02579  0.54770  0.35166  1.0000
  H   H478      1.0  0.26247  0.70903  0.60907  1.0000
  H   H479      1.0  0.12148  0.58757  0.33701  1.0000
  H   H480      1.0  0.18471  0.68995  0.43225  1.0000
  H   H481      1.0  0.14951  0.69324  0.43345  1.0000
  Fe  Fe85      1.0  0.04697  0.62094  0.33679  1.0000
  C   C485      1.0  0.21859  0.56315  0.32641  1.0000
  C   C486      1.0  0.14189  0.70521  0.45908  1.0000
  S   S168      1.0  0.99726  0.54352  0.33400  1.0000
  C   C487      1.0  0.13435  0.58971  0.32586  1.0000
  H   H482      1.0  0.30507  0.67988  0.63509  1.0000
  S   S169      1.0  0.24688  0.68465  0.32992  1.0000
  H   H483      1.0  0.11287  0.65321  0.59425  1.0000
  H   H484      1.0  0.99865  0.58343  0.32554  1.0000
  S   S170      1.0  0.05137  0.59141  0.35391  1.0000
  C   C488      1.0  0.23421  0.69438  0.35021  1.0000
  H   H485      1.0  0.09781  0.66131  0.32209  1.0000
  H   H486      1.0  0.09115  0.72254  0.52831  1.0000
  C   C489      1.0  0.17454  0.58702  0.35205  1.0000
  C   C490      1.0  0.14889  0.71097  0.47296  1.0000
  S   S171      1.0  0.05609  0.71707  0.42538  1.0000
  C   C491      1.0  0.00469  0.72185  0.60170  1.0000
  C   C492      1.0  0.11572  0.71970  0.31967  1.0000
  N   N36       1.0  0.12899  0.68278  0.61498  1.0000
  H   H487      1.0  0.12988  0.71005  0.32060  1.0000
  Fe  Fe86      1.0  0.07278  0.72447  0.44454  1.0000
  C   C493      1.0  0.09306  0.72621  0.51301  1.0000
  H   H488      1.0  0.08562  0.50972  0.32531  1.0000
  C   C494      1.0  0.00068  0.71168  0.40639  1.0000
  Fe  Fe87      1.0  0.07428  0.72542  0.58096  1.0000
  H   H489      1.0  0.99907  0.70829  0.42212  1.0000
  Fe  Fe88      1.0  0.22413  0.62898  0.31265  1.0000
  S   S172      1.0  0.16211  0.67589  0.31661  1.0000
  C   C495      1.0  0.25387  0.71634  0.63700  1.0000
  C   C496      1.0  0.13334  0.67045  0.63102  1.0000
  H   H490      1.0  0.12144  0.71233  0.60348  1.0000
  H   H491      1.0  0.14675  0.70401  0.60428  1.0000
  C   C497      1.0  0.13044  0.65150  0.63428  1.0000
  H   H492      1.0  0.00968  0.69930  0.40021  1.0000
  C   C498      1.0  0.14525  0.66584  0.30956  1.0000
  H   H493      1.0  0.32261  0.69432  0.63548  1.0000
  H   H494      1.0  0.12020  0.63071  0.62365  1.0000
  C   C499      1.0  0.12313  0.64519  0.62097  1.0000
  H   H495      1.0  0.12938  0.70796  0.62554  1.0000
  H   H496      1.0  0.03324  0.72369  0.60522  1.0000
  H   H497      1.0  0.07754  0.72055  0.32573  1.0000
  N   N37       1.0  0.10481  0.71296  0.30836  1.0000
  H   H498      1.0  0.05940  0.70712  0.30815  1.0000
  C   C500      1.0  0.20085  0.59037  0.30824  1.0000
  S   S173      1.0  0.17658  0.54465  0.30971  1.0000
  H   H499      1.0  0.14038  0.57619  0.32023  1.0000
  H   H500      1.0  0.13030  0.72435  0.37010  1.0000
  H   H501      1.0  0.08962  0.51150  0.34840  1.0000
  C   C501      1.0  0.30707  0.69314  0.63919  1.0000
  N   N38       1.0  0.10500  0.48654  0.33783  1.0000
  H   H502      1.0  0.21378  0.72285  0.62823  1.0000
  C   C502      1.0  0.01839  0.73098  0.60538  1.0000
  C   C503      1.0  0.15810  0.73076  0.37081  1.0000
  H   H503      1.0  0.18918  0.72758  0.64053  1.0000
  Fe  Fe89      1.0  0.01416  0.48290  0.30819  1.0000
  Fe  Fe90      1.0  0.19368  0.66440  0.30739  1.0000
  S   S174      1.0  0.04816  0.51012  0.70779  1.0000
  C   C504      1.0  0.29467  0.51111  0.85283  1.0000
  S   S175      1.0  0.25615  0.51504  0.68581  1.0000
  C   C505      1.0  0.32889  0.60964  0.76243  1.0000
  S   S176      1.0  0.38901  0.52115  0.78532  1.0000
  S   S177      1.0  0.11605  0.61176  0.67908  1.0000
  S   S178      1.0  0.14126  0.58888  0.72149  1.0000
  H   H504      1.0  0.29538  0.51953  0.83863  1.0000
  S   S179      1.0  0.45538  0.70988  0.83306  1.0000
  H   H505      1.0  0.25388  0.68435  0.67832  1.0000
  Fe  Fe91      1.0  0.38306  0.61698  0.82078  1.0000
  S   S180      1.0  0.35839  0.60616  0.84102  1.0000
  S   S181      1.0  0.40453  0.59753  0.80317  1.0000
  Fe  Fe92      1.0  0.37087  0.65708  0.83038  1.0000
  S   S182      1.0  0.34435  0.64915  0.85086  1.0000
  S   S183      1.0  0.37642  0.68738  0.82749  1.0000
  Fe  Fe93      1.0  0.36462  0.62270  0.86091  1.0000
  S   S184      1.0  0.36734  0.60865  0.89109  1.0000
  Fe  Fe94      1.0  0.34066  0.63348  0.82868  1.0000
  S   S185      1.0  0.31312  0.62795  0.82188  1.0000
  S   S186      1.0  0.39117  0.63126  0.84162  1.0000
  S   S187      1.0  0.36531  0.64368  0.80728  1.0000
  Fe  Fe95      1.0  0.26217  0.63985  0.69014  1.0000
  S   S188      1.0  0.24661  0.65851  0.71116  1.0000
  S   S189      1.0  0.26950  0.65203  0.65878  1.0000
  Fe  Fe96      1.0  0.26360  0.60402  0.72097  1.0000
  S   S190      1.0  0.24772  0.62043  0.74410  1.0000
  S   S191      1.0  0.27392  0.57267  0.73090  1.0000
  Fe  Fe97      1.0  0.22868  0.63540  0.72264  1.0000
  S   S192      1.0  0.19631  0.64505  0.72616  1.0000
  Fe  Fe98      1.0  0.26740  0.64158  0.73015  1.0000
  S   S193      1.0  0.28563  0.65673  0.74190  1.0000
  S   S194      1.0  0.24317  0.61747  0.70055  1.0000
  S   S195      1.0  0.28433  0.62429  0.70818  1.0000
  S   S196      1.0  0.37391  0.53885  0.96740  1.0000
  H   H506      1.0  0.41526  0.72945  0.84016  1.0000
  C   C506      1.0  0.20171  0.68359  0.68497  1.0000
  C   C507      1.0  0.30553  0.63630  0.79965  1.0000
  C   C508      1.0  0.31382  0.65028  0.78605  1.0000
  C   C509      1.0  0.30734  0.65659  0.76855  1.0000
  C   C510      1.0  0.29277  0.64878  0.76436  1.0000
  C   C511      1.0  0.28455  0.63472  0.77791  1.0000
  C   C512      1.0  0.29086  0.62858  0.79551  1.0000
  H   H507      1.0  0.32498  0.65646  0.78916  1.0000
  H   H508      1.0  0.31370  0.66756  0.75819  1.0000
  H   H509      1.0  0.27325  0.62867  0.77490  1.0000
  H   H510      1.0  0.28433  0.61782  0.80599  1.0000
  C   C513      1.0  0.36619  0.62448  0.90665  1.0000
  C   C514      1.0  0.35751  0.64362  0.90250  1.0000
  N   N39       1.0  0.03721  0.66431  0.70409  1.0000
  C   C515      1.0  0.37284  0.61762  0.92398  1.0000
  H   H511      1.0  0.05462  0.67863  0.68034  1.0000
  C   C516      1.0  0.10312  0.51831  0.70723  1.0000
  H   H512      1.0  0.37941  0.60276  0.92736  1.0000
  C   C517      1.0  0.43301  0.70305  0.83372  1.0000
  C   C518      1.0  0.43290  0.68483  0.83013  1.0000
  C   C519      1.0  0.41548  0.67936  0.82929  1.0000
  C   C520      1.0  0.39804  0.69215  0.83189  1.0000
  C   C521      1.0  0.39808  0.71005  0.83625  1.0000
  C   C522      1.0  0.41546  0.71545  0.83726  1.0000
  H   H513      1.0  0.44641  0.67508  0.82749  1.0000
  H   H514      1.0  0.41566  0.66557  0.82581  1.0000
  H   H515      1.0  0.28475  0.52434  0.90727  1.0000
  C   C523      1.0  0.15669  0.60467  0.72207  1.0000
  C   C524      1.0  0.17562  0.59725  0.72531  1.0000
  C   C525      1.0  0.18808  0.60952  0.72614  1.0000
  C   C526      1.0  0.18152  0.62927  0.72412  1.0000
  C   C527      1.0  0.16261  0.63666  0.72083  1.0000
  C   C528      1.0  0.15030  0.62444  0.71960  1.0000
  H   H516      1.0  0.18051  0.58198  0.72735  1.0000
  H   H517      1.0  0.20256  0.60372  0.72887  1.0000
  H   H518      1.0  0.15739  0.65190  0.71936  1.0000
  H   H519      1.0  0.13573  0.63032  0.71717  1.0000
  H   H520      1.0  0.09408  0.70230  0.64761  1.0000
  H   H521      1.0  0.28340  0.69225  0.71343  1.0000
  C   C529      1.0  0.39151  0.54316  0.79010  1.0000
  C   C530      1.0  0.37920  0.55181  0.80468  1.0000
  C   C531      1.0  0.38245  0.56901  0.80844  1.0000
  C   C532      1.0  0.39826  0.57730  0.79790  1.0000
  C   C533      1.0  0.41029  0.56869  0.78328  1.0000
  C   C534      1.0  0.40680  0.55187  0.77925  1.0000
  H   H522      1.0  0.36740  0.54512  0.81320  1.0000
  H   H523      1.0  0.37320  0.57539  0.81991  1.0000
  H   H524      1.0  0.42251  0.57497  0.77508  1.0000
  H   H525      1.0  0.41635  0.54530  0.76797  1.0000
  C   C535      1.0  0.26125  0.53095  0.69839  1.0000
  C   C536      1.0  0.26373  0.54946  0.68909  1.0000
  C   C537      1.0  0.26736  0.56251  0.69902  1.0000
  C   C538      1.0  0.26884  0.55695  0.71821  1.0000
  C   C539      1.0  0.26650  0.53842  0.72748  1.0000
  C   C540      1.0  0.26267  0.52548  0.71760  1.0000
  H   H526      1.0  0.26276  0.55374  0.67419  1.0000
  H   H527      1.0  0.26930  0.57675  0.69175  1.0000
  H   H528      1.0  0.26771  0.53404  0.74232  1.0000
  H   H529      1.0  0.26133  0.51115  0.72481  1.0000
  C   C541      1.0  0.05859  0.52934  0.69379  1.0000
  C   C542      1.0  0.06954  0.52795  0.67575  1.0000
  C   C543      1.0  0.07925  0.54285  0.66556  1.0000
  C   C544      1.0  0.07785  0.55919  0.67336  1.0000
  H   H530      1.0  0.07059  0.51542  0.66966  1.0000
  C   C545      1.0  0.03144  0.66980  0.67207  1.0000
  S   S197      1.0  0.09179  0.62831  0.71766  1.0000
  Fe  Fe99      1.0  0.06894  0.61173  0.71665  1.0000
  C   C546      1.0  0.11428  0.53085  0.69474  1.0000
  C   C547      1.0  0.40329  0.69936  0.90152  1.0000
  C   C548      1.0  0.33074  0.58196  0.78642  1.0000
  Fe  Fe100     1.0  0.09151  0.59627  0.68195  1.0000
  C   C549      1.0  0.05662  0.54600  0.70119  1.0000
  C   C550      1.0  0.08634  0.67456  0.65115  1.0000
  C   C551      1.0  0.06604  0.56097  0.69089  1.0000
  N   N40       1.0  0.20603  0.53843  0.71697  1.0000
  C   C552      1.0  0.21593  0.55336  0.71065  1.0000
  C   C553      1.0  0.19982  0.53292  0.73598  1.0000
  C   C554      1.0  0.22031  0.56286  0.72350  1.0000
  C   C555      1.0  0.20410  0.54202  0.74923  1.0000
  C   C556      1.0  0.21450  0.55703  0.74290  1.0000
  C   C557      1.0  0.20142  0.52893  0.70315  1.0000
  H   H531      1.0  0.22075  0.55780  0.69558  1.0000
  H   H532      1.0  0.19169  0.52126  0.74100  1.0000
  H   H533      1.0  0.22830  0.57460  0.71845  1.0000
  H   H534      1.0  0.19939  0.53745  0.76429  1.0000
  H   H535      1.0  0.21802  0.56423  0.75296  1.0000
  H   H536      1.0  0.18925  0.53801  0.69660  1.0000
  H   H537      1.0  0.21421  0.52625  0.69187  1.0000
  H   H538      1.0  0.19733  0.51479  0.70986  1.0000
  Fe  Fe101     1.0  0.35032  0.49623  0.84773  1.0000
  C   C558      1.0  0.41838  0.67048  0.88040  1.0000
  H   H539      1.0  0.03753  0.60181  0.70195  1.0000
  C   C559      1.0  0.33717  0.59172  0.96205  1.0000
  H   H540      1.0  0.33317  0.62328  0.75576  1.0000
  S   S198      1.0  0.06848  0.62193  0.68565  1.0000
  H   H541      1.0  0.44239  0.68533  0.87010  1.0000
  C   C560      1.0  0.00505  0.55784  0.72309  1.0000
  H   H542      1.0  0.10731  0.52984  0.74858  1.0000
  H   H543      1.0  0.34815  0.67048  0.91245  1.0000
  S   S199      1.0  0.09056  0.58498  0.71300  1.0000
  C   C561      1.0  0.34552  0.49724  0.89581  1.0000
  C   C562      1.0  0.13451  0.55551  0.68815  1.0000
  H   H544      1.0  0.13832  0.67540  0.64181  1.0000
  N   N41       1.0  0.40449  0.53983  0.84112  1.0000
  C   C563      1.0  0.38908  0.53425  0.85406  1.0000
  C   C564      1.0  0.40989  0.55690  0.84073  1.0000
  C   C565      1.0  0.37842  0.54606  0.86682  1.0000
  C   C566      1.0  0.39948  0.56909  0.85323  1.0000
  C   C567      1.0  0.38368  0.56358  0.86638  1.0000
  C   C568      1.0  0.41573  0.52704  0.82816  1.0000
  H   H545      1.0  0.38485  0.52066  0.85450  1.0000
  H   H546      1.0  0.42196  0.56148  0.83035  1.0000
  H   H547      1.0  0.36611  0.54163  0.87692  1.0000
  H   H548      1.0  0.40348  0.58285  0.85254  1.0000
  H   H549      1.0  0.37548  0.57295  0.87612  1.0000
  H   H550      1.0  0.42282  0.53523  0.81484  1.0000
  H   H551      1.0  0.42694  0.51667  0.83513  1.0000
  H   H552      1.0  0.40625  0.51903  0.82386  1.0000
  C   C569      1.0  0.34739  0.50579  0.91064  1.0000
  C   C570      1.0  0.46918  0.70592  0.97201  1.0000
  H   H553      1.0  0.30087  0.53302  0.86505  1.0000
  H   H554      1.0  0.04226  0.67848  0.72459  1.0000
  Fe  Fe102     1.0  0.37080  0.50236  0.80690  1.0000
  H   H555      1.0  0.30738  0.66253  0.66681  1.0000
  C   C571      1.0  0.30948  0.51267  0.72358  1.0000
  H   H556      1.0  0.14945  0.54771  0.68464  1.0000
  C   C572      1.0  0.04218  0.67157  0.68526  1.0000
  H   H557      1.0  0.12844  0.56111  0.67488  1.0000
  H   H558      1.0  0.04983  0.65277  0.72881  1.0000
  H   H559      1.0  0.38462  0.71998  0.83837  1.0000
  C   C573      1.0  0.29311  0.70977  0.66611  1.0000
  C   C574      1.0  0.31699  0.52357  0.73295  1.0000
  Fe  Fe103     1.0  0.24599  0.48862  0.70380  1.0000
  N   N42       1.0  0.30030  0.69292  0.65956  1.0000
  H   H560      1.0  0.22525  0.65721  0.65123  1.0000
  H   H561      1.0  0.32271  0.61892  0.91450  1.0000
  C   C575      1.0  0.29775  0.51862  0.86781  1.0000
  C   C576      1.0  0.00715  0.60486  0.70183  1.0000
  C   C577      1.0  0.29360  0.48956  0.88903  1.0000
  H   H562      1.0  0.30313  0.51972  0.71117  1.0000
  C   C578      1.0  0.29899  0.51648  0.90141  1.0000
  H   H563      1.0  0.29169  0.72324  0.65626  1.0000
  C   C579      1.0  0.36189  0.64898  0.93294  1.0000
  H   H564      1.0  0.28076  0.72313  0.69069  1.0000
  H   H565      1.0  0.19631  0.68201  0.70015  1.0000
  H   H566      1.0  0.01679  0.65085  0.72544  1.0000
  H   H567      1.0  0.13312  0.64205  0.64742  1.0000
  S   S200      1.0  0.17788  0.48468  0.73517  1.0000
  H   H568      1.0  0.28866  0.48651  0.84461  1.0000
  H   H569      1.0  0.13497  0.56816  0.69420  1.0000
  C   C580      1.0  0.21074  0.66751  0.67694  1.0000
  H   H570      1.0  0.33097  0.52290  0.75650  1.0000
  N   N43       1.0  0.12258  0.54275  0.70148  1.0000
  N   N44       1.0  0.33117  0.61110  0.95947  1.0000
  C   C581      1.0  0.29592  0.67549  0.69148  1.0000
  C   C582      1.0  0.32529  0.51466  0.74889  1.0000
  C   C583      1.0  0.26271  0.67674  0.65059  1.0000
  C   C584      1.0  0.02047  0.61022  0.72767  1.0000
  H   H571      1.0  0.09631  0.50909  0.70183  1.0000
  C   C585      1.0  0.29089  0.49253  0.85619  1.0000
  H   H572      1.0  0.24603  0.71896  0.66650  1.0000
  H   H573      1.0  0.36519  0.59932  0.77982  1.0000
  H   H574      1.0  0.11595  0.53128  0.67959  1.0000
  C   C586      1.0  0.27953  0.49485  0.78180  1.0000
  H   H575      1.0  0.00684  0.65926  0.66831  1.0000
  S   S201      1.0  0.09216  0.57651  0.66204  1.0000
  C   C587      1.0  0.31794  0.48470  0.74577  1.0000
  C   C588      1.0  0.25559  0.68950  0.66328  1.0000
  H   H576      1.0  0.03581  0.67510  0.65708  1.0000
  H   H577      1.0  0.38928  0.73108  0.79615  1.0000
  S   S202      1.0  0.37703  0.48401  0.97132  1.0000
  H   H578      1.0  0.35214  0.64900  0.88931  1.0000
  Fe  Fe104     1.0  0.11348  0.60255  0.71056  1.0000
  S   S203      1.0  0.34201  0.51514  0.82127  1.0000
  H   H579      1.0  0.04834  0.54715  0.71515  1.0000
  H   H580      1.0  0.07737  0.64827  0.65046  1.0000
  H   H581      1.0  0.34785  0.60269  0.80125  1.0000
  C   C589      1.0  0.42844  0.68529  0.87935  1.0000
  S   S204      1.0  0.30341  0.50000  0.80432  1.0000
  H   H582      1.0  0.06425  0.57382  0.69666  1.0000
  C   C590      1.0  0.39299  0.68461  0.90314  1.0000
  H   H583      1.0  0.44607  0.68560  0.96402  1.0000
  H   H584      1.0  0.31281  0.56154  0.78635  1.0000
  C   C591      1.0  0.37081  0.62988  0.93706  1.0000
  N   N45       1.0  0.42066  0.69969  0.88952  1.0000
  C   C592      1.0  0.35522  0.65576  0.91566  1.0000
  C   C593      1.0  0.31531  0.60326  0.75522  1.0000
  C   C594      1.0  0.40055  0.67017  0.89238  1.0000
  Fe  Fe105     1.0  0.09288  0.63631  0.68620  1.0000
  S   S205      1.0  0.09512  0.66656  0.67254  1.0000
  H   H585      1.0  0.47536  0.69981  0.95891  1.0000
  C   C595      1.0  0.25124  0.70919  0.65651  1.0000
  H   H586      1.0  0.37597  0.62449  0.95036  1.0000
  C   C596      1.0  0.31724  0.57510  0.77953  1.0000
  H   H587      1.0  0.12729  0.55146  0.72596  1.0000
  H   H588      1.0  0.47530  0.71911  0.97044  1.0000
  C   C597      1.0  0.10927  0.52994  0.73347  1.0000
  H   H589      1.0  0.01572  0.54722  0.73059  1.0000
  H   H590      1.0  0.26069  0.49110  0.76391  1.0000
  S   S206      1.0  0.35850  0.66488  0.94893  1.0000
  N   N46       1.0  0.33612  0.59919  0.77806  1.0000
  C   C598      1.0  0.28827  0.69253  0.69829  1.0000
  H   H591      1.0  0.42859  0.71635  0.77083  1.0000
  H   H592      1.0  0.43957  0.71208  0.90006  1.0000
  H   H593      1.0  0.31605  0.53887  0.72803  1.0000
  H   H594      1.0  0.39266  0.65871  0.89335  1.0000
  H   H595      1.0  0.33517  0.58404  0.91840  1.0000
  S   S207      1.0  0.23172  0.49017  0.73385  1.0000
  H   H596      1.0  0.35036  0.52021  0.90767  1.0000
  C   C599      1.0  0.10043  0.51803  0.72669  1.0000
  H   H597      1.0  0.33678  0.57352  0.79858  1.0000
  C   C600      1.0  0.04885  0.66587  0.71770  1.0000
  C   C601      1.0  0.43132  0.71515  0.88822  1.0000
  H   H598      1.0  0.44157  0.71701  0.87456  1.0000
  C   C602      1.0  0.32637  0.61110  0.92800  1.0000
  H   H599      1.0  0.43952  0.70714  0.79183  1.0000
  H   H600      1.0  0.29708  0.66202  0.70129  1.0000
  H   H601      1.0  0.00942  0.60120  0.68785  1.0000
  C   C603      1.0  0.02314  0.60528  0.70977  1.0000
  C   C604      1.0  0.30939  0.58593  0.76390  1.0000
  H   H602      1.0  0.34906  0.62184  0.78165  1.0000
  H   H603      1.0  0.08812  0.54155  0.65184  1.0000
  C   C605      1.0  0.35031  0.60605  0.78548  1.0000
  H   H604      1.0  0.30949  0.52651  0.89662  1.0000
  S   S208      1.0  0.38022  0.48519  0.83367  1.0000
  H   H605      1.0  0.09147  0.50862  0.73644  1.0000
  C   C606      1.0  0.32602  0.49506  0.75520  1.0000
  C   C607      1.0  0.43829  0.69822  0.96973  1.0000
  C   C608      1.0  0.32537  0.62077  0.94288  1.0000
  C   C609      1.0  0.27165  0.48411  0.77240  1.0000
  H   H606      1.0  0.30907  0.61198  0.74327  1.0000
  H   H607      1.0  0.29866  0.58097  0.75856  1.0000
  C   C610      1.0  0.01521  0.66099  0.67835  1.0000
  C   C611      1.0  0.00161  0.61416  0.73785  1.0000
  C   C612      1.0  0.21768  0.66960  0.65748  1.0000
  C   C613      1.0  0.28683  0.70981  0.68555  1.0000
  C   C614      1.0  0.20445  0.72265  0.64246  1.0000
  H   H608      1.0  0.34668  0.50259  0.94074  1.0000
  S   S209      1.0  0.04036  0.61288  0.73692  1.0000
  C   C615      1.0  0.12053  0.54215  0.72060  1.0000
  C   C616      1.0  0.34523  0.49585  0.92940  1.0000
  H   H609      1.0  0.19285  0.71408  0.67974  1.0000
  H   H610      1.0  0.34425  0.56640  0.94925  1.0000
  H   H611      1.0  0.32068  0.63615  0.94079  1.0000
  C   C617      1.0  0.19981  0.70163  0.67337  1.0000
  S   S210      1.0  0.34630  0.51097  0.87284  1.0000
  H   H612      1.0  0.27462  0.51014  0.78039  1.0000
  H   H613      1.0  0.39018  0.57194  0.96590  1.0000
  H   H614      1.0  0.41521  0.70472  0.79239  1.0000
  C   C618      1.0  0.30189  0.67592  0.67197  1.0000
  H   H615      1.0  0.42132  0.72904  0.88890  1.0000
  H   H616      1.0  0.00690  0.52322  0.71572  1.0000
  C   C619      1.0  0.33340  0.59149  0.93018  1.0000
  H   H617      1.0  0.39729  0.71057  0.90989  1.0000
  C   C620      1.0  0.07839  0.66271  0.64327  1.0000
  H   H618      1.0  0.42432  0.65938  0.87188  1.0000
  H   H619      1.0  0.06392  0.66731  0.71065  1.0000
  N   N47       1.0  0.29712  0.50787  0.88564  1.0000
  C   C621      1.0  0.02096  0.65625  0.71044  1.0000
  C   C622      1.0  0.08787  0.69310  0.64161  1.0000
  H   H620      1.0  0.21248  0.65348  0.68584  1.0000
  N   N48       1.0  0.30967  0.49357  0.73027  1.0000
  C   C623      1.0  0.42594  0.71443  0.78655  1.0000
  H   H621      1.0  0.30455  0.50542  0.91295  1.0000
  H   H622      1.0  0.33242  0.63647  0.96913  1.0000
  H   H623      1.0  0.01226  0.56316  0.70850  1.0000
  N   N49       1.0  0.20678  0.70358  0.65429  1.0000
  Fe  Fe106     1.0  0.33154  0.49014  0.81582  1.0000
  C   C624      1.0  0.21544  0.68783  0.64626  1.0000
  H   H624      1.0  0.41048  0.69187  0.96913  1.0000
  H   H625      1.0  0.00035  0.57000  0.73096  1.0000
  C   C625      1.0  0.33867  0.58166  0.94738  1.0000
  H   H626      1.0  0.33217  0.48808  0.76777  1.0000
  C   C626      1.0  0.29378  0.48595  0.79291  1.0000
  H   H627      1.0  0.13679  0.48808  0.73725  1.0000
  H   H628      1.0  0.99943  0.61793  0.75176  1.0000
  C   C627      1.0  0.41809  0.70167  0.97265  1.0000
  H   H629      1.0  0.29504  0.49103  0.70839  1.0000
  H   H630      1.0  0.37922  0.68438  0.91270  1.0000
  C   C628      1.0  0.00975  0.65442  0.69768  1.0000
  H   H631      1.0  0.99708  0.64765  0.70274  1.0000
  C   C629      1.0  0.30041  0.48250  0.72136  1.0000
  Fe  Fe107     1.0  0.47112  0.77109  0.02936  1.0000
  H   H632      1.0  0.43487  0.76831  0.07167  1.0000
  S   S211      1.0  0.46601  0.79895  0.03999  1.0000
  S   S212      1.0  0.47326  0.74609  0.19159  1.0000
  C   C630      1.0  0.47578  0.78446  0.07587  1.0000
  C   C631      1.0  0.42399  0.82220  0.24724  1.0000
  H   H633      1.0  0.45989  0.83094  0.05793  1.0000
  H   H634      1.0  0.42990  0.79162  0.25573  1.0000
  C   C632      1.0  0.46906  0.80040  0.06289  1.0000
  S   S213      1.0  0.46873  0.78397  0.22033  1.0000
  N   N50       1.0  0.42941  0.82376  0.28334  1.0000
  S   S214      1.0  0.46989  0.74304  0.04886  1.0000
  H   H635      1.0  0.46370  0.83494  0.08946  1.0000
  S   S215      1.0  0.44915  0.78547  0.17106  1.0000
  H   H636      1.0  0.42559  0.85407  0.27433  1.0000
  H   H637      1.0  0.48854  0.92616  0.27868  1.0000
  C   C633      1.0  0.47022  0.80608  0.22572  1.0000
  H   H638      1.0  0.40899  0.80825  0.12399  1.0000
  H   H639      1.0  0.42263  0.82155  0.23291  1.0000
  C   C634      1.0  0.43081  0.80642  0.27819  1.0000
  C   C635      1.0  0.46486  0.81852  0.06793  1.0000
  H   H640      1.0  0.47575  0.82383  0.26348  1.0000
  C   C636      1.0  0.47306  0.80496  0.09910  1.0000
  S   S216      1.0  0.48958  0.88491  0.27561  1.0000
  C   C637      1.0  0.47755  0.78671  0.09411  1.0000
  Fe  Fe108     1.0  0.47072  0.77762  0.19079  1.0000
  Fe  Fe109     1.0  0.46983  0.86526  0.27405  1.0000
  S   S217      1.0  0.46359  0.86315  0.24556  1.0000
  C   C638      1.0  0.42808  0.80537  0.26009  1.0000
  C   C639      1.0  0.42567  0.84033  0.27071  1.0000
  C   C640      1.0  0.42459  0.80561  0.11780  1.0000
  C   C641      1.0  0.48599  0.93815  0.28598  1.0000
  C   C642      1.0  0.46704  0.82080  0.08580  1.0000
  C   C643      1.0  0.47325  0.82380  0.24946  1.0000
  C   C644      1.0  0.46816  0.84109  0.23751  1.0000
  C   C645      1.0  0.46496  0.84079  0.21931  1.0000
  C   C646      1.0  0.46610  0.82332  0.21336  1.0000
  C   C647      1.0  0.42964  0.78637  0.09280  1.0000
  C   C648      1.0  0.42273  0.83981  0.25256  1.0000
  H   H641      1.0  0.46101  0.85412  0.20998  1.0000
  H   H642      1.0  0.46298  0.82325  0.19955  1.0000
  Fe  Fe110     1.0  0.47472  0.78569  0.14732  1.0000
  N   N51       1.0  0.42972  0.78718  0.11128  1.0000
  Fe  Fe111     1.0  0.48075  0.75335  0.99320  1.0000
  H   H643      1.0  0.44196  0.74007  0.12836  1.0000
  C   C649      1.0  0.43437  0.76881  0.08648  1.0000
  H   H644      1.0  0.42648  0.79936  0.08266  1.0000
  S   S218      1.0  0.45287  0.76615  0.00994  1.0000
  S   S219      1.0  0.47777  0.75496  0.14512  1.0000
  H   H645      1.0  0.43318  0.80580  0.12873  1.0000
  C   C650      1.0  0.43379  0.77078  0.12398  1.0000
  H   H646      1.0  0.41016  0.74068  0.99369  1.0000
  H   H647      1.0  0.47941  0.77042  0.07199  1.0000
  C   C651      1.0  0.43299  0.82440  0.30216  1.0000
  H   H648      1.0  0.42056  0.85295  0.24236  1.0000
  C   C652      1.0  0.47421  0.80638  0.24360  1.0000
  Fe  Fe112     1.0  0.45347  0.75407  0.17012  1.0000
  Fe  Fe113     1.0  0.46753  0.89372  0.30026  1.0000
  S   S220      1.0  0.44639  0.87663  0.29659  1.0000
  H   H649      1.0  0.42789  0.81753  0.10601  1.0000
  H   H650      1.0  0.48253  0.77439  0.10417  1.0000
  H   H651      1.0  0.47748  0.79306  0.25320  1.0000
  H   H652      1.0  0.44296  0.73836  0.09450  1.0000
  S   S221      1.0  0.42486  0.74462  0.17198  1.0000
  S   S222      1.0  0.48270  0.84052  0.29425  1.0000
  C   C653      1.0  0.43898  0.75203  0.09927  1.0000
  Fe  Fe114     1.0  0.45405  0.73699  0.02815  1.0000
  H   H653      1.0  0.43446  0.79327  0.28794  1.0000
  C   C654      1.0  0.47073  0.93986  0.30124  1.0000
  H   H654      1.0  0.43350  0.77141  0.13869  1.0000
  C   C655      1.0  0.43856  0.75298  0.11818  1.0000
  S   S223      1.0  0.47445  0.80909  0.12162  1.0000
  H   H655      1.0  0.44579  0.73402  0.98813  1.0000
  C   C656      1.0  0.47913  0.96967  0.30433  1.0000
  H   H656      1.0  0.42795  0.83887  0.30595  1.0000
  H   H657      1.0  0.44869  0.82036  0.30258  1.0000
  C   C657      1.0  0.09755  0.73585  0.47348  1.0000
  C   C658      1.0  0.27655  0.86493  0.60064  1.0000
  H   H658      1.0  0.28866  0.82004  0.38240  1.0000
  C   C659      1.0  0.35531  0.95653  0.40969  1.0000
  C   C660      1.0  0.39277  0.90147  0.38411  1.0000
  Fe  Fe115     1.0  0.33610  0.91047  0.58937  1.0000
  S   S224      1.0  0.36551  0.91455  0.57335  1.0000
  S   S225      1.0  0.31078  0.93286  0.59779  1.0000
  Fe  Fe116     1.0  0.34448  0.86741  0.59123  1.0000
  S   S226      1.0  0.37487  0.86780  0.57574  1.0000
  S   S227      1.0  0.33275  0.83978  0.60233  1.0000
  Fe  Fe117     1.0  0.37613  0.88872  0.59397  1.0000
  S   S228      1.0  0.40422  0.88599  0.60460  1.0000
  Fe  Fe118     1.0  0.36177  0.89337  0.55666  1.0000
  S   S229      1.0  0.37126  0.89767  0.52499  1.0000
  S   S230      1.0  0.34677  0.88606  0.61130  1.0000
  S   S231      1.0  0.33126  0.89159  0.57080  1.0000
  Fe  Fe119     1.0  0.22136  0.77923  0.57338  1.0000
  S   S232      1.0  0.23164  0.74760  0.58004  1.0000
  S   S233      1.0  0.19194  0.79260  0.56608  1.0000
  Fe  Fe120     1.0  0.26208  0.78894  0.56984  1.0000
  S   S234      1.0  0.27548  0.75796  0.57622  1.0000
  S   S235      1.0  0.27915  0.81320  0.55788  1.0000
  Fe  Fe121     1.0  0.25694  0.75324  0.55703  1.0000
  C   C661      1.0  0.28498  0.85042  0.38183  1.0000
  Fe  Fe122     1.0  0.24896  0.75526  0.59874  1.0000
  S   S236      1.0  0.24544  0.78420  0.54910  1.0000
  S   S237      1.0  0.23672  0.78688  0.59371  1.0000
  C   C662      1.0  0.16765  0.74379  0.37507  1.0000
  S   S238      1.0  0.05194  0.75110  0.44973  1.0000
  H   H659      1.0  0.21381  0.77869  0.51119  1.0000
  C   C663      1.0  0.32993  0.96386  0.59176  1.0000
  S   S239      1.0  0.05348  0.76224  0.40372  1.0000
  Fe  Fe123     1.0  0.05743  0.76752  0.57434  1.0000
  Fe  Fe124     1.0  0.07084  0.76540  0.42483  1.0000
  S   S240      1.0  0.07909  0.79304  0.42670  1.0000
  C   C664      1.0  0.38995  0.90370  0.63598  1.0000
  C   C665      1.0  0.40958  0.96626  0.55898  1.0000
  H   H660      1.0  0.41521  0.86805  0.32747  1.0000
  H   H661      1.0  0.38603  0.93817  0.34739  1.0000
  Fe  Fe125     1.0  0.46085  0.85352  0.31705  1.0000
  H   H662      1.0  0.39293  0.92648  0.59923  1.0000
  S   S241      1.0  0.21412  0.77054  0.40318  1.0000
  C   C666      1.0  0.23876  0.74007  0.48983  1.0000
  Fe  Fe126     1.0  0.20834  0.74837  0.45677  1.0000
  S   S242      1.0  0.21118  0.77906  0.44643  1.0000
  H   H663      1.0  0.38771  0.97295  0.61280  1.0000
  Fe  Fe127     1.0  0.19073  0.77885  0.42717  1.0000
  S   S243      1.0  0.16549  0.80265  0.42331  1.0000
  Fe  Fe128     1.0  0.23436  0.76786  0.42378  1.0000
  S   S244      1.0  0.26396  0.77654  0.41741  1.0000
  C   C667      1.0  0.38281  0.96094  0.60905  1.0000
  S   S245      1.0  0.06170  0.74485  0.55672  1.0000
  Fe  Fe129     1.0  0.34506  0.87153  0.40952  1.0000
  S   S246      1.0  0.35999  0.87523  0.37875  1.0000
  Fe  Fe130     1.0  0.33901  0.85845  0.45221  1.0000
  H   H664      1.0  0.37602  0.90664  0.63157  1.0000
  S   S247      1.0  0.34681  0.84342  0.48054  1.0000
  Fe  Fe131     1.0  0.30541  0.86427  0.43127  1.0000
  S   S248      1.0  0.27668  0.85632  0.43059  1.0000
  S   S249      1.0  0.33455  0.84549  0.42829  1.0000
  H   H665      1.0  0.07301  0.80673  0.51047  1.0000
  C   C668      1.0  0.26719  0.79851  0.42184  1.0000
  C   C669      1.0  0.28582  0.80108  0.42264  1.0000
  C   C670      1.0  0.28896  0.81861  0.42566  1.0000
  C   C671      1.0  0.27350  0.83379  0.42753  1.0000
  C   C672      1.0  0.25486  0.83114  0.42695  1.0000
  C   C673      1.0  0.25169  0.81357  0.42417  1.0000
  H   H666      1.0  0.29788  0.78946  0.42089  1.0000
  H   H667      1.0  0.30336  0.82044  0.42621  1.0000
  H   H668      1.0  0.24280  0.84279  0.42852  1.0000
  H   H669      1.0  0.23730  0.81177  0.42352  1.0000
  C   C674      1.0  0.42053  0.84766  0.35260  1.0000
  C   C675      1.0  0.40956  0.86276  0.34206  1.0000
  C   C676      1.0  0.39100  0.87087  0.35031  1.0000
  C   C677      1.0  0.38330  0.86418  0.36924  1.0000
  C   C678      1.0  0.39428  0.84920  0.37991  1.0000
  C   C679      1.0  0.41278  0.84086  0.37152  1.0000
  H   H670      1.0  0.38847  0.84391  0.39451  1.0000
  H   H671      1.0  0.16685  0.78543  0.47262  1.0000
  H   H672      1.0  0.17192  0.76699  0.40079  1.0000
  N   N52       1.0  0.42007  0.89981  0.35876  1.0000
  H   H673      1.0  0.41116  0.91811  0.56881  1.0000
  C   C680      1.0  0.32475  0.96286  0.43954  1.0000
  H   H674      1.0  0.35023  0.96049  0.50699  1.0000
  H   H675      1.0  0.38538  0.89530  0.39784  1.0000
  H   H676      1.0  0.26912  0.88711  0.37527  1.0000
  H   H677      1.0  0.11200  0.75384  0.38167  1.0000
  C   C681      1.0  0.28547  0.85856  0.61663  1.0000
  C   C682      1.0  0.10339  0.79449  0.42609  1.0000
  C   C683      1.0  0.11762  0.77830  0.42952  1.0000
  C   C684      1.0  0.13680  0.78042  0.42905  1.0000
  C   C685      1.0  0.14172  0.79873  0.42506  1.0000
  C   C686      1.0  0.12737  0.81476  0.42191  1.0000
  C   C687      1.0  0.10834  0.81266  0.42251  1.0000
  H   H678      1.0  0.11386  0.76422  0.43269  1.0000
  H   H679      1.0  0.14767  0.76793  0.43175  1.0000
  H   H680      1.0  0.13101  0.82894  0.41885  1.0000
  H   H681      1.0  0.09744  0.82524  0.41996  1.0000
  C   C688      1.0  0.15724  0.75715  0.60036  1.0000
  S   S250      1.0  0.24904  0.74125  0.62950  1.0000
  C   C689      1.0  0.32962  0.92259  0.50694  1.0000
  Fe  Fe132     1.0  0.21067  0.74037  0.41678  1.0000
  C   C690      1.0  0.15322  0.77142  0.49961  1.0000
  C   C691      1.0  0.40798  0.93293  0.57077  1.0000
  C   C692      1.0  0.15431  0.76534  0.51882  1.0000
  S   S251      1.0  0.48090  0.87109  0.32195  1.0000
  H   H682      1.0  0.35015  0.93341  0.46085  1.0000
  H   H683      1.0  0.28649  0.84364  0.62333  1.0000
  H   H684      1.0  0.27078  0.85503  0.59506  1.0000
  C   C693      1.0  0.35168  0.97373  0.41668  1.0000
  C   C694      1.0  0.41388  0.94734  0.55612  1.0000
  S   S252      1.0  0.23279  0.73670  0.43551  1.0000
  Fe  Fe133     1.0  0.07424  0.73450  0.40222  1.0000
  C   C695      1.0  0.36345  0.88315  0.51278  1.0000
  C   C696      1.0  0.37066  0.88372  0.49338  1.0000
  C   C697      1.0  0.36496  0.87208  0.48330  1.0000
  C   C698      1.0  0.35204  0.85976  0.49257  1.0000
  C   C699      1.0  0.34432  0.85962  0.51186  1.0000
  C   C700      1.0  0.35011  0.87121  0.52199  1.0000
  H   H685      1.0  0.38089  0.89302  0.48618  1.0000
  H   H686      1.0  0.37108  0.87220  0.46847  1.0000
  H   H687      1.0  0.33407  0.85036  0.51905  1.0000
  H   H688      1.0  0.34438  0.87079  0.53692  1.0000
  C   C701      1.0  0.31787  0.83260  0.58980  1.0000
  C   C702      1.0  0.31409  0.84290  0.57217  1.0000
  C   C703      1.0  0.30216  0.83677  0.56257  1.0000
  C   C704      1.0  0.29375  0.82046  0.57062  1.0000
  C   C705      1.0  0.29748  0.81020  0.58827  1.0000
  C   C706      1.0  0.30959  0.81621  0.59778  1.0000
  H   H689      1.0  0.32044  0.85549  0.56584  1.0000
  H   H690      1.0  0.29937  0.84476  0.54888  1.0000
  H   H691      1.0  0.37235  0.81821  0.50582  1.0000
  H   H692      1.0  0.32766  0.80719  0.53791  1.0000
  N   N53       1.0  0.35594  0.81399  0.53383  1.0000
  S   S253      1.0  0.02987  0.78891  0.57817  1.0000
  Fe  Fe134     1.0  0.09746  0.75360  0.58598  1.0000
  H   H693      1.0  0.27759  0.88533  0.39720  1.0000
  H   H694      1.0  0.31287  0.96542  0.45106  1.0000
  C   C707      1.0  0.13796  0.73438  0.37323  1.0000
  C   C708      1.0  0.01291  0.74958  0.60913  1.0000
  H   H695      1.0  0.45523  0.95727  0.32191  1.0000
  H   H696      1.0  0.10906  0.75985  0.47646  1.0000
  C   C709      1.0  0.32843  0.94562  0.43268  1.0000
  H   H697      1.0  0.15791  0.74609  0.61279  1.0000
  H   H698      1.0  0.42169  0.94385  0.54256  1.0000
  C   C710      1.0  0.14012  0.76282  0.59277  1.0000
  C   C711      1.0  0.13927  0.77721  0.57677  1.0000
  C   C712      1.0  0.15524  0.78633  0.56880  1.0000
  C   C713      1.0  0.17234  0.78068  0.57638  1.0000
  C   C714      1.0  0.17342  0.76589  0.59203  1.0000
  H   H699      1.0  0.29839  0.89929  0.62018  1.0000
  H   H700      1.0  0.12607  0.78179  0.57096  1.0000
  H   H701      1.0  0.36710  0.95411  0.39808  1.0000
  H   H702      1.0  0.18652  0.76158  0.59801  1.0000
  H   H703      1.0  0.26935  0.85206  0.38525  1.0000
  H   H704      1.0  0.42116  0.82912  0.37975  1.0000
  H   H705      1.0  0.33153  0.93729  0.52896  1.0000
  S   S254      1.0  0.08647  0.77629  0.56286  1.0000
  H   H706      1.0  0.05069  0.78807  0.53377  1.0000
  H   H707      1.0  0.39137  0.83988  0.54752  1.0000
  H   H708      1.0  0.12953  0.77623  0.38957  1.0000
  H   H709      1.0  0.43940  0.88885  0.33590  1.0000
  C   C715      1.0  0.18289  0.78360  0.49501  1.0000
  C   C716      1.0  0.16784  0.77293  0.38664  1.0000
  S   S255      1.0  0.20181  0.73685  0.48796  1.0000
  S   S256      1.0  0.06772  0.74767  0.59943  1.0000
  H   H710      1.0  0.32082  0.87562  0.37477  1.0000
  H   H711      1.0  0.36831  0.95802  0.45588  1.0000
  C   C717      1.0  0.46718  0.95575  0.31026  1.0000
  C   C718      1.0  0.36201  0.96241  0.46986  1.0000
  S   S257      1.0  0.10556  0.75820  0.51634  1.0000
  H   H712      1.0  0.44325  0.87568  0.35870  1.0000
  C   C719      1.0  0.41113  0.89255  0.37645  1.0000
  S   S258      1.0  0.00438  0.74479  0.43775  1.0000
  H   H713      1.0  0.18122  0.77479  0.37611  1.0000
  C   C720      1.0  0.38384  0.82933  0.52517  1.0000
  H   H714      1.0  0.99332  0.81327  0.57942  1.0000
  N   N54       1.0  0.18403  0.77731  0.51379  1.0000
  H   H715      1.0  0.39506  0.83491  0.51431  1.0000
  C   C721      1.0  0.33522  0.93662  0.51395  1.0000
  H   H716      1.0  0.42523  0.81441  0.31334  1.0000
  N   N55       1.0  0.27140  0.79903  0.48492  1.0000
  C   C722      1.0  0.27453  0.81747  0.47903  1.0000
  C   C723      1.0  0.27633  0.78871  0.50166  1.0000
  C   C724      1.0  0.28237  0.82620  0.49021  1.0000
  C   C725      1.0  0.28407  0.79704  0.51326  1.0000
  C   C726      1.0  0.28701  0.81593  0.50751  1.0000
  C   C727      1.0  0.26356  0.78996  0.47284  1.0000
  H   H717      1.0  0.27083  0.82565  0.46572  1.0000
  H   H718      1.0  0.27412  0.77400  0.50625  1.0000
  H   H719      1.0  0.02009  0.76046  0.56026  1.0000
  H   H720      1.0  0.28749  0.78897  0.52677  1.0000
  H   H721      1.0  0.29273  0.82264  0.51652  1.0000
  H   H722      1.0  0.25453  0.77947  0.48151  1.0000
  H   H723      1.0  0.25422  0.80068  0.46391  1.0000
  H   H724      1.0  0.27554  0.78240  0.46336  1.0000
  C   C728      1.0  0.39941  0.97051  0.57653  1.0000
  C   C729      1.0  0.41139  0.91613  0.34848  1.0000
  C   C730      1.0  0.31598  0.82976  0.37716  1.0000
  C   C731      1.0  0.19999  0.78100  0.52127  1.0000
  C   C732      1.0  0.34383  0.94238  0.41780  1.0000
  H   H725      1.0  0.29042  0.89635  0.37509  1.0000
  H   H726      1.0  0.28474  0.84087  0.48549  1.0000
  H   H727      1.0  0.29113  0.79757  0.59454  1.0000
  C   C733      1.0  0.04758  0.77155  0.51370  1.0000
  H   H728      1.0  0.19402  0.79073  0.48561  1.0000
  H   H729      1.0  0.19688  0.79588  0.52409  1.0000
  H   H730      1.0  0.28158  0.96431  0.60515  1.0000
  Fe  Fe135     1.0  0.09142  0.75222  0.54679  1.0000
  C   C734      1.0  0.05464  0.78561  0.51921  1.0000
  C   C735      1.0  0.31238  0.95696  0.59676  1.0000
  S   S259      1.0  0.18601  0.74922  0.43947  1.0000
  C   C736      1.0  0.24985  0.73831  0.51944  1.0000
  H   H731      1.0  0.02348  0.75699  0.61168  1.0000
  C   C737      1.0  0.06716  0.79622  0.50591  1.0000
  H   H732      1.0  0.03814  0.76299  0.52395  1.0000
  C   C738      1.0  0.22046  0.73725  0.49990  1.0000
  H   H733      1.0  0.31250  0.80814  0.61140  1.0000
  C   C739      1.0  0.35421  0.81605  0.55228  1.0000
  C   C740      1.0  0.32498  0.84548  0.37513  1.0000
  C   C741      1.0  0.16754  0.78067  0.48760  1.0000
  C   C742      1.0  0.37091  0.81991  0.52046  1.0000
  H   H734      1.0  0.41862  0.92195  0.33450  1.0000
  N   N56       1.0  0.07212  0.79320  0.48753  1.0000
  C   C743      1.0  0.05297  0.76835  0.49504  1.0000
  S   S260      1.0  0.30911  0.87527  0.45638  1.0000
  C   C744      1.0  0.36692  0.82535  0.55751  1.0000
  C   C745      1.0  0.06517  0.77951  0.48202  1.0000
  S   S261      1.0  0.11986  0.75212  0.60390  1.0000
  H   H735      1.0  0.04800  0.75709  0.49074  1.0000
  H   H736      1.0  0.34327  0.95425  0.58811  1.0000
  N   N57       1.0  0.29392  0.86580  0.37963  1.0000
  S   S262      1.0  0.35242  0.88262  0.43315  1.0000
  H   H737      1.0  0.46112  0.97445  0.38645  1.0000
  S   S263      1.0  0.31538  0.88962  0.41114  1.0000
  S   S264      1.0  0.44374  0.83688  0.34240  1.0000
  H   H738      1.0  0.14127  0.76897  0.49408  1.0000
  H   H739      1.0  0.34274  0.81081  0.56302  1.0000
  Fe  Fe136     1.0  0.32209  0.89872  0.43597  1.0000
  H   H740      1.0  0.38259  0.88248  0.34198  1.0000
  H   H741      1.0  0.32157  0.91227  0.51647  1.0000
  H   H742      1.0  0.15893  0.78737  0.38721  1.0000
  C   C746      1.0  0.40588  0.89342  0.62565  1.0000
  H   H743      1.0  0.20215  0.77117  0.53482  1.0000
  C   C747      1.0  0.00884  0.78707  0.57038  1.0000
  H   H744      1.0  0.08844  0.81611  0.47921  1.0000
  S   S265      1.0  0.31406  0.92813  0.44374  1.0000
  C   C748      1.0  0.31366  0.86351  0.37633  1.0000
  C   C749      1.0  0.43922  0.89034  0.35072  1.0000
  H   H745      1.0  0.15428  0.79789  0.55680  1.0000
  H   H746      1.0  0.09916  0.79480  0.46942  1.0000
  H   H747      1.0  0.36918  0.92466  0.37921  1.0000
  H   H748      1.0  0.45031  0.89898  0.35056  1.0000
  C   C750      1.0  0.27568  0.88395  0.59161  1.0000
  C   C751      1.0  0.33644  0.97680  0.43170  1.0000
  N   N58       1.0  0.15745  0.75996  0.38157  1.0000
  H   H749      1.0  0.32455  0.81563  0.37652  1.0000
  H   H750      1.0  0.18331  0.74083  0.37324  1.0000
  C   C752      1.0  0.08528  0.80428  0.47360  1.0000
  C   C753      1.0  0.00776  0.77173  0.56206  1.0000
  S   S266      1.0  0.26831  0.73915  0.53145  1.0000
  H   H751      1.0  0.34739  0.78946  0.52911  1.0000
  H   H752      1.0  0.34677  0.92907  0.41253  1.0000
  H   H753      1.0  0.36512  0.82746  0.57207  1.0000
  C   C754      1.0  0.12767  0.75093  0.37981  1.0000
  C   C755      1.0  0.29516  0.96951  0.60130  1.0000
  N   N59       1.0  0.35128  0.94829  0.48267  1.0000
  C   C756      1.0  0.28221  0.88458  0.38185  1.0000
  C   C757      1.0  0.34593  0.93451  0.47572  1.0000
  N   N60       1.0  0.29352  0.87073  0.62326  1.0000
  C   C758      1.0  0.33490  0.92157  0.48769  1.0000
  C   C759      1.0  0.34600  0.94953  0.50150  1.0000
  C   C760      1.0  0.38362  0.91790  0.37358  1.0000
  H   H754      1.0  0.33068  0.91071  0.48204  1.0000
  H   H755      1.0  0.38477  0.94857  0.62082  1.0000
  H   H756      1.0  0.07880  0.81065  0.46066  1.0000
  H   H757      1.0  0.04776  0.73438  0.37843  1.0000
  C   C761      1.0  0.10315  0.74724  0.48380  1.0000
  Fe  Fe137     1.0  0.03652  0.74516  0.42853  1.0000
  H   H758      1.0  0.06942  0.77690  0.46753  1.0000
  C   C762      1.0  0.13768  0.76356  0.38414  1.0000
  C   C763      1.0  0.34195  0.80502  0.52842  1.0000
  C   C764      1.0  0.39775  0.93772  0.58808  1.0000
  H   H759      1.0  0.14311  0.75830  0.52829  1.0000
  H   H760      1.0  0.33944  0.81154  0.51375  1.0000
  C   C765      1.0  0.39301  0.92539  0.35569  1.0000
  C   C766      1.0  0.38170  0.83221  0.54379  1.0000
  H   H761      1.0  0.43625  0.88174  0.62371  1.0000
  H   H762      1.0  0.41789  0.87948  0.38452  1.0000
  C   C767      1.0  0.29585  0.83224  0.38036  1.0000
  H   H763      1.0  0.34064  0.84378  0.37286  1.0000
  H   H764      1.0  0.17067  0.76367  0.54065  1.0000
  H   H765      1.0  0.00503  0.76988  0.40058  1.0000
  C   C768      1.0  0.28346  0.89639  0.59878  1.0000
  H   H766      1.0  0.26906  0.88902  0.57903  1.0000
  C   C769      1.0  0.25353  0.74021  0.49962  1.0000
  H   H767      1.0  0.36718  0.96501  0.60822  1.0000
  C   C770      1.0  0.16990  0.76845  0.52572  1.0000
  H   H768      1.0  0.35218  0.97636  0.46738  1.0000
  H   H769      1.0  0.37403  0.96443  0.47619  1.0000
  H   H770      1.0  0.24166  0.74175  0.47452  1.0000
  N   N61       1.0  0.39384  0.95625  0.59088  1.0000
  C   C771      1.0  0.29230  0.88952  0.61477  1.0000
  H   H771      1.0  0.28291  0.91125  0.59191  1.0000
  C   C772      1.0  0.10040  0.74272  0.50359  1.0000
  H   H772      1.0  0.41406  0.97763  0.54770  1.0000
  C   C773      1.0  0.30286  0.86365  0.63998  1.0000
  S   S267      1.0  0.45602  0.92227  0.30950  1.0000
  S   S268      1.0  0.09287  0.73915  0.42114  1.0000
  C   C774      1.0  0.99382  0.75891  0.60891  1.0000
  C   C775      1.0  0.42384  0.88964  0.63165  1.0000
  H   H773      1.0  0.09918  0.73972  0.45826  1.0000
  H   H774      1.0  0.26781  0.74188  0.49183  1.0000
  C   C776      1.0  0.23144  0.73585  0.52946  1.0000
  H   H775      1.0  0.22855  0.73417  0.54476  1.0000
  C   C777      1.0  0.21689  0.73493  0.51973  1.0000
  H   H776      1.0  0.11824  0.73439  0.31315  1.0000
  H   H777      1.0  0.31196  0.84934  0.63904  1.0000
  H   H778      1.0  0.47626  0.98190  0.31129  1.0000
  H   H779      1.0  0.20281  0.73262  0.52759  1.0000
  Fe  Fe138     1.0  0.45786  0.73832  0.83972  1.0000
  H   H780      1.0  0.47452  0.94094  0.74377  1.0000
  S   S269      1.0  0.46051  0.78611  0.85341  1.0000
  C   C778      1.0  0.42265  0.97392  0.76189  1.0000
  S   S270      1.0  0.43169  0.75790  0.85136  1.0000
  Fe  Fe139     1.0  0.44525  0.78149  0.83149  1.0000
  S   S271      1.0  0.42807  0.80649  0.81433  1.0000
  Fe  Fe140     1.0  0.44991  0.76035  0.87193  1.0000
  S   S272      1.0  0.43658  0.75820  0.90302  1.0000
  S   S273      1.0  0.47023  0.76173  0.81817  1.0000
  Fe  Fe141     1.0  0.43707  0.90827  0.69417  1.0000
  S   S274      1.0  0.42917  0.89727  0.72550  1.0000
  S   S275      1.0  0.41199  0.91585  0.67789  1.0000
  Fe  Fe142     1.0  0.47721  0.91328  0.69855  1.0000
  S   S276      1.0  0.47199  0.90260  0.72981  1.0000
  C   C779      1.0  0.41003  0.90649  0.65807  1.0000
  Fe  Fe143     1.0  0.45910  0.87995  0.72286  1.0000
  S   S277      1.0  0.46931  0.84928  0.73627  1.0000
  Fe  Fe144     1.0  0.44292  0.92089  0.72926  1.0000
  S   S278      1.0  0.43039  0.93907  0.75161  1.0000
  S   S279      1.0  0.46642  0.88934  0.69109  1.0000
  S   S280      1.0  0.44872  0.93316  0.69852  1.0000
  C   C780      1.0  0.45767  0.84624  0.80987  1.0000
  H   H781      1.0  0.42811  0.76427  0.94165  1.0000
  H   H782      1.0  0.40128  0.78296  0.80682  1.0000
  C   C781      1.0  0.48458  0.84607  0.78468  1.0000
  H   H783      1.0  0.44915  0.76402  0.96467  1.0000
  H   H784      1.0  0.40089  0.93990  0.70738  1.0000
  C   C782      1.0  0.48341  0.81816  0.81033  1.0000
  C   C783      1.0  0.45883  0.87343  0.78439  1.0000
  H   H785      1.0  0.47204  0.80921  0.81616  1.0000
  H   H786      1.0  0.37972  0.91839  0.65985  1.0000
  H   H787      1.0  0.37756  0.76291  0.80547  1.0000
  C   C784      1.0  0.43219  0.74393  0.79338  1.0000
  H   H788      1.0  0.48383  0.87075  0.76228  1.0000
  C   C785      1.0  0.41837  0.98112  0.66582  1.0000
  H   H789      1.0  0.45221  0.88726  0.77741  1.0000
  C   C786      1.0  0.47663  0.86424  0.77595  1.0000
  C   C787      1.0  0.48369  0.75194  0.92762  1.0000
  C   C788      1.0  0.40981  0.96721  0.67925  1.0000
  C   C789      1.0  0.47896  0.97446  0.74709  1.0000
  H   H790      1.0  0.44758  0.73854  0.79033  1.0000
  H   H791      1.0  0.43981  0.89302  0.65235  1.0000
  C   C790      1.0  0.44064  0.97313  0.73012  1.0000
  N   N62       1.0  0.40501  0.96892  0.69799  1.0000
  C   C791      1.0  0.43874  0.81747  0.79171  1.0000
  C   C792      1.0  0.42958  0.83535  0.78327  1.0000
  C   C793      1.0  0.43850  0.84513  0.76600  1.0000
  C   C794      1.0  0.45655  0.83694  0.75695  1.0000
  C   C795      1.0  0.46533  0.81874  0.76504  1.0000
  C   C796      1.0  0.45651  0.80907  0.78236  1.0000
  H   H792      1.0  0.41574  0.84189  0.79033  1.0000
  H   H793      1.0  0.43155  0.85909  0.75982  1.0000
  H   H794      1.0  0.47923  0.81226  0.75804  1.0000
  H   H795      1.0  0.46364  0.79525  0.78853  1.0000
  C   C797      1.0  0.45179  0.75721  0.91934  1.0000
  C   C798      1.0  0.44364  0.76076  0.93773  1.0000
  C   C799      1.0  0.45552  0.76043  0.95085  1.0000
  C   C800      1.0  0.47187  0.75276  0.91435  1.0000
  C   C801      1.0  0.47560  0.75609  0.94578  1.0000
  H   H796      1.0  0.38028  0.95781  0.71376  1.0000
  H   H797      1.0  0.43525  0.87124  0.80798  1.0000
  S   S281      1.0  0.47564  0.73952  0.86132  1.0000
  H   H798      1.0  0.44989  0.83905  0.82286  1.0000
  H   H799      1.0  0.40715  0.95496  0.67460  1.0000
  C   C802      1.0  0.43134  0.96367  0.74729  1.0000
  C   C803      1.0  0.42591  0.89602  0.64788  1.0000
  N   N63       1.0  0.47499  0.83724  0.80132  1.0000
  C   C804      1.0  0.39968  0.73980  0.79660  1.0000
  H   H800      1.0  0.47829  0.74977  0.90031  1.0000
  C   C805      1.0  0.42593  0.76207  0.79834  1.0000
  H   H801      1.0  0.44736  0.96535  0.71872  1.0000
  C   C806      1.0  0.39208  0.91035  0.65201  1.0000
  C   C807      1.0  0.44931  0.86444  0.80152  1.0000
  C   C808      1.0  0.48606  0.94584  0.73216  1.0000
  Fe  Fe145     1.0  0.48513  0.76515  0.84101  1.0000
  C   C809      1.0  0.39626  0.95408  0.71193  1.0000
  H   H802      1.0  0.46929  0.96751  0.75870  1.0000
  H   H803      1.0  0.48188  0.94517  0.71857  1.0000
  H   H804      1.0  0.41541  0.96677  0.77516  1.0000
  C   C810      1.0  0.39295  0.75775  0.80195  1.0000
  H   H805      1.0  0.49053  0.81919  0.82204  1.0000
  H   H806      1.0  0.43628  0.77080  0.79877  1.0000
  C   C811      1.0  0.40621  0.76895  0.80276  1.0000
  H   H807      1.0  0.40085  0.95239  0.72588  1.0000
  H   H808      1.0  0.42233  0.97961  0.65102  1.0000
  H   H809      1.0  0.20889  0.73309  0.64911  1.0000
  S   S282      1.0  0.49113  0.75639  0.96140  1.0000
  H   H810      1.0  0.29176  0.86260  0.65305  1.0000
  N   N64       1.0  0.48841  0.96536  0.73231  1.0000
  N   N65       1.0  0.41909  0.73304  0.79260  1.0000
  H   H811      1.0  0.31267  0.87318  0.64105  1.0000
  S   S283      1.0  0.65454  0.21870  0.27881  1.0000
  C   C812      1.0  0.67342  0.13828  0.28443  1.0000
  C   C813      1.0  0.67534  0.15502  0.29011  1.0000
  Fe  Fe146     1.0  0.51817  0.19826  0.29849  1.0000
  S   S284      1.0  0.66853  0.10076  0.29095  1.0000
  H   H812      1.0  0.62946  0.12389  0.30116  1.0000
  C   C814      1.0  0.60391  0.11439  0.29857  1.0000
  S   S285      1.0  0.50119  0.19866  0.27581  1.0000
  H   H813      1.0  0.57130  0.99526  0.30038  1.0000
  C   C815      1.0  0.58543  0.20184  0.29006  1.0000
  C   C816      1.0  0.56524  0.20727  0.29326  1.0000
  H   H814      1.0  0.57618  0.10872  0.29724  1.0000
  H   H815      1.0  0.61288  0.20978  0.28944  1.0000
  S   S286      1.0  0.55078  0.19114  0.29137  1.0000
  S   S287      1.0  0.52162  0.07653  0.28454  1.0000
  H   H816      1.0  0.70411  0.08835  0.30466  1.0000
  H   H817      1.0  0.67553  0.13763  0.26949  1.0000
  H   H818      1.0  0.67912  0.16716  0.27957  1.0000
  C   C817      1.0  0.58383  0.11903  0.29982  1.0000
  C   C818      1.0  0.51559  0.11456  0.28704  1.0000
  C   C819      1.0  0.58190  0.02127  0.29812  1.0000
  Fe  Fe147     1.0  0.50922  0.04974  0.29800  1.0000
  H   H819      1.0  0.59483  0.04510  0.29931  1.0000
  C   C820      1.0  0.50419  0.13219  0.29046  1.0000
  C   C821      1.0  0.66924  0.12225  0.29804  1.0000
  H   H820      1.0  0.53106  0.11346  0.28260  1.0000
  H   H821      1.0  0.61162  0.10065  0.29520  1.0000
  H   H822      1.0  0.63607  0.99740  0.27790  1.0000
  H   H823      1.0  0.53053  0.23185  0.26557  1.0000
  C   C822      1.0  0.64121  0.99052  0.29097  1.0000
  C   C823      1.0  0.59736  0.21418  0.29177  1.0000
  S   S288      1.0  0.51071  0.98419  0.28246  1.0000
  H   H824      1.0  0.64987  0.01585  0.29506  1.0000
  H   H825      1.0  0.59189  0.18804  0.28622  1.0000
  S   S289      1.0  0.52930  0.02147  0.30091  1.0000
  S   S290      1.0  0.69119  0.22506  0.29595  1.0000
  H   H826      1.0  0.55007  0.14880  0.29088  1.0000
  H   H827      1.0  0.57297  0.02942  0.28789  1.0000
  H   H828      1.0  0.51084  0.14463  0.28865  1.0000
  Fe  Fe148     1.0  0.66970  0.20507  0.30355  1.0000
  C   C824      1.0  0.50704  0.09838  0.28915  1.0000
  C   C825      1.0  0.59413  0.03008  0.30454  1.0000
  C   C826      1.0  0.64893  0.00099  0.30072  1.0000
  H   H829      1.0  0.71059  0.12154  0.29849  1.0000
  C   C827      1.0  0.55706  0.22532  0.29781  1.0000
  H   H830      1.0  0.54156  0.22965  0.30038  1.0000
  Fe  Fe149     1.0  0.50435  0.00847  0.29887  1.0000
  H   H831      1.0  0.54152  0.23239  0.23098  1.0000
  C   C828      1.0  0.61391  0.12739  0.30206  1.0000
  N   N66       1.0  0.57398  0.13610  0.30461  1.0000
  C   C829      1.0  0.58095  0.00199  0.30531  1.0000
  C   C830      1.0  0.55305  0.14108  0.30507  1.0000
  C   C831      1.0  0.58918  0.23222  0.29634  1.0000
  C   C832      1.0  0.60380  0.14483  0.30676  1.0000
  Fe  Fe150     1.0  0.76031  0.08706  0.58785  1.0000
  S   S291      1.0  0.74192  0.09768  0.56534  1.0000
  S   S292      1.0  0.76158  0.10857  0.60552  1.0000
  H   H832      1.0  0.72216  0.07692  0.37174  1.0000
  S   S293      1.0  0.69771  0.06992  0.58539  1.0000
  Fe  Fe151     1.0  0.76479  0.07890  0.54849  1.0000
  S   S294      1.0  0.77678  0.08860  0.51799  1.0000
  H   H833      1.0  0.72440  0.08202  0.62956  1.0000
  Fe  Fe152     1.0  0.78138  0.21176  0.56877  1.0000
  S   S295      1.0  0.75011  0.21907  0.58106  1.0000
  S   S296      1.0  0.79180  0.18377  0.55806  1.0000
  C   C833      1.0  0.54822  0.04411  0.33171  1.0000
  C   C834      1.0  0.60350  0.00048  0.32526  1.0000
  H   H834      1.0  0.70897  0.22362  0.33126  1.0000
  C   C835      1.0  0.67064  0.07909  0.61593  1.0000
  H   H835      1.0  0.74611  0.99511  0.44744  1.0000
  H   H836      1.0  0.78866  0.19460  0.48432  1.0000
  C   C836      1.0  0.68666  0.99673  0.37780  1.0000
  Fe  Fe153     1.0  0.75877  0.23068  0.40126  1.0000
  H   H837      1.0  0.64524  0.15557  0.37211  1.0000
  S   S297      1.0  0.75118  0.22050  0.37680  1.0000
  S   S298      1.0  0.64885  0.22190  0.32401  1.0000
  H   H838      1.0  0.71063  0.05341  0.63001  1.0000
  H   H839      1.0  0.49989  0.04896  0.38560  1.0000
  H   H840      1.0  0.52676  0.08774  0.33983  1.0000
  C   C837      1.0  0.72362  0.21361  0.53209  1.0000
  H   H841      1.0  0.78704  0.05272  0.50198  1.0000
  C   C838      1.0  0.68686  0.08392  0.60288  1.0000
  Fe  Fe154     1.0  0.77946  0.21022  0.43403  1.0000
  S   S299      1.0  0.79131  0.18103  0.44889  1.0000
  C   C839      1.0  0.78168  0.03936  0.50705  1.0000
  S   S300      1.0  0.63206  0.04162  0.35339  1.0000
  C   C840      1.0  0.72443  0.11698  0.32288  1.0000
  C   C841      1.0  0.57797  0.04257  0.35134  1.0000
  Fe  Fe155     1.0  0.72933  0.10337  0.39874  1.0000
  S   S301      1.0  0.75940  0.09262  0.38493  1.0000
  S   S302      1.0  0.70901  0.12210  0.38018  1.0000
  Fe  Fe156     1.0  0.73565  0.08082  0.43711  1.0000
  S   S303      1.0  0.76610  0.06760  0.42659  1.0000
  S   S304      1.0  0.72195  0.07497  0.46757  1.0000
  Fe  Fe157     1.0  0.76803  0.09753  0.41097  1.0000
  S   S305      1.0  0.79414  0.11027  0.41014  1.0000
  Fe  Fe158     1.0  0.75433  0.06390  0.40183  1.0000
  S   S306      1.0  0.73837  0.11097  0.42324  1.0000
  S   S307      1.0  0.72365  0.07434  0.41388  1.0000
  Fe  Fe159     1.0  0.65704  0.07811  0.31431  1.0000
  C   C842      1.0  0.70937  0.99978  0.40289  1.0000
  H   H842      1.0  0.72998  0.05737  0.35878  1.0000
  Fe  Fe160     1.0  0.64959  0.06247  0.35639  1.0000
  H   H843      1.0  0.82461  0.13001  0.37979  1.0000
  C   C843      1.0  0.73149  0.07227  0.35880  1.0000
  H   H844      1.0  0.58950  0.04198  0.35893  1.0000
  C   C844      1.0  0.75562  0.00209  0.57369  1.0000
  H   H845      1.0  0.74990  0.02684  0.42767  1.0000
  C   C845      1.0  0.67399  0.09260  0.36654  1.0000
  C   C846      1.0  0.68526  0.10646  0.36554  1.0000
  C   C847      1.0  0.69080  0.10885  0.38195  1.0000
  C   C848      1.0  0.68378  0.09848  0.39952  1.0000
  H   H846      1.0  0.67060  0.08995  0.35379  1.0000
  H   H847      1.0  0.69045  0.11457  0.35197  1.0000
  H   H848      1.0  0.56955  0.01624  0.36774  1.0000
  C   C849      1.0  0.79105  0.16153  0.43828  1.0000
  C   C850      1.0  0.80602  0.14581  0.43983  1.0000
  C   C851      1.0  0.80646  0.13000  0.43159  1.0000
  C   C852      1.0  0.79151  0.12932  0.42240  1.0000
  C   C853      1.0  0.77602  0.14471  0.42143  1.0000
  C   C854      1.0  0.77599  0.16101  0.42904  1.0000
  H   H849      1.0  0.81763  0.14605  0.44704  1.0000
  H   H850      1.0  0.81852  0.11824  0.43227  1.0000
  H   H851      1.0  0.76449  0.14435  0.41420  1.0000
  H   H852      1.0  0.76425  0.17304  0.42796  1.0000
  H   H853      1.0  0.76598  0.13665  0.46380  1.0000
  Fe  Fe161     1.0  0.61913  0.06569  0.33267  1.0000
  H   H854      1.0  0.54615  0.12814  0.30907  1.0000
  H   H855      1.0  0.71311  0.22473  0.52481  1.0000
  H   H856      1.0  0.81750  0.18606  0.39334  1.0000
  H   H857      1.0  0.75998  0.14534  0.61532  1.0000
  C   C855      1.0  0.76917  0.03458  0.49723  1.0000
  H   H858      1.0  0.55621  0.07040  0.31546  1.0000
  H   H859      1.0  0.73351  0.13079  0.46316  1.0000
  C   C856      1.0  0.74939  0.98863  0.56626  1.0000
  H   H860      1.0  0.78596  0.00028  0.54085  1.0000
  C   C857      1.0  0.79782  0.14896  0.37551  1.0000
  C   C858      1.0  0.51391  0.08254  0.34809  1.0000
  H   H861      1.0  0.79758  0.04865  0.53209  1.0000
  H   H862      1.0  0.74683  0.07185  0.35959  1.0000
  H   H863      1.0  0.73605  0.99251  0.56064  1.0000
  C   C859      1.0  0.75572  0.13492  0.47693  1.0000
  H   H864      1.0  0.67756  0.99574  0.36806  1.0000
  H   H865      1.0  0.57594  0.16259  0.31159  1.0000
  C   C860      1.0  0.69084  0.22614  0.63401  1.0000
  S   S308      1.0  0.58832  0.07569  0.32913  1.0000
  H   H866      1.0  0.71245  0.03485  0.40341  1.0000
  C   C861      1.0  0.77312  0.99748  0.58046  1.0000
  H   H867      1.0  0.79211  0.13810  0.37136  1.0000
  C   C862      1.0  0.76859  0.00481  0.51927  1.0000
  H   H868      1.0  0.71050  0.12476  0.49336  1.0000
  C   C863      1.0  0.76099  0.08609  0.50390  1.0000
  C   C864      1.0  0.76672  0.08835  0.48422  1.0000
  C   C865      1.0  0.75448  0.08546  0.47295  1.0000
  C   C866      1.0  0.73668  0.07993  0.48140  1.0000
  C   C867      1.0  0.73084  0.07799  0.50105  1.0000
  C   C868      1.0  0.74292  0.08124  0.51227  1.0000
  H   H869      1.0  0.78066  0.09220  0.47767  1.0000
  H   H870      1.0  0.75894  0.08734  0.45776  1.0000
  H   H871      1.0  0.71698  0.07392  0.50759  1.0000
  H   H872      1.0  0.73810  0.08012  0.52738  1.0000
  C   C869      1.0  0.76924  0.12976  0.59209  1.0000
  C   C870      1.0  0.77807  0.13059  0.57305  1.0000
  C   C871      1.0  0.78485  0.14725  0.56276  1.0000
  C   C872      1.0  0.78251  0.16334  0.57130  1.0000
  C   C873      1.0  0.77319  0.16273  0.59018  1.0000
  C   C874      1.0  0.76675  0.14591  0.60060  1.0000
  H   H873      1.0  0.78015  0.11819  0.56640  1.0000
  H   H874      1.0  0.79213  0.14758  0.54821  1.0000
  C   C875      1.0  0.49586  0.09007  0.34278  1.0000
  C   C876      1.0  0.75781  0.20396  0.48757  1.0000
  C   C877      1.0  0.77540  0.19839  0.49407  1.0000
  C   C878      1.0  0.51538  0.06772  0.36361  1.0000
  C   C879      1.0  0.71123  0.23000  0.34248  1.0000
  N   N67       1.0  0.76099  0.13507  0.49378  1.0000
  H   H875      1.0  0.71702  0.20070  0.53839  1.0000
  C   C880      1.0  0.55909  0.05874  0.32703  1.0000
  H   H876      1.0  0.81514  0.02759  0.52740  1.0000
  H   H877      1.0  0.74676  0.01598  0.57426  1.0000
  H   H878      1.0  0.78188  0.14169  0.50721  1.0000
  C   C881      1.0  0.72738  0.22243  0.35147  1.0000
  S   S309      1.0  0.67401  0.05501  0.33311  1.0000
  H   H879      1.0  0.73749  0.21025  0.34703  1.0000
  H   H880      1.0  0.79687  0.02680  0.54861  1.0000
  C   C882      1.0  0.65595  0.99208  0.31740  1.0000
  S   S310      1.0  0.74831  0.21753  0.43136  1.0000
  C   C883      1.0  0.72446  0.12819  0.49345  1.0000
  C   C884      1.0  0.72996  0.12832  0.51059  1.0000
  H   H881      1.0  0.78945  0.19344  0.51838  1.0000
  C   C885      1.0  0.70263  0.17850  0.35669  1.0000
  H   H882      1.0  0.70598  0.18185  0.34094  1.0000
  H   H883      1.0  0.70886  0.18811  0.36275  1.0000
  H   H884      1.0  0.70968  0.16359  0.36151  1.0000
  N   N68       1.0  0.72623  0.08552  0.34187  1.0000
  C   C886      1.0  0.72999  0.10374  0.33851  1.0000
  C   C887      1.0  0.64164  0.18569  0.37281  1.0000
  H   H885      1.0  0.66429  0.06730  0.61463  1.0000
  S   S311      1.0  0.78176  0.01452  0.58887  1.0000
  S   S312      1.0  0.49809  0.04756  0.32903  1.0000
  H   H886      1.0  0.75297  0.13075  0.52395  1.0000
  H   H887      1.0  0.67804  0.02714  0.37579  1.0000
  H   H888      1.0  0.67838  0.21084  0.36238  1.0000
  H   H889      1.0  0.61411  0.02652  0.32369  1.0000
  C   C888      1.0  0.65239  0.16773  0.37036  1.0000
  C   C889      1.0  0.60490  0.01969  0.31829  1.0000
  Fe  Fe162     1.0  0.51681  0.01875  0.33175  1.0000
  H   H890      1.0  0.71805  0.00080  0.41294  1.0000
  N   N69       1.0  0.59193  0.99178  0.31846  1.0000
  S   S313      1.0  0.79210  0.22324  0.59012  1.0000
  C   C890      1.0  0.78110  0.01009  0.52875  1.0000
  H   H891      1.0  0.79065  0.12344  0.49274  1.0000
  C   C891      1.0  0.79984  0.03284  0.53321  1.0000
  H   H892      1.0  0.76462  0.04429  0.48488  1.0000
  H   H893      1.0  0.83744  0.15394  0.39116  1.0000
  H   H894      1.0  0.52941  0.06134  0.36748  1.0000
  C   C892      1.0  0.71700  0.07997  0.32996  1.0000
  C   C893      1.0  0.78074  0.13730  0.49390  1.0000
  H   H895      1.0  0.61192  0.99255  0.33597  1.0000
  C   C894      1.0  0.57412  0.05787  0.33663  1.0000
  C   C895      1.0  0.66305  0.08902  0.63110  1.0000
  Fe  Fe163     1.0  0.65543  0.03556  0.32873  1.0000
  C   C896      1.0  0.65109  0.20122  0.37014  1.0000
  H   H896      1.0  0.69734  0.04601  0.38619  1.0000
  C   C897      1.0  0.74843  0.13171  0.51050  1.0000
  S   S314      1.0  0.63428  0.08727  0.33814  1.0000
  Fe  Fe164     1.0  0.72932  0.07109  0.57738  1.0000
  H   H897      1.0  0.68759  0.10065  0.41233  1.0000
  H   H898      1.0  0.71368  0.06566  0.33277  1.0000
  C   C898      1.0  0.81632  0.14428  0.38024  1.0000
  H   H899      1.0  0.66729  0.07648  0.41414  1.0000
  H   H900      1.0  0.72734  0.21380  0.49498  1.0000
  C   C899      1.0  0.74089  0.20905  0.50026  1.0000
  C   C900      1.0  0.67121  0.19857  0.36493  1.0000
  C   C901      1.0  0.77586  0.19779  0.51313  1.0000
  H   H901      1.0  0.69348  0.12123  0.62068  1.0000
  S   S315      1.0  0.78442  0.07004  0.57002  1.0000
  H   H902      1.0  0.70740  0.10316  0.59447  1.0000
  S   S316      1.0  0.53765  0.01082  0.35212  1.0000
  C   C902      1.0  0.67227  0.08484  0.40056  1.0000
  H   H903      1.0  0.68070  0.15169  0.36295  1.0000
  S   S317      1.0  0.75020  0.05330  0.55788  1.0000
  S   S318      1.0  0.74613  0.06150  0.60111  1.0000
  S   S319      1.0  0.76019  0.03854  0.38692  1.0000
  H   H904      1.0  0.66712  0.14012  0.33785  1.0000
  H   H905      1.0  0.72032  0.12494  0.52392  1.0000
  C   C903      1.0  0.75773  0.01616  0.40133  1.0000
  C   C904      1.0  0.66875  0.13973  0.32292  1.0000
  C   C905      1.0  0.66772  0.08163  0.38401  1.0000
  C   C906      1.0  0.58371  0.14898  0.30796  1.0000
  N   N70       1.0  0.74152  0.20866  0.51889  1.0000
  C   C907      1.0  0.75866  0.20288  0.52545  1.0000
  H   H906      1.0  0.75916  0.20234  0.54026  1.0000
  C   C908      1.0  0.56670  0.02805  0.35632  1.0000
  C   C909      1.0  0.76083  0.99992  0.39286  1.0000
  C   C910      1.0  0.82343  0.15765  0.38676  1.0000
  N   N71       1.0  0.68164  0.18086  0.36282  1.0000
  Fe  Fe165     1.0  0.76801  0.04551  0.58084  1.0000
  H   H907      1.0  0.62601  0.18762  0.37650  1.0000
  C   C911      1.0  0.76244  0.01728  0.50353  1.0000
  H   H908      1.0  0.76226  0.15866  0.37028  1.0000
  H   H909      1.0  0.78509  0.19380  0.38419  1.0000
  H   H910      1.0  0.76641  0.18278  0.36024  1.0000
  C   C912      1.0  0.75236  0.01438  0.42103  1.0000
  S   S320      1.0  0.65536  0.06304  0.38507  1.0000
  C   C913      1.0  0.55185  0.02879  0.34639  1.0000
  C   C914      1.0  0.75026  0.99640  0.43220  1.0000
  H   H911      1.0  0.78562  0.14836  0.48183  1.0000
  C   C915      1.0  0.67249  0.16558  0.36529  1.0000
  S   S321      1.0  0.50127  0.17877  0.32073  1.0000
  H   H912      1.0  0.66321  0.11104  0.32778  1.0000
  C   C916      1.0  0.79386  0.17989  0.38302  1.0000
  C   C917      1.0  0.81221  0.17563  0.38807  1.0000
  C   C918      1.0  0.76712  0.17125  0.37289  1.0000
  H   H913      1.0  0.75680  0.17656  0.38506  1.0000
  C   C919      1.0  0.73060  0.23059  0.36604  1.0000
  H   H914      1.0  0.73679  0.10826  0.34830  1.0000
  H   H915      1.0  0.76500  0.00123  0.37762  1.0000
  N   N72       1.0  0.78676  0.16652  0.37718  1.0000
  S   S322      1.0  0.66771  0.00425  0.32862  1.0000
  N   N73       1.0  0.78699  0.02743  0.52293  1.0000
  H   H916      1.0  0.77145  0.17500  0.59692  1.0000
  C   C920      1.0  0.69497  0.09924  0.60455  1.0000
  H   H917      1.0  0.72984  0.19427  0.61845  1.0000
  H   H918      1.0  0.74989  0.99572  0.61927  1.0000
  C   C921      1.0  0.68707  0.01448  0.38214  1.0000
  C   C922      1.0  0.66647  0.12323  0.31726  1.0000
  H   H919      1.0  0.64288  0.21535  0.37162  1.0000
  C   C923      1.0  0.73737  0.13158  0.47648  1.0000
  H   H920      1.0  0.75257  0.01354  0.49613  1.0000
  C   C924      1.0  0.69874  0.03455  0.39879  1.0000
  H   H921      1.0  0.75735  0.20453  0.47275  1.0000
  N   N74       1.0  0.69862  0.01586  0.39427  1.0000
  C   C925      1.0  0.68706  0.10948  0.61942  1.0000
  C   C926      1.0  0.67141  0.10407  0.63303  1.0000
  H   H922      1.0  0.53717  0.04479  0.32367  1.0000
  C   C927      1.0  0.70658  0.21817  0.62159  1.0000
  C   C928      1.0  0.71722  0.20033  0.62774  1.0000
  S   S323      1.0  0.79021  0.22174  0.40371  1.0000
  H   H923      1.0  0.72643  0.21979  0.54370  1.0000
  H   H924      1.0  0.49497  0.10117  0.33035  1.0000
  H   H925      1.0  0.76365  0.99119  0.52422  1.0000
  C   C929      1.0  0.49882  0.06077  0.37377  1.0000
  S   S324      1.0  0.49335  0.00345  0.33027  1.0000
  H   H926      1.0  0.68637  0.03800  0.41022  1.0000
  S   S325      1.0  0.64084  0.05787  0.30747  1.0000
  H   H927      1.0  0.72683  0.13160  0.32058  1.0000
  S   S326      1.0  0.67923  0.17459  0.31717  1.0000
  H   H928      1.0  0.54609  0.15061  0.31555  1.0000
  C   C930      1.0  0.71521  0.11137  0.31055  1.0000
  S   S327      1.0  0.74998  0.22665  0.63261  1.0000
  C   C931      1.0  0.71150  0.09275  0.31405  1.0000
  H   H929      1.0  0.71086  0.22608  0.60752  1.0000
  C   C932      1.0  0.67340  0.15558  0.30941  1.0000
  H   H930      1.0  0.61148  0.15508  0.30942  1.0000
  S   S328      1.0  0.50054  0.22488  0.30822  1.0000
  S   S329      1.0  0.57029  0.10581  0.68281  1.0000
  S   S330      1.0  0.61754  0.12535  0.73874  1.0000
  S   S331      1.0  0.61526  0.12172  0.68897  1.0000
  H   H931      1.0  0.72014  0.17677  0.65099  1.0000
  H   H932      1.0  0.68101  0.21958  0.76739  1.0000
  Fe  Fe166     1.0  0.65173  0.22327  0.72084  1.0000
  C   C933      1.0  0.57780  0.21935  0.71068  1.0000
  S   S332      1.0  0.66413  0.19406  0.71333  1.0000
  C   C934      1.0  0.69655  0.07983  0.67263  1.0000
  H   H933      1.0  0.51174  0.00035  0.70520  1.0000
  N   N75       1.0  0.56287  0.15466  0.72221  1.0000
  C   C935      1.0  0.52993  0.15753  0.73844  1.0000
  C   C936      1.0  0.51231  0.14806  0.68679  1.0000
  C   C937      1.0  0.60788  0.03789  0.67177  1.0000
  H   H934      1.0  0.63321  0.19022  0.79103  1.0000
  C   C938      1.0  0.64688  0.19125  0.78153  1.0000
  H   H935      1.0  0.65897  0.99685  0.70212  1.0000
  S   S333      1.0  0.54748  0.20715  0.70257  1.0000
  H   H936      1.0  0.69185  0.19135  0.67239  1.0000
  H   H937      1.0  0.60203  0.06523  0.65355  1.0000
  H   H938      1.0  0.51756  0.16551  0.74647  1.0000
  Fe  Fe167     1.0  0.64146  0.10297  0.67622  1.0000
  C   C939      1.0  0.57326  0.00402  0.69342  1.0000
  C   C940      1.0  0.65485  0.17769  0.76983  1.0000
  H   H939      1.0  0.57387  0.13001  0.70920  1.0000
  C   C941      1.0  0.71655  0.10383  0.65611  1.0000
  C   C942      1.0  0.54450  0.13023  0.72338  1.0000
  H   H940      1.0  0.58608  0.20550  0.70850  1.0000
  H   H941      1.0  0.59347  0.15145  0.71302  1.0000
  H   H942      1.0  0.67826  0.05874  0.68561  1.0000
  H   H943      1.0  0.70486  0.11624  0.65332  1.0000
  C   C943      1.0  0.57037  0.03441  0.67116  1.0000
  H   H944      1.0  0.54370  0.11676  0.71966  1.0000
  H   H945      1.0  0.59230  0.00384  0.73859  1.0000
  S   S334      1.0  0.64708  0.03616  0.70588  1.0000
  Fe  Fe168     1.0  0.51506  0.21386  0.70825  1.0000
  H   H946      1.0  0.60851  0.03223  0.72736  1.0000
  H   H947      1.0  0.60920  0.01053  0.68998  1.0000
  C   C944      1.0  0.56162  0.13776  0.71753  1.0000
  C   C945      1.0  0.56263  0.07024  0.70092  1.0000
  H   H948      1.0  0.69777  0.19538  0.72865  1.0000
  H   H949      1.0  0.55554  0.03335  0.67112  1.0000
  C   C946      1.0  0.52856  0.14022  0.73392  1.0000
  H   H950      1.0  0.57940  0.17287  0.70173  1.0000
  H   H951      1.0  0.65035  0.21707  0.78959  1.0000
  N   N76       1.0  0.68146  0.19440  0.75649  1.0000
  C   C947      1.0  0.70704  0.06037  0.64232  1.0000
  C   C948      1.0  0.61596  0.01841  0.72416  1.0000
  N   N77       1.0  0.58145  0.02054  0.68203  1.0000
  C   C949      1.0  0.55654  0.08754  0.68939  1.0000
  C   C950      1.0  0.53924  0.09036  0.68259  1.0000
  C   C951      1.0  0.52814  0.07588  0.68705  1.0000
  C   C952      1.0  0.53420  0.05848  0.69835  1.0000
  C   C953      1.0  0.55139  0.05572  0.70549  1.0000
  H   H952      1.0  0.53466  0.10359  0.67342  1.0000
  C   C954      1.0  0.60682  0.00229  0.73052  1.0000
  C   C955      1.0  0.62972  0.14501  0.73092  1.0000
  C   C956      1.0  0.64603  0.14426  0.71663  1.0000
  C   C957      1.0  0.65625  0.15956  0.71116  1.0000
  C   C958      1.0  0.64989  0.17596  0.71950  1.0000
  C   C959      1.0  0.63315  0.17708  0.73330  1.0000
  C   C960      1.0  0.62326  0.16147  0.73923  1.0000
  H   H953      1.0  0.65104  0.13168  0.71008  1.0000
  H   H954      1.0  0.66915  0.15863  0.70045  1.0000
  H   H955      1.0  0.62807  0.18975  0.73969  1.0000
  H   H956      1.0  0.61057  0.16214  0.75020  1.0000
  S   S335      1.0  0.62515  0.08032  0.67515  1.0000
  C   C961      1.0  0.64436  0.99843  0.71000  1.0000
  H   H957      1.0  0.52187  0.15900  0.68236  1.0000
  C   C962      1.0  0.63483  0.01649  0.71396  1.0000
  C   C963      1.0  0.61634  0.98425  0.72645  1.0000
  S   S336      1.0  0.65021  0.08917  0.70424  1.0000
  H   H958      1.0  0.54812  0.17820  0.73575  1.0000
  H   H959      1.0  0.67814  0.16913  0.74798  1.0000
  S   S337      1.0  0.52115  0.03971  0.70223  1.0000
  H   H960      1.0  0.69181  0.08781  0.68421  1.0000
  S   S338      1.0  0.49918  0.21311  0.73808  1.0000
  C   C964      1.0  0.59642  0.05248  0.66123  1.0000
  H   H961      1.0  0.56846  0.06210  0.65292  1.0000
  C   C965      1.0  0.69390  0.05388  0.65810  1.0000
  C   C966      1.0  0.57760  0.05068  0.66077  1.0000
  H   H962      1.0  0.49706  0.18115  0.66689  1.0000
  C   C967      1.0  0.67229  0.17947  0.75738  1.0000
  C   C968      1.0  0.68870  0.06356  0.67342  1.0000
  Fe  Fe169     1.0  0.59971  0.09764  0.69083  1.0000
  H   H963      1.0  0.55616  0.04230  0.71430  1.0000
  Fe  Fe170     1.0  0.63232  0.06722  0.70398  1.0000
  H   H964      1.0  0.55811  0.00866  0.70028  1.0000
  C   C969      1.0  0.54727  0.16459  0.73241  1.0000
  C   C970      1.0  0.55837  0.22401  0.70853  1.0000
  C   C971      1.0  0.60017  0.02183  0.68195  1.0000
  Fe  Fe171     1.0  0.62252  0.10619  0.71700  1.0000
  C   C972      1.0  0.67385  0.20765  0.76807  1.0000
  H   H965      1.0  0.51512  0.13468  0.73855  1.0000
  S   S339      1.0  0.66358  0.11547  0.65292  1.0000
  H   H966      1.0  0.62255  0.03910  0.67231  1.0000
  S   S340      1.0  0.60526  0.08288  0.71979  1.0000
  H   H967      1.0  0.51522  0.07802  0.68119  1.0000
  H   H968      1.0  0.57604  0.06796  0.70618  1.0000
  H   H969      1.0  0.52188  0.13385  0.68706  1.0000
  C   C973      1.0  0.65647  0.20628  0.78074  1.0000
  H   H970      1.0  0.65701  0.21767  0.66673  1.0000
  C   C974      1.0  0.58060  0.16278  0.71531  1.0000
  H   H971      1.0  0.58321  0.17057  0.72578  1.0000
  H   H972      1.0  0.68742  0.04164  0.65830  1.0000
  H   H973      1.0  0.70461  0.20955  0.74250  1.0000
  H   H974      1.0  0.64741  0.16607  0.77008  1.0000
  N   N78       1.0  0.70945  0.08608  0.65712  1.0000
  H   H975      1.0  0.50421  0.14913  0.70134  1.0000
  H   H976      1.0  0.49426  0.01720  0.73161  1.0000
  C   C975      1.0  0.71186  0.19057  0.64607  1.0000
  C   C976      1.0  0.69968  0.19587  0.74321  1.0000
  H   H977      1.0  0.60148  0.22871  0.71776  1.0000
  H   H978      1.0  0.72915  0.22186  0.67054  1.0000
  H   H979      1.0  0.65087  0.08491  0.64131  1.0000
  H   H980      1.0  0.71112  0.18385  0.74759  1.0000
  H   H981      1.0  0.49631  0.12125  0.67914  1.0000
  S   S341      1.0  0.49895  0.19399  0.70116  1.0000
  C   C977      1.0  0.69597  0.19892  0.65809  1.0000
  H   H982      1.0  0.67352  0.22353  0.67918  1.0000
  H   H983      1.0  0.72109  0.10399  0.66963  1.0000
  H   H984      1.0  0.57355  0.99355  0.68429  1.0000
  C   C978      1.0  0.66949  0.22502  0.66504  1.0000
  C   C979      1.0  0.50262  0.99306  0.71708  1.0000
  H   H985      1.0  0.72921  0.10553  0.64451  1.0000
  N   N79       1.0  0.49863  0.15081  0.67377  1.0000
  H   H986      1.0  0.58144  0.99676  0.70505  1.0000
  N   N80       1.0  0.68589  0.21658  0.65205  1.0000
  C   C980      1.0  0.71478  0.07656  0.64212  1.0000
  C   C981      1.0  0.49282  0.00255  0.73194  1.0000
  H   H987      1.0  0.67425  0.41697  0.03066  1.0000
  N   N81       1.0  0.76230  0.39869  0.00047  1.0000
  C   C982      1.0  0.57770  0.36003  0.98696  1.0000
  Fe  Fe172     1.0  0.68750  0.37340  0.00226  1.0000
  S   S342      1.0  0.65692  0.38687  0.99942  1.0000
  S   S343      1.0  0.69906  0.37782  0.02719  1.0000
  Fe  Fe173     1.0  0.65676  0.36085  0.98761  1.0000
  H   H988      1.0  0.53863  0.30404  0.21491  1.0000
  C   C983      1.0  0.68053  0.46637  0.98802  1.0000
  N   N82       1.0  0.70693  0.28063  0.26976  1.0000
  S   S344      1.0  0.68643  0.34625  0.99268  1.0000
  H   H989      1.0  0.56205  0.35657  0.03754  1.0000
  Fe  Fe174     1.0  0.74724  0.45989  0.02877  1.0000
  H   H990      1.0  0.82262  0.45703  0.23209  1.0000
  S   S345      1.0  0.74771  0.44537  0.05910  1.0000
  H   H991      1.0  0.72218  0.26592  0.24715  1.0000
  C   C984      1.0  0.83122  0.48234  0.23624  1.0000
  S   S346      1.0  0.73580  0.44663  0.00931  1.0000
  Fe  Fe175     1.0  0.63285  0.37743  0.14973  1.0000
  S   S347      1.0  0.64136  0.34572  0.15690  1.0000
  S   S348      1.0  0.60286  0.39035  0.14383  1.0000
  Fe  Fe176     1.0  0.67475  0.38418  0.14440  1.0000
  S   S349      1.0  0.68640  0.35260  0.15097  1.0000
  S   S350      1.0  0.69393  0.40651  0.13150  1.0000
  Fe  Fe177     1.0  0.66604  0.34951  0.13267  1.0000
  S   S351      1.0  0.66981  0.33286  0.10906  1.0000
  Fe  Fe178     1.0  0.66048  0.35194  0.17460  1.0000
  S   S352      1.0  0.65815  0.33853  0.20585  1.0000
  S   S353      1.0  0.65636  0.38082  0.12453  1.0000
  S   S354      1.0  0.65009  0.38393  0.16908  1.0000
  C   C985      1.0  0.81472  0.48108  0.21060  1.0000
  S   S355      1.0  0.55481  0.39401  0.97515  1.0000
  H   H992      1.0  0.71660  0.25093  0.26935  1.0000
  H   H993      1.0  0.78293  0.42590  0.10871  1.0000
  Fe  Fe179     1.0  0.71867  0.47583  0.00207  1.0000
  C   C986      1.0  0.52951  0.24535  0.25570  1.0000
  H   H994      1.0  0.51419  0.29294  0.25472  1.0000
  H   H995      1.0  0.69375  0.27264  0.20458  1.0000
  C   C987      1.0  0.57149  0.36712  0.03259  1.0000
  C   C988      1.0  0.63083  0.25676  0.24591  1.0000
  Fe  Fe180     1.0  0.86782  0.47361  0.30097  1.0000
  S   S356      1.0  0.72706  0.44851  0.18197  1.0000
  S   S357      1.0  0.77930  0.45790  0.16061  1.0000
  C   C989      1.0  0.77751  0.47332  0.09260  1.0000
  C   C990      1.0  0.53573  0.24567  0.23627  1.0000
  C   C991      1.0  0.57687  0.37930  0.97867  1.0000
  C   C992      1.0  0.61175  0.35718  0.98765  1.0000
  C   C993      1.0  0.78329  0.47474  0.07291  1.0000
  Fe  Fe181     1.0  0.50673  0.34232  0.13423  1.0000
  H   H996      1.0  0.78256  0.42414  0.14283  1.0000
  H   H997      1.0  0.52125  0.35752  0.03571  1.0000
  H   H998      1.0  0.60843  0.28164  0.26672  1.0000
  C   C994      1.0  0.52513  0.29814  0.21701  1.0000
  S   S358      1.0  0.65408  0.25981  0.29207  1.0000
  S   S359      1.0  0.52949  0.34757  0.98689  1.0000
  Fe  Fe182     1.0  0.51257  0.34583  0.17322  1.0000
  S   S360      1.0  0.52303  0.32267  0.15589  1.0000
  S   S361      1.0  0.53457  0.34780  0.19018  1.0000
  C   C995      1.0  0.63024  0.28532  0.22105  1.0000
  C   C996      1.0  0.77368  0.46687  0.06242  1.0000
  H   H999      1.0  0.73734  0.39130  0.15713  1.0000
  H   H1000     1.0  0.59683  0.34697  0.03964  1.0000
  H   H1001     1.0  0.62390  0.38276  0.97594  1.0000
  C   C997      1.0  0.49754  0.34444  0.05225  1.0000
  C   C998      1.0  0.53405  0.26317  0.22372  1.0000
  H   H1002     1.0  0.77092  0.39475  0.17719  1.0000
  H   H1003     1.0  0.59564  0.33414  0.99819  1.0000
  S   S362      1.0  0.68715  0.48086  0.00093  1.0000
  Fe  Fe183     1.0  0.78480  0.47844  0.17726  1.0000
  C   C999      1.0  0.52174  0.26247  0.26234  1.0000
  H   H1004     1.0  0.95788  0.45996  0.29580  1.0000
  C   C1000     1.0  0.60344  0.37493  0.02703  1.0000
  H   H1005     1.0  0.70481  0.45925  0.06733  1.0000
  C   C1001     1.0  0.72109  0.26490  0.26270  1.0000
  C   C1002     1.0  0.68925  0.31272  0.26430  1.0000
  H   H1006     1.0  0.64000  0.27683  0.21129  1.0000
  H   H1007     1.0  0.69381  0.42927  0.01921  1.0000
  C   C1003     1.0  0.62461  0.30491  0.21480  1.0000
  C   C1004     1.0  0.60708  0.30776  0.24629  1.0000
  H   H1008     1.0  0.76285  0.42036  0.17472  1.0000
  H   H1009     1.0  0.74545  0.40505  0.18085  1.0000
  C   C1005     1.0  0.77267  0.41712  0.13860  1.0000
  C   C1006     1.0  0.68557  0.29365  0.29567  1.0000
  S   S363      1.0  0.50111  0.38813  0.99603  1.0000
  N   N83       1.0  0.52632  0.27989  0.23035  1.0000
  H   H1010     1.0  0.67266  0.40682  0.06335  1.0000
  H   H1011     1.0  0.73550  0.26499  0.26585  1.0000
  C   C1007     1.0  0.74247  0.39423  0.03134  1.0000
  C   C1008     1.0  0.58395  0.37864  0.15709  1.0000
  C   C1009     1.0  0.58673  0.36458  0.17306  1.0000
  C   C1010     1.0  0.57143  0.35531  0.18328  1.0000
  C   C1011     1.0  0.55344  0.35977  0.17733  1.0000
  C   C1012     1.0  0.55075  0.37366  0.16124  1.0000
  C   C1013     1.0  0.56591  0.38322  0.15127  1.0000
  H   H1012     1.0  0.60055  0.36113  0.17774  1.0000
  H   H1013     1.0  0.57352  0.34467  0.19579  1.0000
  H   H1014     1.0  0.53688  0.37728  0.15666  1.0000
  H   H1015     1.0  0.56369  0.39414  0.13898  1.0000
  C   C1014     1.0  0.66640  0.31453  0.21550  1.0000
  C   C1015     1.0  0.66057  0.30832  0.23497  1.0000
  C   C1016     1.0  0.66636  0.28931  0.24341  1.0000
  C   C1017     1.0  0.67846  0.27637  0.23260  1.0000
  C   C1018     1.0  0.68437  0.28256  0.21309  1.0000
  C   C1019     1.0  0.67820  0.30155  0.20450  1.0000
  H   H1016     1.0  0.65136  0.31827  0.24354  1.0000
  H   H1017     1.0  0.66176  0.28489  0.25838  1.0000
  C   C1020     1.0  0.74674  0.39211  0.01229  1.0000
  H   H1018     1.0  0.68276  0.30620  0.18946  1.0000
  C   C1021     1.0  0.71650  0.43825  0.16776  1.0000
  C   C1022     1.0  0.71963  0.44335  0.14799  1.0000
  C   C1023     1.0  0.71189  0.43405  0.13709  1.0000
  C   C1024     1.0  0.70124  0.41942  0.14583  1.0000
  C   C1025     1.0  0.69786  0.41453  0.16560  1.0000
  C   C1026     1.0  0.70542  0.42397  0.17651  1.0000
  H   H1019     1.0  0.72806  0.45439  0.14112  1.0000
  H   H1020     1.0  0.71451  0.43793  0.12182  1.0000
  H   H1021     1.0  0.68962  0.40333  0.17248  1.0000
  H   H1022     1.0  0.70287  0.42003  0.19182  1.0000
  C   C1027     1.0  0.75848  0.45721  0.07164  1.0000
  C   C1028     1.0  0.75237  0.45623  0.09125  1.0000
  C   C1029     1.0  0.76175  0.46442  0.10170  1.0000
  C   C1030     1.0  0.76016  0.40936  0.11363  1.0000
  H   H1023     1.0  0.77864  0.41773  0.03120  1.0000
  H   H1024     1.0  0.76421  0.38256  0.97879  1.0000
  H   H1025     1.0  0.74045  0.44902  0.09840  1.0000
  H   H1026     1.0  0.66983  0.44275  0.02495  1.0000
  C   C1031     1.0  0.52146  0.29925  0.99136  1.0000
  H   H1027     1.0  0.54045  0.40496  0.01432  1.0000
  C   C1032     1.0  0.56901  0.23781  0.29919  1.0000
  C   C1033     1.0  0.69889  0.27869  0.28859  1.0000
  H   H1028     1.0  0.75712  0.46337  0.11686  1.0000
  Fe  Fe184     1.0  0.52968  0.37907  0.97805  1.0000
  C   C1034     1.0  0.51214  0.34744  0.08425  1.0000
  H   H1029     1.0  0.73742  0.38525  0.00700  1.0000
  H   H1030     1.0  0.69656  0.43529  0.09620  1.0000
  Fe  Fe185     1.0  0.75914  0.45785  0.98678  1.0000
  H   H1031     1.0  0.53995  0.38036  0.01566  1.0000
  H   H1032     1.0  0.68540  0.32585  0.25454  1.0000
  C   C1035     1.0  0.69060  0.36524  0.04981  1.0000
  C   C1036     1.0  0.67959  0.35093  0.05198  1.0000
  C   C1037     1.0  0.67335  0.34094  0.07020  1.0000
  C   C1038     1.0  0.67766  0.34554  0.08633  1.0000
  C   C1039     1.0  0.68835  0.36009  0.08415  1.0000
  C   C1040     1.0  0.69505  0.36968  0.06595  1.0000
  H   H1033     1.0  0.67621  0.34729  0.03962  1.0000
  H   H1034     1.0  0.66520  0.32960  0.07180  1.0000
  H   H1035     1.0  0.69193  0.36356  0.09650  1.0000
  H   H1036     1.0  0.70372  0.38052  0.06446  1.0000
  H   H1037     1.0  0.75980  0.41062  0.09866  1.0000
  H   H1038     1.0  0.53482  0.39028  0.03729  1.0000
  C   C1041     1.0  0.57645  0.39850  0.01769  1.0000
  Fe  Fe186     1.0  0.63546  0.23725  0.29871  1.0000
  H   H1039     1.0  0.61992  0.25049  0.25737  1.0000
  H   H1040     1.0  0.56260  0.25174  0.30277  1.0000
  Fe  Fe187     1.0  0.67384  0.24073  0.27327  1.0000
  H   H1041     1.0  0.68043  0.40902  0.09414  1.0000
  C   C1042     1.0  0.77378  0.40769  0.00710  1.0000
  H   H1042     1.0  0.51278  0.30889  0.22224  1.0000
  S   S364      1.0  0.60374  0.24828  0.29810  1.0000
  Fe  Fe188     1.0  0.74783  0.46925  0.16929  1.0000
  S   S365      1.0  0.80421  0.46740  0.19952  1.0000
  C   C1043     1.0  0.61306  0.31619  0.22754  1.0000
  C   C1044     1.0  0.75985  0.40681  0.17216  1.0000
  H   H1043     1.0  0.63365  0.24846  0.23422  1.0000
  C   C1045     1.0  0.74761  0.39865  0.14658  1.0000
  N   N84       1.0  0.60127  0.35704  0.11484  1.0000
  C   C1046     1.0  0.59706  0.34369  0.13066  1.0000
  C   C1047     1.0  0.58726  0.36642  0.10446  1.0000
  C   C1048     1.0  0.57839  0.33938  0.13637  1.0000
  C   C1049     1.0  0.56848  0.36236  0.10969  1.0000
  C   C1050     1.0  0.56409  0.34874  0.12573  1.0000
  C   C1051     1.0  0.62090  0.36129  0.10866  1.0000
  H   H1044     1.0  0.60803  0.33658  0.13916  1.0000
  H   H1045     1.0  0.59056  0.37723  0.09215  1.0000
  H   H1046     1.0  0.57488  0.32923  0.14921  1.0000
  H   H1047     1.0  0.55726  0.36979  0.10158  1.0000
  H   H1048     1.0  0.54950  0.34578  0.13007  1.0000
  H   H1049     1.0  0.63044  0.35389  0.11905  1.0000
  H   H1050     1.0  0.62755  0.35652  0.09495  1.0000
  H   H1051     1.0  0.62064  0.37687  0.10724  1.0000
  H   H1052     1.0  0.75066  0.40551  0.05287  1.0000
  Fe  Fe189     1.0  0.49989  0.35674  0.00306  1.0000
  S   S366      1.0  0.68688  0.25264  0.24316  1.0000
  H   H1053     1.0  0.60922  0.33152  0.22297  1.0000
  H   H1054     1.0  0.53413  0.36024  0.06393  1.0000
  H   H1055     1.0  0.78585  0.41335  0.99765  1.0000
  H   H1056     1.0  0.59832  0.31645  0.25639  1.0000
  C   C1052     1.0  0.59515  0.34895  0.99138  1.0000
  C   C1053     1.0  0.52038  0.27973  0.24941  1.0000
  C   C1054     1.0  0.74747  0.39943  0.12735  1.0000
  N   N85       1.0  0.75984  0.40776  0.15196  1.0000
  H   H1057     1.0  0.73011  0.38897  0.04059  1.0000
  H   H1058     1.0  0.67023  0.32235  0.28870  1.0000
  C   C1055     1.0  0.59108  0.36163  0.03395  1.0000
  H   H1059     1.0  0.77851  0.46770  0.04729  1.0000
  N   N86       1.0  0.62411  0.27712  0.23939  1.0000
  C   C1056     1.0  0.61284  0.28808  0.25203  1.0000
  N   N87       1.0  0.68451  0.43146  0.04827  1.0000
  C   C1057     1.0  0.67975  0.41834  0.06412  1.0000
  C   C1058     1.0  0.69318  0.44615  0.04936  1.0000
  C   C1059     1.0  0.68406  0.41950  0.08156  1.0000
  C   C1060     1.0  0.69768  0.44774  0.06657  1.0000
  C   C1061     1.0  0.69313  0.43427  0.08274  1.0000
  C   C1062     1.0  0.68032  0.43002  0.02993  1.0000
  H   H1060     1.0  0.53654  0.29676  0.99279  1.0000
  H   H1061     1.0  0.69664  0.45675  0.03687  1.0000
  H   H1062     1.0  0.70261  0.26548  0.29829  1.0000
  H   H1063     1.0  0.60573  0.40377  0.01290  1.0000
  H   H1064     1.0  0.92666  0.47980  0.28889  1.0000
  H   H1065     1.0  0.70874  0.29900  0.24271  1.0000
  C   C1063     1.0  0.50706  0.30549  0.00584  1.0000
  H   H1066     1.0  0.51084  0.30783  0.01867  1.0000
  C   C1064     1.0  0.70248  0.29746  0.25769  1.0000
  C   C1065     1.0  0.59610  0.39352  0.01891  1.0000
  H   H1067     1.0  0.65102  0.48108  0.99064  1.0000
  C   C1066     1.0  0.75407  0.40336  0.03823  1.0000
  H   H1068     1.0  0.61881  0.37060  0.02726  1.0000
  H   H1069     1.0  0.70881  0.44921  0.98279  1.0000
  H   H1070     1.0  0.53857  0.26326  0.20860  1.0000
  C   C1067     1.0  0.52133  0.35403  0.06580  1.0000
  C   C1068     1.0  0.76985  0.41015  0.02607  1.0000
  C   C1069     1.0  0.76593  0.39694  0.98040  1.0000
  S   S367      1.0  0.52212  0.34926  0.10378  1.0000
  C   C1070     1.0  0.54390  0.39053  0.02298  1.0000
  C   C1071     1.0  0.51404  0.35259  0.04986  1.0000
  H   H1071     1.0  0.73709  0.39292  0.12319  1.0000
  H   H1072     1.0  0.52280  0.29637  0.20298  1.0000
  H   H1073     1.0  0.90616  0.46694  0.22391  1.0000
  C   C1072     1.0  0.77303  0.41805  0.11926  1.0000
  H   H1074     1.0  0.64443  0.25497  0.25147  1.0000
  S   S368      1.0  0.63291  0.34373  0.99498  1.0000
  H   H1075     1.0  0.62996  0.31151  0.20042  1.0000
  C   C1073     1.0  0.69400  0.45164  0.98072  1.0000
  H   H1076     1.0  0.57101  0.41276  0.01070  1.0000
  C   C1074     1.0  0.68068  0.31072  0.28341  1.0000
  C   C1075     1.0  0.82286  0.47207  0.22678  1.0000
  C   C1076     1.0  0.95650  0.47537  0.29228  1.0000
  S   S369      1.0  0.77225  0.46842  0.00691  1.0000
  S   S370      1.0  0.49802  0.36654  0.15074  1.0000
  H   H1077     1.0  0.56484  0.35378  0.99057  1.0000
  H   H1078     1.0  0.83731  0.47521  0.24874  1.0000
  N   N88       1.0  0.56444  0.38533  0.02446  1.0000
  H   H1079     1.0  0.51648  0.26229  0.27739  1.0000
  C   C1077     1.0  0.61112  0.37629  0.97882  1.0000
  S   S371      1.0  0.49610  0.28095  0.18162  1.0000
  C   C1078     1.0  0.49556  0.33939  0.08666  1.0000
  H   H1080     1.0  0.49963  0.24337  0.20461  1.0000
  Fe  Fe190     1.0  0.49524  0.31256  0.16973  1.0000
  H   H1081     1.0  0.93255  0.47425  0.23700  1.0000
  C   C1079     1.0  0.66144  0.46964  0.98505  1.0000
  C   C1080     1.0  0.49347  0.25364  0.21396  1.0000
  C   C1081     1.0  0.51630  0.29667  0.97481  1.0000
  C   C1082     1.0  0.90604  0.48143  0.22565  1.0000
  C   C1083     1.0  0.65576  0.45820  0.97480  1.0000
  C   C1084     1.0  0.59367  0.38735  0.97435  1.0000
  H   H1082     1.0  0.79544  0.48167  0.06579  1.0000
  S   S372      1.0  0.79047  0.48244  0.10548  1.0000
  Fe  Fe191     1.0  0.88313  0.35082  0.61410  1.0000
  Fe  Fe192     1.0  0.87534  0.35153  0.57441  1.0000
  S   S373      1.0  0.89149  0.32183  0.57323  1.0000
  S   S374      1.0  0.86242  0.36781  0.54893  1.0000
  Fe  Fe193     1.0  0.87647  0.31475  0.60316  1.0000
  Fe  Fe194     1.0  0.91326  0.33117  0.58548  1.0000
  S   S375      1.0  0.94403  0.32845  0.57029  1.0000
  S   S376      1.0  0.85845  0.34390  0.60366  1.0000
  S   S377      1.0  0.89803  0.36149  0.58482  1.0000
  S   S378      1.0  0.75850  0.26147  0.58227  1.0000
  H   H1083     1.0  0.82354  0.24994  0.59453  1.0000
  H   H1084     1.0  0.98814  0.31220  0.52972  1.0000
  C   C1085     1.0  0.82971  0.45588  0.37846  1.0000
  Fe  Fe195     1.0  0.89452  0.35156  0.44611  1.0000
  S   S379      1.0  0.89383  0.32471  0.43623  1.0000
  S   S380      1.0  0.91002  0.34711  0.47085  1.0000
  Fe  Fe196     1.0  0.87867  0.37701  0.41173  1.0000
  S   S381      1.0  0.87343  0.40874  0.39954  1.0000
  Fe  Fe197     1.0  0.86483  0.33901  0.42899  1.0000
  S   S382      1.0  0.83948  0.32315  0.44108  1.0000
  S   S383      1.0  0.86454  0.36513  0.44124  1.0000
  S   S384      1.0  0.90855  0.36569  0.41795  1.0000
  C   C1086     1.0  0.72013  0.25773  0.63366  1.0000
  H   H1085     1.0  0.92866  0.31063  0.45518  1.0000
  H   H1086     1.0  0.68297  0.24024  0.62930  1.0000
  C   C1087     1.0  0.80710  0.30813  0.61853  1.0000
  C   C1088     1.0  0.78491  0.29246  0.60943  1.0000
  H   H1087     1.0  0.84589  0.28231  0.53769  1.0000
  C   C1089     1.0  0.84731  0.29180  0.52407  1.0000
  C   C1090     1.0  0.83056  0.29467  0.57235  1.0000
  H   H1088     1.0  0.81508  0.31981  0.61609  1.0000
  C   C1091     1.0  0.98310  0.29085  0.45286  1.0000
  C   C1092     1.0  0.84118  0.26660  0.60255  1.0000
  S   S385      1.0  0.87699  0.35187  0.39904  1.0000
  H   H1089     1.0  0.87246  0.40374  0.33379  1.0000
  C   C1093     1.0  0.83413  0.29284  0.40222  1.0000
  H   H1090     1.0  0.85875  0.32142  0.54187  1.0000
  C   C1094     1.0  0.83957  0.30131  0.49252  1.0000
  N   N89       1.0  0.94336  0.39566  0.38464  1.0000
  H   H1091     1.0  0.97010  0.30395  0.37887  1.0000
  H   H1092     1.0  0.76269  0.28004  0.44713  1.0000
  C   C1095     1.0  0.84077  0.30505  0.41102  1.0000
  C   C1096     1.0  0.83365  0.30612  0.43012  1.0000
  C   C1097     1.0  0.82037  0.29438  0.44049  1.0000
  C   C1098     1.0  0.81382  0.28208  0.43171  1.0000
  H   H1093     1.0  0.85097  0.31401  0.40287  1.0000
  H   H1094     1.0  0.81476  0.29513  0.45527  1.0000
  H   H1095     1.0  0.80333  0.27340  0.43973  1.0000
  S   S386      1.0  0.75736  0.25966  0.40838  1.0000
  H   H1096     1.0  0.76824  0.31876  0.45585  1.0000
  C   C1099     1.0  0.87423  0.40526  0.36248  1.0000
  C   C1100     1.0  0.87495  0.41716  0.37491  1.0000
  C   C1101     1.0  0.87566  0.43658  0.36786  1.0000
  C   C1102     1.0  0.87489  0.44425  0.34866  1.0000
  H   H1097     1.0  0.87631  0.44585  0.37740  1.0000
  C   C1103     1.0  0.71115  0.26740  0.51340  1.0000
  C   C1104     1.0  0.95886  0.36648  0.37339  1.0000
  H   H1098     1.0  0.72562  0.26243  0.61884  1.0000
  H   H1099     1.0  0.93003  0.29692  0.42724  1.0000
  C   C1105     1.0  0.95606  0.33236  0.41238  1.0000
  C   C1106     1.0  0.97230  0.28476  0.44219  1.0000
  C   C1107     1.0  0.97606  0.38212  0.38876  1.0000
  C   C1108     1.0  0.82612  0.47322  0.34768  1.0000
  C   C1109     1.0  0.82883  0.43885  0.37294  1.0000
  C   C1110     1.0  0.72781  0.26019  0.48261  1.0000
  H   H1100     1.0  0.95821  0.35467  0.36674  1.0000
  C   C1111     1.0  0.85968  0.31797  0.50334  1.0000
  H   H1101     1.0  0.79223  0.31979  0.59485  1.0000
  C   C1112     1.0  0.94269  0.38081  0.37615  1.0000
  C   C1113     1.0  0.87538  0.36175  0.52723  1.0000
  C   C1114     1.0  0.89355  0.35004  0.52634  1.0000
  C   C1115     1.0  0.90392  0.34547  0.50897  1.0000
  C   C1116     1.0  0.89628  0.35278  0.49231  1.0000
  C   C1117     1.0  0.87817  0.36461  0.49306  1.0000
  C   C1118     1.0  0.86771  0.36905  0.51054  1.0000
  H   H1102     1.0  0.89999  0.34502  0.53890  1.0000
  H   H1103     1.0  0.91802  0.33648  0.50843  1.0000
  H   H1104     1.0  0.87227  0.37043  0.48020  1.0000
  H   H1105     1.0  0.85371  0.37825  0.51114  1.0000
  H   H1106     1.0  0.84813  0.31134  0.58035  1.0000
  H   H1107     1.0  0.98897  0.38272  0.39395  1.0000
  S   S387      1.0  0.86313  0.28798  0.61306  1.0000
  C   C1119     1.0  0.74514  0.25371  0.50922  1.0000
  S   S388      1.0  0.90019  0.32092  0.61563  1.0000
  N   N90       1.0  0.82833  0.47278  0.36586  1.0000
  H   H1108     1.0  0.98476  0.37271  0.62378  1.0000
  C   C1120     1.0  0.75416  0.29422  0.44232  1.0000
  C   C1121     1.0  0.81038  0.29257  0.63302  1.0000
  H   H1109     1.0  0.86884  0.29629  0.54675  1.0000
  H   H1110     1.0  0.74498  0.29960  0.45500  1.0000
  Fe  Fe198     1.0  0.90609  0.33972  0.40769  1.0000
  C   C1122     1.0  0.94394  0.30489  0.45452  1.0000
  H   H1111     1.0  0.76357  0.26553  0.62263  1.0000
  H   H1112     1.0  0.87368  0.39027  0.36775  1.0000
  C   C1123     1.0  0.95602  0.45681  0.63734  1.0000
  C   C1124     1.0  0.95461  0.32282  0.39817  1.0000
  H   H1113     1.0  0.82625  0.30572  0.56082  1.0000
  C   C1125     1.0  0.78648  0.33082  0.43095  1.0000
  C   C1126     1.0  0.77418  0.30695  0.41282  1.0000
  C   C1127     1.0  0.84297  0.29788  0.58336  1.0000
  H   H1114     1.0  0.98397  0.44118  0.39474  1.0000
  C   C1128     1.0  0.87349  0.43250  0.33634  1.0000
  C   C1129     1.0  0.92618  0.41042  0.38764  1.0000
  Fe  Fe199     1.0  0.66969  0.24240  0.31530  1.0000
  C   C1130     1.0  0.82043  0.28152  0.41242  1.0000
  H   H1115     1.0  0.82705  0.42592  0.34958  1.0000
  S   S389      1.0  0.81078  0.26828  0.40010  1.0000
  C   C1131     1.0  0.98879  0.30927  0.39592  1.0000
  C   C1132     1.0  0.99033  0.31897  0.40997  1.0000
  H   H1116     1.0  0.77015  0.29707  0.40575  1.0000
  N   N91       1.0  0.93886  0.37186  0.50400  1.0000
  C   C1133     1.0  0.94321  0.36633  0.52190  1.0000
  C   C1134     1.0  0.92217  0.38424  0.50091  1.0000
  C   C1135     1.0  0.93031  0.37269  0.53738  1.0000
  C   C1136     1.0  0.90896  0.39089  0.51608  1.0000
  C   C1137     1.0  0.91302  0.38493  0.53443  1.0000
  C   C1138     1.0  0.95251  0.36502  0.48794  1.0000
  H   H1117     1.0  0.95659  0.35674  0.52435  1.0000
  H   H1118     1.0  0.91866  0.38853  0.48674  1.0000
  H   H1119     1.0  0.93357  0.36788  0.55162  1.0000
  H   H1120     1.0  0.89532  0.40000  0.51374  1.0000
  Fe  Fe200     1.0  0.78803  0.24961  0.41330  1.0000
  H   H1121     1.0  0.96032  0.35034  0.49234  1.0000
  H   H1122     1.0  0.94493  0.36442  0.47636  1.0000
  H   H1123     1.0  0.96333  0.37464  0.48234  1.0000
  H   H1124     1.0  0.74414  0.29228  0.43348  1.0000
  C   C1139     1.0  0.79360  0.33060  0.41174  1.0000
  C   C1140     1.0  0.84835  0.28384  0.59849  1.0000
  C   C1141     1.0  0.69822  0.24594  0.34792  1.0000
  C   C1142     1.0  0.96131  0.32785  0.58415  1.0000
  S   S390      1.0  0.67793  0.25613  0.33677  1.0000
  H   H1125     1.0  0.79352  0.31761  0.38787  1.0000
  C   C1143     1.0  0.82680  0.43914  0.35434  1.0000
  H   H1126     1.0  0.93877  0.32801  0.63802  1.0000
  C   C1144     1.0  0.80062  0.27723  0.63553  1.0000
  H   H1127     1.0  0.87497  0.45929  0.34351  1.0000
  C   C1145     1.0  0.77324  0.31897  0.44078  1.0000
  C   C1146     1.0  0.87348  0.41293  0.34326  1.0000
  S   S391      1.0  0.72613  0.25990  0.45900  1.0000
  N   N92       1.0  0.76715  0.30736  0.43163  1.0000
  C   C1147     1.0  0.85057  0.31576  0.48907  1.0000
  H   H1128     1.0  0.83934  0.29245  0.38730  1.0000
  C   C1148     1.0  0.97108  0.31139  0.38987  1.0000
  H   H1129     1.0  0.79189  0.33948  0.43835  1.0000
  C   C1149     1.0  0.91546  0.40186  0.63221  1.0000
  C   C1150     1.0  0.78739  0.31863  0.40256  1.0000
  C   C1151     1.0  0.82352  0.27739  0.57628  1.0000
  S   S392      1.0  0.93249  0.32473  0.39057  1.0000
  C   C1152     1.0  0.71102  0.26724  0.49438  1.0000
  H   H1130     1.0  0.91707  0.41224  0.37663  1.0000
  Fe  Fe201     1.0  0.78942  0.25132  0.56990  1.0000
  H   H1131     1.0  0.69658  0.28168  0.63528  1.0000
  H   H1132     1.0  0.97961  0.27475  0.43280  1.0000
  H   H1133     1.0  0.97715  0.30375  0.62476  1.0000
  C   C1153     1.0  0.96116  0.31606  0.60192  1.0000
  N   N93       1.0  0.78786  0.27747  0.62398  1.0000
  H   H1134     1.0  0.80453  0.33905  0.40418  1.0000
  S   S393      1.0  0.80880  0.27379  0.56135  1.0000
  H   H1135     1.0  0.94945  0.30817  0.60792  1.0000
  H   H1136     1.0  0.82904  0.27816  0.51325  1.0000
  H   H1137     1.0  0.69771  0.27246  0.48881  1.0000
  H   H1138     1.0  0.85192  0.32526  0.47543  1.0000
  S   S394      1.0  0.72653  0.25990  0.54547  1.0000
  C   C1154     1.0  0.93163  0.34321  0.63547  1.0000
  H   H1139     1.0  0.92676  0.40697  0.62123  1.0000
  H   H1140     1.0  0.86801  0.32934  0.50061  1.0000
  C   C1155     1.0  0.94194  0.28543  0.43164  1.0000
  H   H1141     1.0  0.92956  0.37989  0.37156  1.0000
  H   H1142     1.0  0.96985  0.29199  0.55634  1.0000
  H   H1143     1.0  0.83067  0.42537  0.38275  1.0000
  Fe  Fe202     1.0  0.74997  0.24548  0.43885  1.0000
  H   H1144     1.0  0.88217  0.31221  0.52937  1.0000
  C   C1156     1.0  0.97667  0.33770  0.57629  1.0000
  H   H1145     1.0  0.94349  0.34099  0.41912  1.0000
  N   N94       1.0  0.95303  0.29201  0.44290  1.0000
  H   H1146     1.0  0.93024  0.42452  0.38686  1.0000
  H   H1147     1.0  0.69142  0.26641  0.36681  1.0000
  N   N95       1.0  0.85812  0.30599  0.52052  1.0000
  H   H1148     1.0  0.90256  0.38948  0.54637  1.0000
  H   H1149     1.0  0.83239  0.29954  0.48153  1.0000
  H   H1150     1.0  0.82451  0.45666  0.32696  1.0000
  C   C1157     1.0  0.86740  0.30908  0.53536  1.0000
  C   C1158     1.0  0.97688  0.31347  0.61135  1.0000
  C   C1159     1.0  0.97393  0.33069  0.41804  1.0000
  H   H1151     1.0  0.84530  0.25570  0.61426  1.0000
  C   C1160     1.0  0.82876  0.26337  0.59149  1.0000
  H   H1152     1.0  0.98816  0.35591  0.37803  1.0000
  H   H1153     1.0  0.90815  0.38427  0.61525  1.0000
  H   H1154     1.0  0.75832  0.24844  0.51496  1.0000
  C   C1161     1.0  0.82541  0.45642  0.34161  1.0000
  C   C1162     1.0  0.83782  0.28929  0.51018  1.0000
  C   C1163     1.0  0.74502  0.25360  0.48996  1.0000
  C   C1164     1.0  0.95990  0.35889  0.62860  1.0000
  Fe  Fe203     1.0  0.75128  0.24699  0.56108  1.0000
  H   H1155     1.0  0.97672  0.34673  0.56257  1.0000
  H   H1156     1.0  0.77556  0.29219  0.59966  1.0000
  H   H1157     1.0  0.94714  0.32203  0.47400  1.0000
  H   H1158     1.0  0.97476  0.33799  0.42908  1.0000
  C   C1165     1.0  0.95968  0.39631  0.39116  1.0000
  C   C1166     1.0  0.79432  0.30810  0.60661  1.0000
  C   C1167     1.0  0.72808  0.26052  0.52100  1.0000
  H   H1159     1.0  0.91725  0.40638  0.40174  1.0000
  H   H1160     1.0  0.95113  0.28168  0.41824  1.0000
  H   H1161     1.0  0.96445  0.35320  0.61553  1.0000
  H   H1162     1.0  0.96017  0.40781  0.39829  1.0000
  C   C1168     1.0  0.97137  0.37002  0.63313  1.0000
  S   S395      1.0  0.78185  0.23892  0.54727  1.0000
  C   C1169     1.0  0.95434  0.31138  0.46528  1.0000
  C   C1170     1.0  0.90499  0.38896  0.62880  1.0000
  H   H1163     1.0  0.69793  0.27271  0.52236  1.0000
  H   H1164     1.0  0.94344  0.45592  0.63179  1.0000
  H   H1165     1.0  0.93577  0.27280  0.43996  1.0000
  C   C1171     1.0  0.97163  0.44170  0.63751  1.0000
  C   C1172     1.0  0.77827  0.26101  0.62636  1.0000
  H   H1166     1.0  0.83206  0.45533  0.39273  1.0000
  C   C1173     1.0  0.97564  0.36716  0.37975  1.0000
  C   C1174     1.0  0.70143  0.25410  0.36249  1.0000
  H   H1167     1.0  0.75813  0.24828  0.48095  1.0000
  C   C1175     1.0  0.97408  0.30439  0.46431  1.0000
  H   H1168     1.0  0.78693  0.25083  0.61713  1.0000
  H   H1169     1.0  0.71983  0.25284  0.38278  1.0000
  S   S396      1.0  0.87036  0.44191  0.31264  1.0000
  C   C1176     1.0  0.71752  0.24643  0.37158  1.0000
  Fe  Fe204     1.0  0.76046  0.23267  0.60095  1.0000
  H   H1170     1.0  0.98356  0.27839  0.58577  1.0000
  H   H1171     1.0  0.97128  0.42911  0.63195  1.0000
  S   S397      1.0  0.87771  0.36499  0.63999  1.0000
  C   C1177     1.0  0.98390  0.29451  0.55741  1.0000
  S   S398      1.0  0.78040  0.23713  0.44412  1.0000
  H   H1172     1.0  0.92999  0.34756  0.62031  1.0000
  H   H1173     1.0  0.98248  0.30970  0.47211  1.0000
  N   N96       1.0  0.94308  0.35532  0.64039  1.0000
  S   S399      1.0  0.99275  0.35445  0.44945  1.0000
  S   S400      1.0  0.99058  0.40660  0.42194  1.0000
  H   H1174     1.0  0.67903  0.29191  0.31059  1.0000
  C   C1178     1.0  0.99156  0.28692  0.57396  1.0000
  C   C1179     1.0  0.99250  0.32300  0.60319  1.0000
  C   C1180     1.0  0.99216  0.33547  0.58585  1.0000
  Fe  Fe205     1.0  0.91917  0.43538  0.68123  1.0000
  S   S401      1.0  0.90961  0.42104  0.71109  1.0000
  Fe  Fe206     1.0  0.65829  0.34259  0.82104  1.0000
  C   C1181     1.0  0.71321  0.48185  0.90582  1.0000
  S   S402      1.0  0.91493  0.45990  0.72521  1.0000
  H   H1175     1.0  0.54873  0.26956  0.71704  1.0000
  Fe  Fe207     1.0  0.93347  0.43248  0.71821  1.0000
  S   S403      1.0  0.95276  0.41368  0.73766  1.0000
  Fe  Fe208     1.0  0.89184  0.44973  0.71562  1.0000
  S   S404      1.0  0.86021  0.45365  0.72940  1.0000
  S   S405      1.0  0.94444  0.44450  0.68821  1.0000
  S   S406      1.0  0.89948  0.46327  0.68493  1.0000
  C   C1182     1.0  0.57608  0.25062  0.71837  1.0000
  C   C1183     1.0  0.98517  0.43028  0.72018  1.0000
  S   S407      1.0  0.71696  0.34785  0.94043  1.0000
  Fe  Fe209     1.0  0.75513  0.45040  0.82308  1.0000
  S   S408      1.0  0.77702  0.43435  0.84112  1.0000
  S   S409      1.0  0.74308  0.43211  0.80852  1.0000
  Fe  Fe210     1.0  0.76089  0.45316  0.86212  1.0000
  S   S410      1.0  0.74557  0.44321  0.89180  1.0000
  Fe  Fe211     1.0  0.79368  0.45831  0.82769  1.0000
  S   S411      1.0  0.82608  0.45555  0.81662  1.0000
  H   H1176     1.0  0.92384  0.35992  0.66616  1.0000
  H   H1177     1.0  0.51667  0.24847  0.76922  1.0000
  Fe  Fe212     1.0  0.65766  0.37505  0.84187  1.0000
  S   S412      1.0  0.68066  0.35068  0.83386  1.0000
  S   S413      1.0  0.66283  0.40491  0.84093  1.0000
  Fe  Fe213     1.0  0.62614  0.35005  0.85419  1.0000
  S   S414      1.0  0.59512  0.34738  0.86685  1.0000
  Fe  Fe214     1.0  0.66701  0.33430  0.86124  1.0000
  S   S415      1.0  0.68467  0.31498  0.88206  1.0000
  Fe  Fe215     1.0  0.65143  0.25365  0.74449  1.0000
  S   S416      1.0  0.64526  0.35909  0.87000  1.0000
  S   S417      1.0  0.63621  0.36862  0.82680  1.0000
  C   C1184     1.0  0.96542  0.37768  0.64977  1.0000
  Fe  Fe216     1.0  0.92399  0.47123  0.69428  1.0000
  H   H1178     1.0  0.91842  0.41575  0.78261  1.0000
  S   S418      1.0  0.54563  0.34106  0.80712  1.0000
  C   C1185     1.0  0.90402  0.41421  0.78148  1.0000
  S   S419      1.0  0.64694  0.32364  0.84768  1.0000
  C   C1186     1.0  0.66223  0.31426  0.78610  1.0000
  C   C1187     1.0  0.72205  0.23489  0.66278  1.0000
  C   C1188     1.0  0.88907  0.41465  0.79711  1.0000
  C   C1189     1.0  0.58164  0.34485  0.85032  1.0000
  C   C1190     1.0  0.56382  0.33857  0.85664  1.0000
  C   C1191     1.0  0.55244  0.33760  0.84353  1.0000
  C   C1192     1.0  0.55905  0.34258  0.82406  1.0000
  C   C1193     1.0  0.57694  0.34859  0.81778  1.0000
  C   C1194     1.0  0.58820  0.34974  0.83085  1.0000
  H   H1179     1.0  0.55869  0.33467  0.87169  1.0000
  H   H1180     1.0  0.53867  0.33286  0.84849  1.0000
  H   H1181     1.0  0.58192  0.35272  0.80275  1.0000
  H   H1182     1.0  0.60179  0.35472  0.82583  1.0000
  C   C1195     1.0  0.69348  0.32517  0.89762  1.0000
  C   C1196     1.0  0.68400  0.34242  0.90351  1.0000
  C   C1197     1.0  0.90040  0.41181  0.76425  1.0000
  H   H1183     1.0  0.67132  0.35028  0.89790  1.0000
  Fe  Fe217     1.0  0.65903  0.26260  0.70115  1.0000
  C   C1198     1.0  0.72204  0.42318  0.82083  1.0000
  C   C1199     1.0  0.71975  0.40491  0.81922  1.0000
  C   C1200     1.0  0.70193  0.39869  0.82623  1.0000
  C   C1201     1.0  0.68618  0.41089  0.83457  1.0000
  C   C1202     1.0  0.68868  0.42885  0.83684  1.0000
  C   C1203     1.0  0.70660  0.43492  0.83014  1.0000
  H   H1184     1.0  0.73166  0.39577  0.81201  1.0000
  H   H1185     1.0  0.70021  0.38480  0.82446  1.0000
  H   H1186     1.0  0.67657  0.43835  0.84332  1.0000
  H   H1187     1.0  0.70815  0.44909  0.83130  1.0000
  C   C1204     1.0  0.75523  0.44341  0.91182  1.0000
  C   C1205     1.0  0.77490  0.44326  0.91063  1.0000
  C   C1206     1.0  0.78219  0.44283  0.92710  1.0000
  C   C1207     1.0  0.76972  0.44330  0.94458  1.0000
  C   C1208     1.0  0.74994  0.44408  0.94563  1.0000
  C   C1209     1.0  0.74279  0.44368  0.92936  1.0000
  H   H1188     1.0  0.78456  0.44296  0.89715  1.0000
  H   H1189     1.0  0.79752  0.44216  0.92629  1.0000
  S   S420      1.0  0.52484  0.33205  0.93976  1.0000
  S   S421      1.0  0.50306  0.31560  0.83842  1.0000
  C   C1210     1.0  0.88178  0.41005  0.76280  1.0000
  H   H1190     1.0  0.63912  0.31503  0.90103  1.0000
  H   H1191     1.0  0.72440  0.36454  0.87693  1.0000
  C   C1211     1.0  0.51354  0.37874  0.89835  1.0000
  C   C1212     1.0  0.89691  0.40130  0.66392  1.0000
  C   C1213     1.0  0.91150  0.40802  0.64980  1.0000
  H   H1192     1.0  0.89375  0.40592  0.67751  1.0000
  C   C1214     1.0  0.85098  0.45562  0.75342  1.0000
  C   C1215     1.0  0.83117  0.45576  0.76013  1.0000
  C   C1216     1.0  0.82329  0.45625  0.77934  1.0000
  C   C1217     1.0  0.83512  0.45683  0.79202  1.0000
  C   C1218     1.0  0.85482  0.45746  0.78515  1.0000
  C   C1219     1.0  0.86277  0.45679  0.76592  1.0000
  C   C1220     1.0  0.97248  0.47341  0.65251  1.0000
  H   H1193     1.0  0.50440  0.29782  0.94332  1.0000
  H   H1194     1.0  0.86405  0.45806  0.79484  1.0000
  H   H1195     1.0  0.87802  0.45688  0.76090  1.0000
  H   H1196     1.0  0.63541  0.34889  0.95380  1.0000
  C   C1221     1.0  0.50467  0.33134  0.89226  1.0000
  H   H1197     1.0  0.51076  0.37741  0.91368  1.0000
  H   H1198     1.0  0.61186  0.31151  0.74312  1.0000
  H   H1199     1.0  0.77634  0.25334  0.64129  1.0000
  H   H1200     1.0  0.67784  0.31047  0.94607  1.0000
  S   S422      1.0  0.73816  0.46802  0.84461  1.0000
  H   H1201     1.0  0.52142  0.28797  0.80973  1.0000
  H   H1202     1.0  0.59880  0.30949  0.82428  1.0000
  C   C1222     1.0  0.50958  0.33526  0.92305  1.0000
  C   C1223     1.0  0.97754  0.41532  0.73313  1.0000
  C   C1224     1.0  0.88649  0.38839  0.66052  1.0000
  H   H1203     1.0  0.61146  0.27908  0.79936  1.0000
  C   C1225     1.0  0.61114  0.29348  0.77063  1.0000
  H   H1204     1.0  0.66293  0.30442  0.92259  1.0000
  C   C1226     1.0  0.66051  0.29484  0.76322  1.0000
  H   H1205     1.0  0.71646  0.47903  0.89140  1.0000
  H   H1206     1.0  0.89166  0.41668  0.81055  1.0000
  C   C1227     1.0  0.63614  0.34134  0.94234  1.0000
  C   C1228     1.0  0.54646  0.29892  0.76518  1.0000
  S   S423      1.0  0.92589  0.42311  0.65402  1.0000
  C   C1229     1.0  0.53555  0.37722  0.86937  1.0000
  N   N97       1.0  0.70714  0.39698  0.90611  1.0000
  H   H1207     1.0  0.62135  0.31844  0.81841  1.0000
  C   C1230     1.0  0.54816  0.37018  0.89925  1.0000
  S   S424      1.0  0.67374  0.24047  0.72226  1.0000
  H   H1208     1.0  0.51487  0.26282  0.79536  1.0000
  H   H1209     1.0  0.54829  0.28375  0.74260  1.0000
  H   H1210     1.0  0.87528  0.38316  0.67156  1.0000
  H   H1211     1.0  0.54599  0.37884  0.91058  1.0000
  H   H1212     1.0  0.54911  0.35484  0.90590  1.0000
  H   H1213     1.0  0.56223  0.37207  0.88988  1.0000
  S   S425      1.0  0.67534  0.27628  0.67340  1.0000
  H   H1214     1.0  0.69966  0.41083  0.93036  1.0000
  H   H1215     1.0  0.62178  0.29330  0.82228  1.0000
  H   H1216     1.0  0.54026  0.24755  0.75465  1.0000
  H   H1217     1.0  0.61038  0.28074  0.76551  1.0000
  C   C1231     1.0  0.71256  0.40391  0.92130  1.0000
  H   H1218     1.0  0.91201  0.41138  0.75210  1.0000
  S   S426      1.0  0.58678  0.26708  0.72533  1.0000
  H   H1219     1.0  0.67165  0.40548  0.87989  1.0000
  H   H1220     1.0  0.72238  0.41443  0.91505  1.0000
  S   S427      1.0  0.66599  0.37408  0.95742  1.0000
  Fe  Fe218     1.0  0.51398  0.33980  0.81723  1.0000
  C   C1232     1.0  0.70979  0.31507  0.90514  1.0000
  C   C1233     1.0  0.65141  0.31642  0.92507  1.0000
  H   H1221     1.0  0.66188  0.29933  0.81485  1.0000
  C   C1234     1.0  0.66144  0.29818  0.80047  1.0000
  C   C1235     1.0  0.71687  0.32225  0.91813  1.0000
  C   C1236     1.0  0.71950  0.38277  0.89786  1.0000
  H   H1222     1.0  0.80362  0.26497  0.64651  1.0000
  H   H1223     1.0  0.73287  0.37615  0.90300  1.0000
  C   C1237     1.0  0.89051  0.38209  0.64302  1.0000
  H   H1224     1.0  0.74026  0.44439  0.95908  1.0000
  N   N98       1.0  0.68698  0.40542  0.78575  1.0000
  C   C1238     1.0  0.70588  0.40361  0.77690  1.0000
  C   C1239     1.0  0.67750  0.42233  0.79119  1.0000
  C   C1240     1.0  0.71599  0.41878  0.77393  1.0000
  C   C1241     1.0  0.68716  0.43777  0.78843  1.0000
  C   C1242     1.0  0.70657  0.43590  0.77987  1.0000
  C   C1243     1.0  0.67665  0.38930  0.78929  1.0000
  H   H1225     1.0  0.71342  0.39022  0.77260  1.0000
  H   H1226     1.0  0.66261  0.42365  0.79851  1.0000
  H   H1227     1.0  0.73123  0.41708  0.76777  1.0000
  H   H1228     1.0  0.67988  0.45081  0.79363  1.0000
  H   H1229     1.0  0.71452  0.44742  0.77849  1.0000
  H   H1230     1.0  0.66762  0.39103  0.77827  1.0000
  H   H1231     1.0  0.68671  0.37537  0.78937  1.0000
  H   H1232     1.0  0.66720  0.38845  0.80345  1.0000
  N   N99       1.0  0.86717  0.41061  0.77817  1.0000
  C   C1244     1.0  0.87065  0.41265  0.79524  1.0000
  H   H1233     1.0  0.66501  0.24060  0.66004  1.0000
  C   C1245     1.0  0.84790  0.40816  0.77652  1.0000
  H   H1234     1.0  0.85901  0.41332  0.80738  1.0000
  H   H1235     1.0  0.87901  0.40854  0.74924  1.0000
  H   H1236     1.0  0.84703  0.39273  0.77928  1.0000
  H   H1237     1.0  0.83648  0.41540  0.78677  1.0000
  H   H1238     1.0  0.84463  0.41469  0.76212  1.0000
  C   C1246     1.0  0.52386  0.27282  0.78675  1.0000
  C   C1247     1.0  0.54236  0.28460  0.75733  1.0000
  S   S428      1.0  0.77989  0.47548  0.85095  1.0000
  N   N100      1.0  0.98769  0.45846  0.65276  1.0000
  C   C1248     1.0  0.61362  0.32689  0.76469  1.0000
  H   H1239     1.0  0.52308  0.38133  0.84411  1.0000
  C   C1249     1.0  0.98987  0.40113  0.74312  1.0000
  C   C1250     1.0  0.65948  0.27882  0.77762  1.0000
  H   H1240     1.0  0.72756  0.44372  0.93037  1.0000
  Fe  Fe219     1.0  0.66971  0.39847  0.96959  1.0000
  H   H1241     1.0  0.55024  0.37519  0.86162  1.0000
  N   N101      1.0  0.53102  0.27190  0.76805  1.0000
  H   H1242     1.0  0.53189  0.32272  0.90231  1.0000
  C   C1251     1.0  0.72939  0.24086  0.64360  1.0000
  C   C1252     1.0  0.71482  0.37616  0.88309  1.0000
  C   C1253     1.0  0.61432  0.32550  0.78389  1.0000
  C   C1254     1.0  0.66198  0.31244  0.76744  1.0000
  C   C1255     1.0  0.98751  0.44283  0.64520  1.0000
  C   C1256     1.0  0.52672  0.25727  0.75930  1.0000
  C   C1257     1.0  0.70549  0.24562  0.67200  1.0000
  C   C1258     1.0  0.66012  0.28054  0.79622  1.0000
  C   C1259     1.0  0.62223  0.34748  0.93054  1.0000
  C   C1260     1.0  0.69023  0.40528  0.89970  1.0000
  C   C1261     1.0  0.69743  0.38426  0.87673  1.0000
  C   C1262     1.0  0.68509  0.39899  0.88496  1.0000
  H   H1243     1.0  0.68057  0.41675  0.90606  1.0000
  H   H1244     1.0  0.69345  0.37901  0.86554  1.0000
  H   H1245     1.0  0.91679  0.34444  0.64397  1.0000
  H   H1246     1.0  0.61462  0.34031  0.75499  1.0000
  N   N102      1.0  0.53208  0.37590  0.88866  1.0000
  C   C1263     1.0  0.50127  0.38358  0.86916  1.0000
  H   H1247     1.0  0.80815  0.45566  0.78441  1.0000
  H   H1248     1.0  0.51968  0.26413  0.74680  1.0000
  C   C1264     1.0  0.70727  0.33922  0.92435  1.0000
  C   C1265     1.0  0.69070  0.34926  0.91712  1.0000
  H   H1249     1.0  0.71715  0.30170  0.90074  1.0000
  C   C1266     1.0  0.66909  0.44325  0.96779  1.0000
  C   C1267     1.0  0.62321  0.33792  0.91562  1.0000
  H   H1250     1.0  0.66272  0.32477  0.75621  1.0000
  S   S429      1.0  0.66281  0.33697  0.79096  1.0000
  N   N103      1.0  0.49735  0.30050  0.97264  1.0000
  H   H1251     1.0  0.69867  0.42865  0.96503  1.0000
  H   H1252     1.0  0.72007  0.39183  0.93072  1.0000
  S   S430      1.0  0.65668  0.25664  0.77315  1.0000
  C   C1268     1.0  0.61206  0.31074  0.75804  1.0000
  H   H1253     1.0  0.68341  0.36261  0.92148  1.0000
  H   H1254     1.0  0.61597  0.33801  0.78887  1.0000
  H   H1255     1.0  0.66017  0.29368  0.74881  1.0000
  H   H1256     1.0  0.72972  0.31445  0.92356  1.0000
  C   C1269     1.0  0.61382  0.30736  0.81628  1.0000
  N   N104      1.0  0.61355  0.30848  0.79611  1.0000
  C   C1270     1.0  0.53891  0.30017  0.78413  1.0000
  C   C1271     1.0  0.61180  0.29263  0.78975  1.0000
  C   C1272     1.0  0.55677  0.25543  0.71576  1.0000
  S   S431      1.0  0.77286  0.47314  0.80820  1.0000
  S   S432      1.0  0.49570  0.33924  0.79601  1.0000
  C   C1273     1.0  0.66469  0.31979  0.95228  1.0000
  H   H1257     1.0  0.97570  0.44141  0.71254  1.0000
  Fe  Fe220     1.0  0.61889  0.25723  0.72325  1.0000
  C   C1274     1.0  0.63792  0.32233  0.91282  1.0000
  S   S433      1.0  0.63843  0.27752  0.72352  1.0000
  C   C1275     1.0  0.51683  0.32911  0.90559  1.0000
  S   S434      1.0  0.77912  0.44183  0.96519  1.0000
  H   H1258     1.0  0.65806  0.31197  0.96604  1.0000
  C   C1276     1.0  0.70367  0.26860  0.64298  1.0000
  H   H1259     1.0  0.54172  0.31136  0.79033  1.0000
  H   H1260     1.0  0.65949  0.26819  0.80743  1.0000
  H   H1261     1.0  0.70004  0.24087  0.68676  1.0000
  C   C1277     1.0  0.52023  0.38089  0.85935  1.0000
  S   S435      1.0  0.51725  0.38170  0.95194  1.0000
  S   S436      1.0  0.63080  0.23393  0.74534  1.0000
  C   C1278     1.0  0.52760  0.28702  0.79503  1.0000
  C   C1279     1.0  0.69624  0.26255  0.66216  1.0000
  H   H1262     1.0  0.82191  0.45498  0.75053  1.0000
  H   H1263     1.0  0.61084  0.35961  0.93293  1.0000
  N   N105      1.0  0.65056  0.32609  0.93944  1.0000
  H   H1264     1.0  0.61270  0.34266  0.90613  1.0000
  H   H1265     1.0  0.66963  0.33226  0.95507  1.0000
  C   C1280     1.0  0.68823  0.43996  0.97074  1.0000
  H   H1266     1.0  0.55533  0.30904  0.75657  1.0000
  Fe  Fe221     1.0  0.51468  0.35101  0.96193  1.0000
  S   S437      1.0  0.66168  0.42869  0.95552  1.0000
  S   S438      1.0  0.70033  0.38698  0.97305  1.0000
  S   S439      1.0  0.63791  0.24493  0.69885  1.0000
  H   H1267     1.0  0.98412  0.38958  0.75315  1.0000
  H   H1268     1.0  0.51033  0.32670  0.87876  1.0000
  H   H1269     1.0  0.59308  0.40228  0.96795  1.0000
  H   H1270     1.0  0.97400  0.38662  0.65329  1.0000
  Fe  Fe222     1.0  0.69572  0.36146  0.96306  1.0000
  H   H1271     1.0  0.94326  0.38024  0.67447  1.0000
  S   S440      1.0  0.49589  0.23992  0.69595  1.0000
  C   C1281     1.0  0.93731  0.36249  0.65691  1.0000
  C   C1282     1.0  0.94829  0.37392  0.66176  1.0000
  H   H1272     1.0  0.52762  0.29216  0.96347  1.0000
  C   C1283     1.0  0.49788  0.38278  0.88875  1.0000
  H   H1273     1.0  0.82101  0.29209  0.64175  1.0000
  H   H1274     1.0  0.53289  0.24579  0.70928  1.0000
  H   H1275     1.0  0.64096  0.46076  0.97253  1.0000
  C   C1284     1.0  0.54782  0.24203  0.71117  1.0000
  H   H1276     1.0  0.75563  0.40800  0.97284  1.0000
  H   H1277     1.0  0.68518  0.47342  0.91150  1.0000
  C   C1285     1.0  0.95645  0.47282  0.64479  1.0000
  H   H1278     1.0  0.67751  0.47990  0.94447  1.0000
  C   C1286     1.0  0.69550  0.47866  0.91709  1.0000
  S   S441      1.0  0.49311  0.36296  0.83036  1.0000
  H   H1279     1.0  0.78080  0.39908  0.97334  1.0000
  C   C1287     1.0  0.69124  0.48219  0.93564  1.0000
  C   C1288     1.0  0.58659  0.23256  0.71579  1.0000
  Fe  Fe223     1.0  0.75204  0.49587  0.99959  1.0000
  S   S442      1.0  0.74199  0.54140  0.15945  1.0000
  C   C1289     1.0  0.82373  0.51077  0.21316  1.0000
  S   S443      1.0  0.88271  0.48478  0.27155  1.0000
  H   H1280     1.0  0.70345  0.55533  0.02662  1.0000
  H   H1281     1.0  0.72386  0.52824  0.01219  1.0000
  H   H1282     1.0  0.84385  0.58334  0.27940  1.0000
  H   H1283     1.0  0.54723  0.70404  0.19084  1.0000
  H   H1284     1.0  0.68923  0.65334  0.07275  1.0000
  H   H1285     1.0  0.65510  0.72324  0.20742  1.0000
  S   S444      1.0  0.89974  0.65266  0.28918  1.0000
  S   S445      1.0  0.85338  0.65170  0.30347  1.0000
  Fe  Fe224     1.0  0.87707  0.63954  0.28180  1.0000
  S   S446      1.0  0.87305  0.63583  0.25302  1.0000
  S   S447      1.0  0.74086  0.63325  0.00172  1.0000
  C   C1290     1.0  0.72943  0.54121  0.01078  1.0000
  C   C1291     1.0  0.62467  0.72743  0.98308  1.0000
  C   C1292     1.0  0.84516  0.59831  0.27263  1.0000
  Fe  Fe225     1.0  0.76773  0.61809  0.20017  1.0000
  S   S448      1.0  0.79176  0.63440  0.18603  1.0000
  S   S449      1.0  0.77629  0.58589  0.20623  1.0000
  Fe  Fe226     1.0  0.73742  0.65463  0.20218  1.0000
  S   S450      1.0  0.75925  0.67331  0.18798  1.0000
  S   S451      1.0  0.70542  0.66586  0.20959  1.0000
  Fe  Fe227     1.0  0.76997  0.65195  0.16831  1.0000
  S   S452      1.0  0.77558  0.66147  0.13639  1.0000
  Fe  Fe228     1.0  0.77855  0.65380  0.20728  1.0000
  S   S453      1.0  0.79180  0.66635  0.22631  1.0000
  S   S454      1.0  0.74684  0.63456  0.18123  1.0000
  S   S455      1.0  0.75591  0.63621  0.22270  1.0000
  C   C1293     1.0  0.69721  0.69079  0.20752  1.0000
  C   C1294     1.0  0.67729  0.69798  0.20932  1.0000
  H   H1286     1.0  0.66715  0.68817  0.21275  1.0000
  C   C1295     1.0  0.85058  0.64462  0.24541  1.0000
  C   C1296     1.0  0.83650  0.65767  0.25455  1.0000
  C   C1297     1.0  0.81874  0.66444  0.24822  1.0000
  C   C1298     1.0  0.81472  0.65793  0.23298  1.0000
  C   C1299     1.0  0.82872  0.64472  0.22391  1.0000
  C   C1300     1.0  0.84668  0.63823  0.23002  1.0000
  H   H1287     1.0  0.83942  0.66290  0.26622  1.0000
  H   H1288     1.0  0.80800  0.67473  0.25522  1.0000
  H   H1289     1.0  0.82580  0.63972  0.21209  1.0000
  H   H1290     1.0  0.85758  0.62824  0.22279  1.0000
  H   H1291     1.0  0.66954  0.73060  0.01572  1.0000
  H   H1292     1.0  0.71168  0.70574  0.05746  1.0000
  C   C1301     1.0  0.72263  0.68535  0.15678  1.0000
  S   S456      1.0  0.78690  0.50208  0.15192  1.0000
  C   C1302     1.0  0.89058  0.51447  0.22388  1.0000
  H   H1293     1.0  0.82406  0.52578  0.20778  1.0000
  C   C1303     1.0  0.93885  0.48658  0.28831  1.0000
  C   C1304     1.0  0.90431  0.53785  0.23404  1.0000
  H   H1294     1.0  0.79490  0.54792  0.23120  1.0000
  H   H1295     1.0  0.87844  0.52560  0.22068  1.0000
  C   C1305     1.0  0.89074  0.49596  0.22116  1.0000
  H   H1296     1.0  0.90380  0.55697  0.29713  1.0000
  C   C1306     1.0  0.77310  0.65421  0.10171  1.0000
  C   C1307     1.0  0.76920  0.64842  0.12149  1.0000
  C   C1308     1.0  0.76102  0.63198  0.12895  1.0000
  C   C1309     1.0  0.75740  0.62109  0.11678  1.0000
  H   H1297     1.0  0.77944  0.66690  0.09580  1.0000
  H   H1298     1.0  0.75796  0.62726  0.14407  1.0000
  H   H1299     1.0  0.75161  0.60809  0.12272  1.0000
  C   C1310     1.0  0.96948  0.64469  0.28556  1.0000
  H   H1300     1.0  0.77990  0.54920  0.25416  1.0000
  C   C1311     1.0  0.97049  0.50390  0.28730  1.0000
  S   S457      1.0  0.88465  0.61138  0.30067  1.0000
  C   C1312     1.0  0.97233  0.48399  0.29192  1.0000
  H   H1301     1.0  0.79919  0.62107  0.14513  1.0000
  H   H1302     1.0  0.78787  0.62624  0.25165  1.0000
  C   C1313     1.0  0.69937  0.69841  0.06191  1.0000
  H   H1303     1.0  0.79724  0.52799  0.25044  1.0000
  H   H1304     1.0  0.95180  0.53044  0.27904  1.0000
  C   C1314     1.0  0.75162  0.55343  0.17262  1.0000
  C   C1315     1.0  0.74295  0.57215  0.17474  1.0000
  C   C1316     1.0  0.75044  0.58214  0.18509  1.0000
  C   C1317     1.0  0.76686  0.57359  0.19309  1.0000
  C   C1318     1.0  0.77569  0.55486  0.19084  1.0000
  C   C1319     1.0  0.76798  0.54472  0.18075  1.0000
  H   H1305     1.0  0.73022  0.57888  0.16857  1.0000
  H   H1306     1.0  0.74318  0.59628  0.18721  1.0000
  H   H1307     1.0  0.78845  0.54815  0.19693  1.0000
  H   H1308     1.0  0.77473  0.53023  0.17922  1.0000
  H   H1309     1.0  0.93143  0.68941  0.29410  1.0000
  Fe  Fe229     1.0  0.88869  0.50720  0.28534  1.0000
  H   H1310     1.0  0.78857  0.50395  0.23825  1.0000
  Fe  Fe230     1.0  0.85421  0.50408  0.26829  1.0000
  H   H1311     1.0  0.80901  0.50761  0.19134  1.0000
  H   H1312     1.0  0.76742  0.67769  0.99203  1.0000
  C   C1320     1.0  0.77552  0.51356  0.23494  1.0000
  S   S458      1.0  0.83881  0.49116  0.29656  1.0000
  C   C1321     1.0  0.67044  0.71784  0.20631  1.0000
  C   C1322     1.0  0.74213  0.53781  0.22604  1.0000
  C   C1323     1.0  0.80144  0.63143  0.29173  1.0000
  S   S459      1.0  0.84187  0.51528  0.24099  1.0000
  C   C1324     1.0  0.76250  0.50675  0.22740  1.0000
  H   H1313     1.0  0.56819  0.72164  0.14190  1.0000
  C   C1325     1.0  0.78673  0.53962  0.24373  1.0000
  N   N106      1.0  0.68096  0.70857  0.06354  1.0000
  C   C1326     1.0  0.66543  0.69931  0.06873  1.0000
  S   S460      1.0  0.72894  0.68416  0.01451  1.0000
  C   C1327     1.0  0.66817  0.67932  0.07217  1.0000
  H   H1314     1.0  0.96972  0.65542  0.27280  1.0000
  H   H1315     1.0  0.65582  0.67207  0.07564  1.0000
  Fe  Fe231     1.0  0.75504  0.51034  0.16117  1.0000
  S   S461      1.0  0.75330  0.48813  0.18758  1.0000
  C   C1328     1.0  0.83171  0.50173  0.22945  1.0000
  H   H1316     1.0  0.76567  0.49217  0.22470  1.0000
  H   H1317     1.0  0.94163  0.63870  0.28453  1.0000
  H   H1318     1.0  0.73583  0.67488  0.15555  1.0000
  H   H1319     1.0  0.96533  0.69143  0.29538  1.0000
  H   H1320     1.0  0.67400  0.68747  0.16811  1.0000
  H   H1321     1.0  0.61825  0.71921  0.99622  1.0000
  Fe  Fe232     1.0  0.77029  0.62194  0.00886  1.0000
  S   S462      1.0  0.76889  0.64282  0.02809  1.0000
  C   C1329     1.0  0.76933  0.64337  0.08949  1.0000
  H   H1322     1.0  0.72944  0.54763  0.22202  1.0000
  S   S463      1.0  0.71136  0.59222  0.02823  1.0000
  N   N107      1.0  0.74962  0.53506  0.07170  1.0000
  C   C1330     1.0  0.74403  0.55418  0.06538  1.0000
  C   C1331     1.0  0.75273  0.52863  0.08997  1.0000
  C   C1332     1.0  0.74103  0.56736  0.07759  1.0000
  C   C1333     1.0  0.74972  0.54141  0.10260  1.0000
  C   C1334     1.0  0.74387  0.56091  0.09631  1.0000
  C   C1335     1.0  0.75327  0.52145  0.05861  1.0000
  H   H1323     1.0  0.74179  0.55938  0.05083  1.0000
  H   H1324     1.0  0.75753  0.51352  0.09491  1.0000
  H   H1325     1.0  0.73655  0.58251  0.07254  1.0000
  H   H1326     1.0  0.75185  0.53622  0.11720  1.0000
  H   H1327     1.0  0.74153  0.57103  0.10591  1.0000
  H   H1328     1.0  0.76892  0.51867  0.05257  1.0000
  H   H1329     1.0  0.74878  0.50765  0.06604  1.0000
  H   H1330     1.0  0.74504  0.52699  0.04672  1.0000
  S   S464      1.0  0.52608  0.73072  0.16491  1.0000
  H   H1331     1.0  0.75393  0.70005  0.14459  1.0000
  C   C1336     1.0  0.74572  0.51902  0.22289  1.0000
  C   C1337     1.0  0.53389  0.72938  0.04798  1.0000
  H   H1332     1.0  0.89319  0.54063  0.24667  1.0000
  C   C1338     1.0  0.70665  0.71753  0.15642  1.0000
  H   H1333     1.0  0.98904  0.58190  0.28063  1.0000
  S   S465      1.0  0.91524  0.52095  0.27856  1.0000
  H   H1334     1.0  0.56968  0.70752  0.21073  1.0000
  H   H1335     1.0  0.70489  0.72079  0.01000  1.0000
  S   S466      1.0  0.72809  0.48828  0.02335  1.0000
  C   C1339     1.0  0.81517  0.50053  0.20381  1.0000
  H   H1336     1.0  0.74848  0.58864  0.00402  1.0000
  H   H1337     1.0  0.78362  0.57447  0.15443  1.0000
  H   H1338     1.0  0.76948  0.56115  0.99150  1.0000
  S   S467      1.0  0.52308  0.71494  0.03853  1.0000
  C   C1340     1.0  0.95304  0.51507  0.28278  1.0000
  H   H1339     1.0  0.78682  0.60435  0.16232  1.0000
  H   H1340     1.0  0.74210  0.67303  0.97709  1.0000
  N   N108      1.0  0.77207  0.53211  0.23768  1.0000
  C   C1341     1.0  0.98500  0.64036  0.29543  1.0000
  N   N109      1.0  0.82609  0.61054  0.27450  1.0000
  C   C1342     1.0  0.81469  0.61237  0.26122  1.0000
  H   H1341     1.0  0.79648  0.63890  0.30367  1.0000
  C   C1343     1.0  0.79650  0.62407  0.26270  1.0000
  H   H1342     1.0  0.67551  0.72209  0.16333  1.0000
  C   C1344     1.0  0.78996  0.63383  0.27793  1.0000
  C   C1345     1.0  0.74202  0.71076  0.15064  1.0000
  H   H1343     1.0  0.81988  0.60529  0.24902  1.0000
  C   C1346     1.0  0.81953  0.61954  0.28985  1.0000
  C   C1347     1.0  0.70489  0.67900  0.16150  1.0000
  C   C1348     1.0  0.68690  0.66884  0.07047  1.0000
  H   H1344     1.0  0.77616  0.64347  0.27879  1.0000
  C   C1349     1.0  0.70263  0.67841  0.06536  1.0000
  H   H1345     1.0  0.65081  0.70733  0.06967  1.0000
  C   C1350     1.0  0.55052  0.71800  0.19042  1.0000
  C   C1351     1.0  0.93715  0.50644  0.28345  1.0000
  H   H1346     1.0  0.77888  0.55871  0.12952  1.0000
  H   H1347     1.0  0.71728  0.67044  0.06357  1.0000
  C   C1352     1.0  0.74819  0.54270  0.00112  1.0000
  N   N110      1.0  0.79686  0.59620  0.13513  1.0000
  C   C1353     1.0  0.78859  0.58015  0.13977  1.0000
  C   C1354     1.0  0.80350  0.60323  0.11656  1.0000
  C   C1355     1.0  0.78602  0.57110  0.12567  1.0000
  C   C1356     1.0  0.80132  0.59446  0.10206  1.0000
  C   C1357     1.0  0.79237  0.57840  0.10667  1.0000
  C   C1358     1.0  0.79910  0.60552  0.15024  1.0000
  H   H1348     1.0  0.75311  0.55905  0.23506  1.0000
  H   H1349     1.0  0.80983  0.61611  0.11283  1.0000
  H   H1350     1.0  0.85519  0.60340  0.27931  1.0000
  H   H1351     1.0  0.80571  0.60058  0.08729  1.0000
  H   H1352     1.0  0.78994  0.57196  0.09550  1.0000
  C   C1359     1.0  0.75555  0.54417  0.23348  1.0000
  H   H1353     1.0  0.90061  0.54856  0.22148  1.0000
  C   C1360     1.0  0.55362  0.72465  0.04878  1.0000
  H   H1354     1.0  0.72547  0.69828  0.20230  1.0000
  C   C1361     1.0  0.68865  0.71169  0.16093  1.0000
  C   C1362     1.0  0.71779  0.55663  0.01874  1.0000
  H   H1355     1.0  0.81273  0.59874  0.15555  1.0000
  C   C1363     1.0  0.69566  0.71008  0.01414  1.0000
  C   C1364     1.0  0.71018  0.70360  0.20328  1.0000
  S   S468      1.0  0.76090  0.59950  0.03334  1.0000
  H   H1356     1.0  0.79112  0.67920  0.97872  1.0000
  C   C1365     1.0  0.92083  0.48553  0.23297  1.0000
  C   C1366     1.0  0.76178  0.62658  0.09702  1.0000
  C   C1367     1.0  0.72480  0.57364  0.01668  1.0000
  H   H1357     1.0  0.78308  0.65644  0.98517  1.0000
  S   S469      1.0  0.72540  0.63307  0.04751  1.0000
  S   S470      1.0  0.86143  0.52744  0.27998  1.0000
  H   H1358     1.0  0.85196  0.59886  0.25744  1.0000
  Fe  Fe233     1.0  0.73118  0.61238  0.02746  1.0000
  H   H1359     1.0  0.77293  0.64765  0.07428  1.0000
  C   C1368     1.0  0.74321  0.57536  0.00628  1.0000
  C   C1369     1.0  0.56331  0.71996  0.20160  1.0000
  H   H1360     1.0  0.70443  0.66381  0.16435  1.0000
  H   H1361     1.0  0.54149  0.73070  0.12432  1.0000
  S   S471      1.0  0.76349  0.52346  0.99179  1.0000
  S   S472      1.0  0.75982  0.61089  0.08241  1.0000
  S   S473      1.0  0.63848  0.70867  0.03018  1.0000
  C   C1370     1.0  0.75498  0.55984  0.99880  1.0000
  Fe  Fe234     1.0  0.75591  0.62162  0.05187  1.0000
  C   C1371     1.0  0.66356  0.70195  0.02350  1.0000
  C   C1372     1.0  0.67557  0.71568  0.01755  1.0000
  C   C1373     1.0  0.70384  0.69069  0.01663  1.0000
  C   C1374     1.0  0.69190  0.67687  0.02171  1.0000
  C   C1375     1.0  0.67174  0.68252  0.02507  1.0000
  H   H1362     1.0  0.69815  0.66184  0.02342  1.0000
  H   H1363     1.0  0.66252  0.67181  0.02947  1.0000
  Fe  Fe235     1.0  0.73860  0.65261  0.02239  1.0000
  C   C1376     1.0  0.92013  0.50419  0.23563  1.0000
  H   H1364     1.0  0.73568  0.51409  0.21662  1.0000
  H   H1365     1.0  0.98266  0.51064  0.28683  1.0000
  C   C1377     1.0  0.95706  0.68278  0.30686  1.0000
  C   C1378     1.0  0.68781  0.69228  0.16362  1.0000
  H   H1366     1.0  0.93142  0.50713  0.24181  1.0000
  C   C1379     1.0  0.95351  0.63532  0.29225  1.0000
  H   H1367     1.0  0.56206  0.71182  0.04399  1.0000
  S   S474      1.0  0.79548  0.61650  0.98521  1.0000
  N   N111      1.0  0.72333  0.70441  0.15428  1.0000
  N   N112      1.0  0.90522  0.51841  0.23087  1.0000
  S   S475      1.0  0.74086  0.48597  0.97771  1.0000
  H   H1368     1.0  0.74526  0.71290  0.16415  1.0000
  S   S476      1.0  0.74617  0.49268  0.14391  1.0000
  C   C1380     1.0  0.70336  0.72341  0.20035  1.0000
  H   H1369     1.0  0.91832  0.53993  0.23673  1.0000
  H   H1370     1.0  0.87879  0.49287  0.21606  1.0000
  C   C1381     1.0  0.93817  0.68148  0.30604  1.0000
  H   H1371     1.0  0.74186  0.72438  0.14032  1.0000
  C   C1382     1.0  0.77850  0.67202  0.98056  1.0000
  C   C1383     1.0  0.67801  0.72951  0.06006  1.0000
  H   H1372     1.0  0.82841  0.61778  0.30060  1.0000
  C   C1384     1.0  0.68351  0.73060  0.20159  1.0000
  Fe  Fe236     1.0  0.77799  0.48269  0.13637  1.0000
  C   C1385     1.0  0.84616  0.55955  0.32071  1.0000
  C   C1386     1.0  0.84846  0.57769  0.32297  1.0000
  C   C1387     1.0  0.83854  0.64985  0.36575  1.0000
  H   H1373     1.0  0.95396  0.64786  0.36565  1.0000
  H   H1374     1.0  0.82522  0.48661  0.33770  1.0000
  H   H1375     1.0  0.89534  0.67455  0.38174  1.0000
  C   C1388     1.0  0.84399  0.66088  0.37650  1.0000
  N   N113      1.0  0.83270  0.68948  0.35561  1.0000
  C   C1389     1.0  0.89227  0.67634  0.59709  1.0000
  S   S477      1.0  0.87619  0.49457  0.31491  1.0000
  C   C1390     1.0  0.92957  0.68395  0.58981  1.0000
  C   C1391     1.0  0.87663  0.71549  0.34321  1.0000
  H   H1376     1.0  0.88839  0.66704  0.35257  1.0000
  H   H1377     1.0  0.89463  0.69232  0.55141  1.0000
  H   H1378     1.0  0.85548  0.55269  0.30956  1.0000
  H   H1379     1.0  0.84527  0.68928  0.37961  1.0000
  C   C1392     1.0  0.90075  0.55272  0.31282  1.0000
  H   H1380     1.0  0.89340  0.56547  0.31928  1.0000
  C   C1393     1.0  0.96469  0.64950  0.35232  1.0000
  H   H1381     1.0  0.92936  0.64936  0.34636  1.0000
  N   N114      1.0  0.89906  0.68683  0.58003  1.0000
  H   H1382     1.0  0.94713  0.50133  0.33079  1.0000
  C   C1394     1.0  0.96724  0.70685  0.41020  1.0000
  H   H1383     1.0  0.85079  0.65405  0.38869  1.0000
  C   C1395     1.0  0.91911  0.70342  0.63445  1.0000
  C   C1396     1.0  0.88655  0.69443  0.56575  1.0000
  H   H1384     1.0  0.96869  0.60596  0.33098  1.0000
  C   C1397     1.0  0.88707  0.70505  0.37383  1.0000
  C   C1398     1.0  0.96888  0.61678  0.31829  1.0000
  S   S478      1.0  0.93273  0.71836  0.61679  1.0000
  C   C1399     1.0  0.83642  0.58663  0.33749  1.0000
  H   H1385     1.0  0.97159  0.63508  0.34913  1.0000
  H   H1386     1.0  0.89874  0.66086  0.62437  1.0000
  C   C1400     1.0  0.88036  0.71977  0.35982  1.0000
  H   H1387     1.0  0.91457  0.71934  0.49312  1.0000
  H   H1388     1.0  0.81259  0.58422  0.36073  1.0000
  C   C1401     1.0  0.94233  0.51672  0.32881  1.0000
  H   H1389     1.0  0.87377  0.68728  0.56864  1.0000
  Fe  Fe237     1.0  0.84843  0.51299  0.30837  1.0000
  S   S479      1.0  0.83863  0.60928  0.34109  1.0000
  H   H1390     1.0  0.93217  0.72811  0.38397  1.0000
  S   S480      1.0  0.89138  0.70972  0.39521  1.0000
  S   S481      1.0  0.82838  0.52760  0.33097  1.0000
  C   C1402     1.0  0.94920  0.71090  0.40446  1.0000
  H   H1391     1.0  0.92256  0.69969  0.56313  1.0000
  H   H1392     1.0  0.89176  0.71564  0.62560  1.0000
  C   C1403     1.0  0.82201  0.57743  0.34953  1.0000
  C   C1404     1.0  0.84079  0.68082  0.37129  1.0000
  N   N115      1.0  0.98180  0.71639  0.40031  1.0000
  C   C1405     1.0  0.82742  0.67875  0.34494  1.0000
  C   C1406     1.0  0.82922  0.71037  0.35024  1.0000
  H   H1393     1.0  0.93220  0.66747  0.61761  1.0000
  N   N116      1.0  0.95546  0.66076  0.33647  1.0000
  C   C1407     1.0  0.89016  0.68603  0.37096  1.0000
  S   S482      1.0  0.87274  0.69181  0.32015  1.0000
  S   S483      1.0  0.88298  0.63570  0.33416  1.0000
  H   H1394     1.0  0.80850  0.55247  0.35674  1.0000
  H   H1395     1.0  0.82588  0.65031  0.34151  1.0000
  C   C1408     1.0  0.95416  0.52857  0.33133  1.0000
  N   N117      1.0  0.91889  0.54431  0.31980  1.0000
  C   C1409     1.0  0.82990  0.49055  0.37140  1.0000
  H   H1396     1.0  0.83566  0.71460  0.33508  1.0000
  H   H1397     1.0  0.87134  0.72700  0.33251  1.0000
  C   C1410     1.0  0.95319  0.62137  0.30867  1.0000
  C   C1411     1.0  0.83177  0.55037  0.33295  1.0000
  H   H1398     1.0  0.87755  0.67366  0.60031  1.0000
  H   H1399     1.0  0.84099  0.63434  0.36950  1.0000
  C   C1412     1.0  0.89927  0.70472  0.63533  1.0000
  H   H1400     1.0  0.96800  0.52240  0.33567  1.0000
  C   C1413     1.0  0.88633  0.68174  0.35438  1.0000
  H   H1401     1.0  0.82133  0.68560  0.33233  1.0000
  C   C1414     1.0  0.91736  0.69090  0.57641  1.0000
  C   C1415     1.0  0.94618  0.72467  0.38842  1.0000
  C   C1416     1.0  0.81970  0.55942  0.34729  1.0000
  C   C1417     1.0  0.87938  0.69647  0.34048  1.0000
  H   H1402     1.0  0.97598  0.65652  0.35492  1.0000
  H   H1403     1.0  0.85952  0.58468  0.31352  1.0000
  C   C1418     1.0  0.92813  0.66950  0.32041  1.0000
  H   H1404     1.0  0.94388  0.68761  0.58713  1.0000
  H   H1405     1.0  0.83599  0.71727  0.35871  1.0000
  C   C1419     1.0  0.90418  0.66897  0.61073  1.0000
  H   H1406     1.0  0.91575  0.51557  0.32059  1.0000
  C   C1420     1.0  0.92298  0.67271  0.60696  1.0000
  Fe  Fe238     1.0  0.86214  0.62416  0.32260  1.0000
  H   H1407     1.0  0.88145  0.71002  0.56538  1.0000
  C   C1421     1.0  0.83011  0.65882  0.34995  1.0000
  H   H1408     1.0  0.98047  0.67284  0.32243  1.0000
  Fe  Fe239     1.0  0.90491  0.62549  0.31010  1.0000
  C   C1422     1.0  0.93711  0.65902  0.33552  1.0000
  C   C1423     1.0  0.97904  0.72969  0.38439  1.0000
  Fe  Fe240     1.0  0.87658  0.66219  0.31293  1.0000
  C   C1424     1.0  0.96555  0.67221  0.32224  1.0000
  S   S484      1.0  0.93344  0.60940  0.31749  1.0000
  H   H1409     1.0  0.93754  0.70353  0.41240  1.0000
  C   C1425     1.0  0.92462  0.52488  0.32301  1.0000
  S   S485      1.0  0.91113  0.72649  0.53090  1.0000
  H   H1410     1.0  0.96950  0.69614  0.42268  1.0000
  H   H1411     1.0  0.95740  0.55776  0.32975  1.0000
  H   H1412     1.0  0.81347  0.71600  0.35231  1.0000
  H   H1413     1.0  0.91358  0.66816  0.31971  1.0000
  C   C1426     1.0  0.98567  0.73158  0.60166  1.0000
  H   H1414     1.0  0.92617  0.57148  0.31913  1.0000
  C   C1427     1.0  0.98468  0.62637  0.31176  1.0000
  H   H1415     1.0  0.81740  0.50189  0.36814  1.0000
  H   H1416     1.0  0.84331  0.49563  0.36324  1.0000
  H   H1417     1.0  0.83024  0.48871  0.38678  1.0000
  H   H1418     1.0  0.89058  0.54238  0.31639  1.0000
  C   C1428     1.0  0.94824  0.54838  0.32796  1.0000
  C   C1429     1.0  0.93051  0.55605  0.32203  1.0000
  H   H1419     1.0  0.97500  0.72445  0.59885  1.0000
  C   C1430     1.0  0.90351  0.73180  0.49484  1.0000
  Fe  Fe241     1.0  0.77672  0.63673  0.87791  1.0000
  S   S486      1.0  0.74755  0.62805  0.88508  1.0000
  S   S487      1.0  0.78986  0.64740  0.89832  1.0000
  Fe  Fe242     1.0  0.78485  0.62861  0.83728  1.0000
  S   S488      1.0  0.75589  0.61972  0.84155  1.0000
  S   S489      1.0  0.80258  0.62345  0.80852  1.0000
  Fe  Fe243     1.0  0.74371  0.64510  0.85615  1.0000
  S   S490      1.0  0.71542  0.66327  0.84873  1.0000
  Fe  Fe244     1.0  0.76226  0.60365  0.86973  1.0000
  S   S491      1.0  0.76063  0.57244  0.88141  1.0000
  S   S492      1.0  0.77217  0.65536  0.84969  1.0000
  S   S493      1.0  0.79187  0.61102  0.86487  1.0000
  Fe  Fe245     1.0  0.90064  0.62687  0.74085  1.0000
  S   S494      1.0  0.88111  0.62283  0.72256  1.0000
  S   S495      1.0  0.88730  0.63738  0.76862  1.0000
  Fe  Fe246     1.0  0.93696  0.61514  0.71243  1.0000
  S   S496      1.0  0.91949  0.61013  0.69229  1.0000
  S   S497      1.0  0.96897  0.60850  0.70080  1.0000
  Fe  Fe247     1.0  0.90050  0.63771  0.69830  1.0000
  Fe  Fe248     1.0  0.90210  0.59583  0.71849  1.0000
  S   S498      1.0  0.89087  0.56806  0.72370  1.0000
  S   S499      1.0  0.91890  0.64374  0.71678  1.0000
  S   S500      1.0  0.92072  0.59885  0.73831  1.0000
  S   S501      1.0  0.93372  0.49950  0.68170  1.0000
  N   N118      1.0  0.79666  0.55712  0.82720  1.0000
  C   C1431     1.0  0.77616  0.68037  0.92883  1.0000
  C   C1432     1.0  0.89872  0.67731  0.66129  1.0000
  C   C1433     1.0  0.79011  0.55426  0.81197  1.0000
  C   C1434     1.0  0.99221  0.53106  0.71812  1.0000
  C   C1435     1.0  0.66412  0.67061  0.86793  1.0000
  H   H1420     1.0  0.83982  0.49466  0.73323  1.0000
  H   H1421     1.0  0.55867  0.72085  0.85479  1.0000
  C   C1436     1.0  0.74606  0.55510  0.83781  1.0000
  C   C1437     1.0  0.98831  0.60913  0.71179  1.0000
  C   C1438     1.0  0.95805  0.53244  0.72004  1.0000
  H   H1422     1.0  0.78515  0.60187  0.90903  1.0000
  H   H1423     1.0  0.81015  0.54423  0.85119  1.0000
  H   H1424     1.0  0.88434  0.50742  0.67611  1.0000
  C   C1439     1.0  0.80504  0.54192  0.83908  1.0000
  C   C1440     1.0  0.80673  0.52321  0.83603  1.0000
  S   S502      1.0  0.74825  0.52109  0.82626  1.0000
  C   C1441     1.0  0.87532  0.67770  0.72828  1.0000
  H   H1425     1.0  0.88112  0.67328  0.71424  1.0000
  H   H1426     1.0  0.72928  0.67710  0.94742  1.0000
  C   C1442     1.0  0.79987  0.57149  0.94744  1.0000
  H   H1427     1.0  0.82056  0.63955  0.91900  1.0000
  H   H1428     1.0  0.67021  0.65238  0.84693  1.0000
  C   C1443     1.0  0.66081  0.66467  0.85212  1.0000
  H   H1429     1.0  0.78597  0.68178  0.91532  1.0000
  C   C1444     1.0  0.91851  0.67616  0.66057  1.0000
  H   H1430     1.0  0.90848  0.50082  0.71803  1.0000
  H   H1431     1.0  0.86726  0.49045  0.70584  1.0000
  C   C1445     1.0  0.86550  0.54484  0.69925  1.0000
  H   H1432     1.0  0.62916  0.70935  0.87000  1.0000
  C   C1446     1.0  0.63813  0.69676  0.86510  1.0000
  H   H1433     1.0  0.62250  0.69932  0.84232  1.0000
  C   C1447     1.0  0.82961  0.65818  0.73486  1.0000
  N   N119      1.0  0.65313  0.68674  0.87393  1.0000
  C   C1448     1.0  0.75673  0.55838  0.86613  1.0000
  C   C1449     1.0  0.84721  0.66422  0.72659  1.0000
  H   H1434     1.0  0.64752  0.68771  0.90335  1.0000
  C   C1450     1.0  0.75898  0.52684  0.85845  1.0000
  C   C1451     1.0  0.92318  0.51833  0.69420  1.0000
  C   C1452     1.0  0.65711  0.69310  0.89020  1.0000
  H   H1435     1.0  0.96756  0.57374  0.72745  1.0000
  H   H1436     1.0  0.93600  0.53952  0.67274  1.0000
  C   C1453     1.0  0.92659  0.53692  0.68630  1.0000
  H   H1437     1.0  0.81088  0.56874  0.95625  1.0000
  C   C1454     1.0  0.75671  0.68017  0.92935  1.0000
  S   S503      1.0  0.88565  0.66066  0.67723  1.0000
  H   H1438     1.0  0.74795  0.48495  0.88819  1.0000
  H   H1439     1.0  0.64319  0.67068  0.83041  1.0000
  C   C1455     1.0  0.74892  0.56669  0.84974  1.0000
  H   H1440     1.0  0.85700  0.67869  0.76362  1.0000
  C   C1456     1.0  0.84912  0.67341  0.75529  1.0000
  C   C1457     1.0  0.64581  0.67503  0.84279  1.0000
  C   C1458     1.0  0.82170  0.65998  0.75365  1.0000
  C   C1459     1.0  0.63428  0.69111  0.84939  1.0000
  C   C1460     1.0  0.75115  0.53513  0.84207  1.0000
  H   H1441     1.0  0.67614  0.66271  0.87477  1.0000
  C   C1461     1.0  0.95467  0.55105  0.72367  1.0000
  H   H1442     1.0  0.79843  0.67685  0.94530  1.0000
  H   H1443     1.0  0.74435  0.50731  0.89653  1.0000
  C   C1462     1.0  0.74482  0.49168  0.90105  1.0000
  C   C1463     1.0  0.98553  0.61362  0.72993  1.0000
  C   C1464     1.0  0.76168  0.53841  0.87048  1.0000
  N   N120      1.0  0.85683  0.51557  0.71816  1.0000
  H   H1444     1.0  0.81108  0.59516  0.92841  1.0000
  H   H1445     1.0  0.80830  0.65494  0.76047  1.0000
  H   H1446     1.0  0.67246  0.68803  0.89196  1.0000
  H   H1447     1.0  0.82229  0.65194  0.72682  1.0000
  H   H1448     1.0  0.78328  0.56628  0.80267  1.0000
  C   C1465     1.0  0.83139  0.66783  0.76388  1.0000
  C   C1466     1.0  0.74438  0.67755  0.94682  1.0000
  H   H1449     1.0  0.97243  0.48579  0.65862  1.0000
  H   H1450     1.0  0.87379  0.69277  0.64927  1.0000
  H   H1451     1.0  0.87352  0.69351  0.72623  1.0000
  C   C1467     1.0  0.91744  0.55230  0.69568  1.0000
  C   C1468     1.0  0.90487  0.54906  0.71296  1.0000
  C   C1469     1.0  0.90205  0.53038  0.72115  1.0000
  C   C1470     1.0  0.91113  0.51507  0.71178  1.0000
  H   H1452     1.0  0.91964  0.56670  0.68925  1.0000
  H   H1453     1.0  0.89241  0.52782  0.73457  1.0000
  H   H1454     1.0  0.74788  0.55396  0.93439  1.0000
  C   C1471     1.0  0.72238  0.49148  0.93120  1.0000
  C   C1472     1.0  0.79150  0.53574  0.80855  1.0000
  C   C1473     1.0  0.97030  0.55925  0.72465  1.0000
  C   C1474     1.0  0.87611  0.51531  0.68709  1.0000
  H   H1455     1.0  0.86564  0.55999  0.69790  1.0000
  H   H1456     1.0  0.97104  0.61684  0.73776  1.0000
  H   H1457     1.0  0.76132  0.53751  0.95092  1.0000
  C   C1475     1.0  0.79984  0.52014  0.82069  1.0000
  H   H1458     1.0  0.84936  0.54253  0.72754  1.0000
  H   H1459     1.0  0.76782  0.53190  0.88309  1.0000
  H   H1460     1.0  0.88624  0.67119  0.73759  1.0000
  N   N121      1.0  0.85683  0.67150  0.73691  1.0000
  H   H1461     1.0  0.82556  0.66888  0.77862  1.0000
  H   H1462     1.0  0.74479  0.58203  0.84637  1.0000
  C   C1476     1.0  0.70702  0.68670  0.85377  1.0000
  C   C1477     1.0  0.69199  0.69847  0.84504  1.0000
  C   C1478     1.0  0.68325  0.71622  0.85040  1.0000
  C   C1479     1.0  0.68978  0.72256  0.86426  1.0000
  C   C1480     1.0  0.70529  0.71112  0.87247  1.0000
  C   C1481     1.0  0.71382  0.69320  0.86735  1.0000
  H   H1463     1.0  0.68686  0.69368  0.83431  1.0000
  H   H1464     1.0  0.83735  0.51463  0.74481  1.0000
  C   C1482     1.0  0.75549  0.55288  0.94640  1.0000
  H   H1465     1.0  0.72542  0.68430  0.87411  1.0000
  C   C1483     1.0  0.82693  0.62583  0.79914  1.0000
  C   C1484     1.0  0.83580  0.61848  0.78256  1.0000
  C   C1485     1.0  0.85456  0.62125  0.77359  1.0000
  C   C1486     1.0  0.86463  0.63164  0.78095  1.0000
  C   C1487     1.0  0.85596  0.63862  0.79782  1.0000
  C   C1488     1.0  0.83720  0.63565  0.80696  1.0000
  H   H1466     1.0  0.82802  0.61080  0.77644  1.0000
  H   H1467     1.0  0.86109  0.61554  0.76083  1.0000
  H   H1468     1.0  0.86366  0.64661  0.80369  1.0000
  H   H1469     1.0  0.83053  0.64139  0.81973  1.0000
  C   C1489     1.0  0.79076  0.63682  0.92226  1.0000
  C   C1490     1.0  0.77444  0.63188  0.93525  1.0000
  C   C1491     1.0  0.77547  0.62577  0.95474  1.0000
  C   C1492     1.0  0.79290  0.62431  0.96116  1.0000
  C   C1493     1.0  0.80914  0.62894  0.94805  1.0000
  C   C1494     1.0  0.80798  0.63547  0.92884  1.0000
  H   H1470     1.0  0.76094  0.63324  0.93037  1.0000
  H   H1471     1.0  0.78417  0.58689  0.82341  1.0000
  H   H1472     1.0  0.92605  0.66512  0.67018  1.0000
  N   N122      1.0  0.77086  0.67536  0.96289  1.0000
  H   H1473     1.0  0.79118  0.57716  0.84593  1.0000
  H   H1474     1.0  0.94606  0.52585  0.71941  1.0000
  C   C1495     1.0  0.87555  0.53496  0.68475  1.0000
  C   C1496     1.0  0.77082  0.57899  0.92594  1.0000
  H   H1475     1.0  0.78543  0.53343  0.79704  1.0000
  H   H1476     1.0  0.65488  0.70899  0.88800  1.0000
  H   H1477     1.0  0.94005  0.55908  0.72567  1.0000
  Fe  Fe249     1.0  0.75818  0.48904  0.83204  1.0000
  C   C1497     1.0  0.78311  0.67759  0.94584  1.0000
  H   H1478     1.0  0.82265  0.62781  0.95283  1.0000
  H   H1479     1.0  0.97971  0.50799  0.71407  1.0000
  C   C1498     1.0  0.75174  0.67517  0.96356  1.0000
  H   H1480     1.0  0.76302  0.51154  0.86182  1.0000
  H   H1481     1.0  0.75140  0.68157  0.91622  1.0000
  H   H1482     1.0  0.85332  0.66273  0.71198  1.0000
  H   H1483     1.0  0.81302  0.51113  0.84567  1.0000
  H   H1484     1.0  0.73991  0.56163  0.82520  1.0000
  C   C1499     1.0  0.79534  0.57657  0.83054  1.0000
  C   C1500     1.0  0.86658  0.50578  0.70399  1.0000
  H   H1485     1.0  0.88344  0.54242  0.67201  1.0000
  H   H1486     1.0  0.76289  0.62199  0.96472  1.0000
  C   C1501     1.0  0.88912  0.69173  0.64873  1.0000
  H   H1487     1.0  0.94399  0.68811  0.64666  1.0000
  H   H1488     1.0  0.80943  0.58149  0.82505  1.0000
  C   C1502     1.0  0.84783  0.50500  0.73604  1.0000
  C   C1503     1.0  0.85635  0.53483  0.71605  1.0000
  N   N123      1.0  0.98874  0.54914  0.72216  1.0000
  H   H1489     1.0  0.80061  0.50569  0.81842  1.0000
  N   N124      1.0  0.77108  0.56416  0.94100  1.0000
  C   C1504     1.0  0.61955  0.72694  0.96587  1.0000
  H   H1490     1.0  0.74492  0.55796  0.95852  1.0000
  C   C1505     1.0  0.78537  0.59013  0.92099  1.0000
  C   C1506     1.0  0.79993  0.58637  0.93187  1.0000
  H   H1491     1.0  0.73287  0.49637  0.93686  1.0000
  H   H1492     1.0  0.78546  0.54869  0.96374  1.0000
  H   H1493     1.0  0.71053  0.71601  0.88308  1.0000
  H   H1494     1.0  0.75933  0.58229  0.91763  1.0000
  C   C1507     1.0  0.70473  0.48862  0.94280  1.0000
  C   C1508     1.0  0.78534  0.56035  0.95171  1.0000
  H   H1495     1.0  0.85915  0.49691  0.74436  1.0000
  C   C1509     1.0  0.92864  0.68922  0.64724  1.0000
  H   H1496     1.0  0.67150  0.72502  0.84379  1.0000
  H   H1497     1.0  0.94422  0.48450  0.64508  1.0000
  H   H1498     1.0  0.60888  0.71853  0.96554  1.0000
  N   N125      1.0  0.72643  0.48803  0.91300  1.0000
  C   C1510     1.0  0.97692  0.52239  0.71711  1.0000
  H   H1499     1.0  0.75697  0.48548  0.90896  1.0000
  H   H1500     1.0  0.70155  0.49130  0.95727  1.0000
  C   C1511     1.0  0.55967  0.75388  0.18911  1.0000
  C   C1512     1.0  0.57812  0.77325  0.12602  1.0000
  H   H1501     1.0  0.54275  0.80904  0.06832  1.0000
  Fe  Fe250     1.0  0.63817  0.88653  0.28594  1.0000
  H   H1502     1.0  0.58854  0.87920  0.29915  1.0000
  S   S504      1.0  0.64878  0.86793  0.26309  1.0000
  H   H1503     1.0  0.57217  0.82371  0.27806  1.0000
  H   H1504     1.0  0.49910  0.75046  0.23017  1.0000
  S   S505      1.0  0.60199  0.75662  0.02395  1.0000
  C   C1513     1.0  0.53728  0.79429  0.00951  1.0000
  S   S506      1.0  0.61296  0.91077  0.28716  1.0000
  H   H1505     1.0  0.62254  0.83806  0.15681  1.0000
  Fe  Fe251     1.0  0.60242  0.76173  0.20659  1.0000
  S   S507      1.0  0.59084  0.79283  0.19909  1.0000
  H   H1506     1.0  0.55872  0.76808  0.24425  1.0000
  Fe  Fe252     1.0  0.64390  0.76771  0.19824  1.0000
  S   S508      1.0  0.63566  0.79968  0.18978  1.0000
  S   S509      1.0  0.61738  0.74538  0.06470  1.0000
  Fe  Fe253     1.0  0.61215  0.79759  0.21537  1.0000
  S   S510      1.0  0.59978  0.81933  0.23506  1.0000
  Fe  Fe254     1.0  0.61519  0.79224  0.17434  1.0000
  S   S511      1.0  0.60771  0.80798  0.14617  1.0000
  S   S512      1.0  0.62185  0.76614  0.22511  1.0000
  S   S513      1.0  0.62526  0.76061  0.18059  1.0000
  C   C1514     1.0  0.51248  0.75081  0.21937  1.0000
  H   H1507     1.0  0.59410  0.77510  0.98772  1.0000
  C   C1515     1.0  0.55066  0.80271  0.03354  1.0000
  H   H1508     1.0  0.56321  0.76774  0.18859  1.0000
  N   N126      1.0  0.52304  0.76494  0.22207  1.0000
  C   C1516     1.0  0.52849  0.91382  0.29342  1.0000
  H   H1509     1.0  0.65150  0.84174  0.19000  1.0000
  S   S514      1.0  0.49598  0.78110  0.16713  1.0000
  C   C1517     1.0  0.55336  0.79585  0.01655  1.0000
  S   S515      1.0  0.56309  0.76913  0.06828  1.0000
  H   H1510     1.0  0.55834  0.94191  0.29764  1.0000
  H   H1511     1.0  0.52388  0.81241  0.21072  1.0000
  Fe  Fe255     1.0  0.61934  0.78017  0.01631  1.0000
  C   C1518     1.0  0.59403  0.85831  0.20118  1.0000
  S   S516      1.0  0.63184  0.95812  0.28467  1.0000
  H   H1512     1.0  0.53282  0.89690  0.27149  1.0000
  S   S517      1.0  0.65269  0.77208  0.07426  1.0000
  H   H1513     1.0  0.55008  0.80240  0.23018  1.0000
  H   H1514     1.0  0.50974  0.95071  0.26823  1.0000
  C   C1519     1.0  0.58423  0.85231  0.18960  1.0000
  C   C1520     1.0  0.64529  0.84750  0.17681  1.0000
  Fe  Fe256     1.0  0.49721  0.75022  0.16673  1.0000
  Fe  Fe257     1.0  0.50126  0.86070  0.29710  1.0000
  C   C1521     1.0  0.58721  0.76103  0.14019  1.0000
  H   H1515     1.0  0.64937  0.86169  0.17049  1.0000
  C   C1522     1.0  0.56423  0.86739  0.29674  1.0000
  H   H1516     1.0  0.57146  0.86187  0.28402  1.0000
  S   S518      1.0  0.62320  0.79783  0.98683  1.0000
  H   H1517     1.0  0.64155  0.81244  0.28067  1.0000
  C   C1523     1.0  0.63477  0.85527  0.25469  1.0000
  C   C1524     1.0  0.61458  0.85850  0.25899  1.0000
  C   C1525     1.0  0.60406  0.84778  0.25233  1.0000
  C   C1526     1.0  0.61360  0.83349  0.24166  1.0000
  C   C1527     1.0  0.63375  0.83048  0.23708  1.0000
  C   C1528     1.0  0.64425  0.84143  0.24346  1.0000
  H   H1518     1.0  0.60712  0.86921  0.26749  1.0000
  H   H1519     1.0  0.58846  0.85032  0.25573  1.0000
  H   H1520     1.0  0.64127  0.81950  0.22890  1.0000
  H   H1521     1.0  0.65988  0.83888  0.24003  1.0000
  Fe  Fe258     1.0  0.63346  0.76989  0.05456  1.0000
  H   H1522     1.0  0.50834  0.75446  0.20508  1.0000
  C   C1529     1.0  0.53701  0.75940  0.23320  1.0000
  C   C1530     1.0  0.56297  0.92565  0.27529  1.0000
  C   C1531     1.0  0.54235  0.79194  0.22803  1.0000
  H   H1523     1.0  0.51756  0.80847  0.07173  1.0000
  C   C1532     1.0  0.62562  0.82774  0.30289  1.0000
  C   C1533     1.0  0.53838  0.90707  0.27689  1.0000
  H   H1524     1.0  0.56784  0.79161  0.00904  1.0000
  H   H1525     1.0  0.57656  0.93023  0.26848  1.0000
  H   H1526     1.0  0.53915  0.78871  0.99651  1.0000
  H   H1527     1.0  0.66017  0.76585  0.11234  1.0000
  S   S519      1.0  0.65836  0.90380  0.29152  1.0000
  H   H1528     1.0  0.52328  0.77052  0.06617  1.0000
  C   C1534     1.0  0.51878  0.80000  0.01929  1.0000
  C   C1535     1.0  0.63714  0.78408  0.12754  1.0000
  C   C1536     1.0  0.62046  0.79792  0.12632  1.0000
  C   C1537     1.0  0.61367  0.80380  0.10906  1.0000
  C   C1538     1.0  0.62323  0.79555  0.09317  1.0000
  H   H1529     1.0  0.64261  0.77963  0.14075  1.0000
  H   H1530     1.0  0.60092  0.81468  0.10798  1.0000
  H   H1531     1.0  0.61788  0.80014  0.07991  1.0000
  N   N127      1.0  0.56215  0.74826  0.12340  1.0000
  C   C1539     1.0  0.68918  0.95905  0.28641  1.0000
  C   C1540     1.0  0.64047  0.97110  0.29785  1.0000
  S   S520      1.0  0.60870  0.79100  0.04399  1.0000
  H   H1532     1.0  0.58621  0.86349  0.21400  1.0000
  C   C1541     1.0  0.51837  0.78372  0.21404  1.0000
  N   N128      1.0  0.53247  0.80749  0.04344  1.0000
  C   C1542     1.0  0.53179  0.75780  0.06126  1.0000
  C   C1543     1.0  0.54617  0.75203  0.17844  1.0000
  H   H1533     1.0  0.53965  0.76442  0.16939  1.0000
  C   C1544     1.0  0.55166  0.75340  0.06139  1.0000
  H   H1534     1.0  0.58064  0.78785  0.12162  1.0000
  C   C1545     1.0  0.52971  0.81418  0.06152  1.0000
  H   H1535     1.0  0.52653  0.83003  0.05919  1.0000
  H   H1536     1.0  0.53824  0.75326  0.10884  1.0000
  C   C1546     1.0  0.62752  0.81645  0.28917  1.0000
  H   H1537     1.0  0.50607  0.79914  0.01394  1.0000
  H   H1538     1.0  0.55887  0.77610  0.10644  1.0000
  H   H1539     1.0  0.65194  0.83740  0.16679  1.0000
  S   S521      1.0  0.58318  0.73960  0.21624  1.0000
  S   S522      1.0  0.67578  0.75552  0.19603  1.0000
  H   H1540     1.0  0.56378  0.90759  0.25520  1.0000
  H   H1541     1.0  0.50731  0.78812  0.20522  1.0000
  C   C1547     1.0  0.57117  0.73609  0.13715  1.0000
  H   H1542     1.0  0.59678  0.76615  0.14689  1.0000
  C   C1548     1.0  0.61107  0.81123  0.28579  1.0000
  S   S523      1.0  0.53370  0.85215  0.29366  1.0000
  Fe  Fe259     1.0  0.59346  0.76577  0.05239  1.0000
  Fe  Fe260     1.0  0.63231  0.92665  0.29597  1.0000
  C   C1549     1.0  0.61413  0.85675  0.19662  1.0000
  C   C1550     1.0  0.64006  0.78192  0.09428  1.0000
  H   H1543     1.0  0.61256  0.80314  0.27453  1.0000
  C   C1551     1.0  0.51665  0.80671  0.03626  1.0000
  C   C1552     1.0  0.54705  0.77275  0.23612  1.0000
  C   C1553     1.0  0.64708  0.77630  0.11145  1.0000
  H   H1544     1.0  0.68272  0.96992  0.27582  1.0000
  H   H1545     1.0  0.56871  0.85299  0.19324  1.0000
  C   C1554     1.0  0.56571  0.76655  0.11760  1.0000
  H   H1546     1.0  0.69703  0.97930  0.29964  1.0000
  C   C1555     1.0  0.52782  0.79752  0.21700  1.0000
  C   C1556     1.0  0.59455  0.84519  0.17345  1.0000
  C   C1557     1.0  0.55577  0.91300  0.26783  1.0000
  C   C1558     1.0  0.55260  0.93223  0.29177  1.0000
  H   H1547     1.0  0.56325  0.80363  0.03904  1.0000
  H   H1548     1.0  0.62167  0.86109  0.20592  1.0000
  C   C1559     1.0  0.49791  0.95209  0.28002  1.0000
  Fe  Fe261     1.0  0.62787  0.73886  0.03536  1.0000
  H   H1549     1.0  0.68132  0.93581  0.27747  1.0000
  H   H1550     1.0  0.50226  0.81112  0.04374  1.0000
  H   H1551     1.0  0.58714  0.84036  0.16436  1.0000
  S   S524      1.0  0.64590  0.76186  0.02603  1.0000
  N   N129      1.0  0.62419  0.84927  0.18104  1.0000
  C   C1560     1.0  0.61464  0.84388  0.16927  1.0000
  C   C1561     1.0  0.58380  0.74228  0.14578  1.0000
  H   H1552     1.0  0.50773  0.74961  0.05374  1.0000
  C   C1562     1.0  0.52298  0.74596  0.05424  1.0000
  N   N130      1.0  0.53550  0.92644  0.30049  1.0000
  H   H1553     1.0  0.68725  0.73495  0.04664  1.0000
  H   H1554     1.0  0.69504  0.91112  0.30278  1.0000
  C   C1563     1.0  0.69733  0.96425  0.29989  1.0000
  C   C1564     1.0  0.68831  0.93987  0.28741  1.0000
  S   S525      1.0  0.49893  0.76119  0.01083  1.0000
  H   H1555     1.0  0.52147  0.73630  0.22036  1.0000
  H   H1556     1.0  0.66283  0.73596  0.05869  1.0000
  H   H1557     1.0  0.57863  0.79855  0.28721  1.0000
  H   H1558     1.0  0.65669  0.76685  0.98095  1.0000
  N   N131      1.0  0.59323  0.81705  0.29586  1.0000
  C   C1565     1.0  0.57601  0.81313  0.29068  1.0000
  C   C1566     1.0  0.57388  0.87724  0.30526  1.0000
  C   C1567     1.0  0.54526  0.86474  0.30458  1.0000
  C   C1568     1.0  0.54937  0.74138  0.11419  1.0000
  C   C1569     1.0  0.63810  0.73873  0.98332  1.0000
  H   H1559     1.0  0.64194  0.73905  0.99675  1.0000
  C   C1570     1.0  0.56255  0.73678  0.05528  1.0000
  C   C1571     1.0  0.69595  0.92608  0.30157  1.0000
  H   H1560     1.0  0.54102  0.74446  0.23930  1.0000
  H   H1561     1.0  0.63819  0.83249  0.30511  1.0000
  H   H1562     1.0  0.55795  0.73479  0.10197  1.0000
  C   C1572     1.0  0.49466  0.96775  0.28932  1.0000
  C   C1573     1.0  0.56807  0.73781  0.20091  1.0000
  H   H1563     1.0  0.56333  0.81427  0.30234  1.0000
  H   H1564     1.0  0.68145  0.73465  0.07200  1.0000
  H   H1565     1.0  0.70717  0.73254  0.15537  1.0000
  H   H1566     1.0  0.71351  0.73321  0.19693  1.0000
  C   C1574     1.0  0.54165  0.73401  0.17907  1.0000
  Fe  Fe262     1.0  0.49641  0.73264  0.02896  1.0000
  H   H1567     1.0  0.51522  0.90877  0.30062  1.0000
  H   H1568     1.0  0.57786  0.73317  0.05563  1.0000
  H   H1569     1.0  0.59045  0.73276  0.15709  1.0000
  N   N132      1.0  0.94359  0.77024  0.47704  1.0000
  H   H1570     1.0  0.79728  0.97516  0.58606  1.0000
  C   C1575     1.0  0.85760  0.87339  0.36478  1.0000
  Fe  Fe263     1.0  0.76115  0.92279  0.56617  1.0000
  S   S526      1.0  0.73588  0.90767  0.57808  1.0000
  S   S527      1.0  0.75275  0.95429  0.55528  1.0000
  Fe  Fe264     1.0  0.79060  0.88626  0.57403  1.0000
  S   S528      1.0  0.76749  0.86871  0.58733  1.0000
  S   S529      1.0  0.82268  0.87426  0.56818  1.0000
  Fe  Fe265     1.0  0.75329  0.88445  0.56252  1.0000
  S   S530      1.0  0.74000  0.86731  0.54812  1.0000
  Fe  Fe266     1.0  0.75231  0.89369  0.60162  1.0000
  S   S531      1.0  0.73976  0.89193  0.63300  1.0000
  S   S532      1.0  0.77705  0.90075  0.54839  1.0000
  S   S533      1.0  0.77686  0.91010  0.59047  1.0000
  C   C1576     1.0  0.82454  0.79919  0.44032  1.0000
  C   C1577     1.0  0.80949  0.80231  0.43013  1.0000
  Fe  Fe267     1.0  0.93019  0.77182  0.56269  1.0000
  C   C1578     1.0  0.85575  0.84191  0.34991  1.0000
  H   H1571     1.0  0.96529  0.74036  0.44300  1.0000
  H   H1572     1.0  0.88062  0.75956  0.52771  1.0000
  C   C1579     1.0  0.67665  0.91261  0.35248  1.0000
  C   C1580     1.0  0.89876  0.73837  0.51220  1.0000
  H   H1573     1.0  0.95668  0.75932  0.59060  1.0000
  S   S534      1.0  0.93702  0.74015  0.56507  1.0000
  H   H1574     1.0  0.83560  0.78648  0.43981  1.0000
  H   H1575     1.0  0.70428  0.90825  0.47678  1.0000
  Fe  Fe268     1.0  0.73676  0.91450  0.39815  1.0000
  S   S535      1.0  0.76317  0.92813  0.39415  1.0000
  Fe  Fe269     1.0  0.74398  0.89198  0.43722  1.0000
  S   S536      1.0  0.77007  0.90424  0.43616  1.0000
  S   S537      1.0  0.73441  0.87017  0.46232  1.0000
  Fe  Fe270     1.0  0.75297  0.93217  0.42441  1.0000
  S   S538      1.0  0.74979  0.95802  0.43816  1.0000
  Fe  Fe271     1.0  0.77784  0.89868  0.40625  1.0000
  S   S539      1.0  0.80934  0.88525  0.39861  1.0000
  S   S540      1.0  0.72594  0.92018  0.42788  1.0000
  S   S541      1.0  0.75236  0.88468  0.40785  1.0000
  S   S542      1.0  0.89261  0.76511  0.37916  1.0000
  S   S543      1.0  0.88423  0.79023  0.41316  1.0000
  Fe  Fe272     1.0  0.86670  0.78167  0.39557  1.0000
  S   S544      1.0  0.84214  0.80139  0.38259  1.0000
  Fe  Fe273     1.0  0.90947  0.77103  0.39925  1.0000
  S   S545      1.0  0.93875  0.77973  0.38803  1.0000
  H   H1576     1.0  0.69937  0.96301  0.33848  1.0000
  H   H1577     1.0  0.69909  0.89604  0.51154  1.0000
  C   C1581     1.0  0.95716  0.77001  0.40169  1.0000
  C   C1582     1.0  0.97585  0.77423  0.39500  1.0000
  N   N133      1.0  0.80891  0.83207  0.54533  1.0000
  Fe  Fe274     1.0  0.87826  0.76355  0.43358  1.0000
  H   H1578     1.0  0.82721  0.85238  0.53167  1.0000
  C   C1583     1.0  0.95350  0.75772  0.41899  1.0000
  H   H1579     1.0  0.97882  0.78371  0.38159  1.0000
  C   C1584     1.0  0.84234  0.87399  0.35555  1.0000
  C   C1585     1.0  0.99073  0.76636  0.40567  1.0000
  H   H1580     1.0  0.93926  0.75436  0.42431  1.0000
  C   C1586     1.0  0.81618  0.86069  0.39744  1.0000
  C   C1587     1.0  0.83333  0.85060  0.40356  1.0000
  C   C1588     1.0  0.84089  0.83195  0.40005  1.0000
  C   C1589     1.0  0.83155  0.82343  0.38999  1.0000
  H   H1581     1.0  0.83736  0.81033  0.45869  1.0000
  H   H1582     1.0  0.52133  0.86988  0.32721  1.0000
  H   H1583     1.0  0.84114  0.85749  0.41049  1.0000
  H   H1584     1.0  0.85436  0.82454  0.40438  1.0000
  H   H1585     1.0  0.80902  0.79222  0.42130  1.0000
  C   C1590     1.0  0.88522  0.82402  0.36154  1.0000
  C   C1591     1.0  0.73738  0.93507  0.52194  1.0000
  H   H1586     1.0  0.73984  0.94553  0.48446  1.0000
  H   H1587     1.0  0.80670  0.82675  0.37672  1.0000
  C   C1592     1.0  0.54554  0.88192  0.32949  1.0000
  C   C1593     1.0  0.89401  0.74131  0.47964  1.0000
  H   H1588     1.0  0.52377  0.94922  0.31577  1.0000
  H   H1589     1.0  0.97776  0.76827  0.51198  1.0000
  C   C1594     1.0  0.60743  0.83325  0.31338  1.0000
  S   S546      1.0  0.85655  0.78562  0.58754  1.0000
  C   C1595     1.0  0.76031  0.97025  0.56603  1.0000
  H   H1590     1.0  0.72457  0.93342  0.46341  1.0000
  C   C1596     1.0  0.82552  0.81266  0.45093  1.0000
  C   C1597     1.0  0.74066  0.86815  0.52375  1.0000
  C   C1598     1.0  0.75109  0.87989  0.50917  1.0000
  C   C1599     1.0  0.74969  0.88062  0.49001  1.0000
  C   C1600     1.0  0.73800  0.86950  0.48558  1.0000
  C   C1601     1.0  0.72826  0.85743  0.50018  1.0000
  C   C1602     1.0  0.72954  0.85680  0.51907  1.0000
  H   H1591     1.0  0.75981  0.88865  0.51266  1.0000
  H   H1592     1.0  0.75733  0.88997  0.47879  1.0000
  H   H1593     1.0  0.71932  0.84873  0.49691  1.0000
  H   H1594     1.0  0.72153  0.84764  0.53020  1.0000
  H   H1595     1.0  0.60285  0.96410  0.33314  1.0000
  C   C1603     1.0  0.77739  0.96529  0.57357  1.0000
  H   H1596     1.0  0.86360  0.77615  0.50105  1.0000
  C   C1604     1.0  0.87955  0.75729  0.48187  1.0000
  C   C1605     1.0  0.70114  0.90373  0.62964  1.0000
  H   H1597     1.0  0.82937  0.85837  0.34115  1.0000
  H   H1598     1.0  0.78596  0.95116  0.57338  1.0000
  H   H1599     1.0  0.68082  0.93771  0.36137  1.0000
  H   H1600     1.0  0.99003  0.75961  0.54891  1.0000
  H   H1601     1.0  0.57682  0.97048  0.33580  1.0000
  C   C1606     1.0  0.84795  0.81056  0.58375  1.0000
  C   C1607     1.0  0.82821  0.81724  0.58956  1.0000
  C   C1608     1.0  0.82038  0.83679  0.58537  1.0000
  C   C1609     1.0  0.83226  0.84987  0.57535  1.0000
  C   C1610     1.0  0.85210  0.84326  0.56993  1.0000
  C   C1611     1.0  0.85995  0.82367  0.57409  1.0000
  H   H1602     1.0  0.81886  0.80720  0.59713  1.0000
  H   H1603     1.0  0.80514  0.84168  0.58979  1.0000
  H   H1604     1.0  0.86141  0.85331  0.56225  1.0000
  H   H1605     1.0  0.87518  0.81871  0.56959  1.0000
  H   H1606     1.0  0.71453  0.90855  0.53233  1.0000
  H   H1607     1.0  0.69777  0.96642  0.38300  1.0000
  C   C1612     1.0  0.99063  0.77112  0.55590  1.0000
  H   H1608     1.0  0.96823  0.77302  0.45514  1.0000
  C   C1613     1.0  0.78383  0.97893  0.58065  1.0000
  H   H1609     1.0  0.78032  0.93938  0.63767  1.0000
  H   H1610     1.0  0.96346  0.81241  0.56819  1.0000
  C   C1614     1.0  0.59130  0.82767  0.30971  1.0000
  H   H1611     1.0  0.79463  0.85933  0.55135  1.0000
  H   H1612     1.0  0.77952  0.84156  0.55776  1.0000
  H   H1613     1.0  0.75277  0.92801  0.52045  1.0000
  C   C1615     1.0  0.64715  0.96229  0.31475  1.0000
  H   H1614     1.0  0.76115  0.96952  0.39737  1.0000
  C   C1616     1.0  0.71181  0.95668  0.32853  1.0000
  H   H1615     1.0  0.88334  0.85640  0.37394  1.0000
  H   H1616     1.0  0.60571  0.84218  0.32398  1.0000
  H   H1617     1.0  0.70581  0.90452  0.61452  1.0000
  Fe  Fe275     1.0  0.91860  0.73933  0.59392  1.0000
  S   S547      1.0  0.71534  0.92715  0.37784  1.0000
  C   C1617     1.0  0.79150  0.84676  0.54691  1.0000
  H   H1618     1.0  0.87954  0.81108  0.36100  1.0000
  S   S548      1.0  0.67291  0.88005  0.34031  1.0000
  H   H1619     1.0  0.53313  0.92664  0.32974  1.0000
  Fe  Fe276     1.0  0.88655  0.73984  0.40164  1.0000
  C   C1618     1.0  0.56453  0.88456  0.32164  1.0000
  H   H1620     1.0  0.83089  0.88642  0.35489  1.0000
  N   N134      1.0  0.79635  0.83188  0.44155  1.0000
  C   C1619     1.0  0.79547  0.81888  0.43084  1.0000
  C   C1620     1.0  0.81128  0.82910  0.45129  1.0000
  C   C1621     1.0  0.78183  0.84938  0.44187  1.0000
  H   H1621     1.0  0.78406  0.82143  0.42252  1.0000
  H   H1622     1.0  0.81225  0.83968  0.45933  1.0000
  H   H1623     1.0  0.76823  0.84776  0.43791  1.0000
  H   H1624     1.0  0.77777  0.85310  0.45633  1.0000
  H   H1625     1.0  0.78755  0.86146  0.43182  1.0000
  C   C1622     1.0  0.87482  0.76384  0.49924  1.0000
  C   C1623     1.0  0.80778  0.81325  0.55233  1.0000
  H   H1626     1.0  0.88989  0.82146  0.37553  1.0000
  N   N135      1.0  0.72752  0.92827  0.50973  1.0000
  C   C1624     1.0  0.71625  0.91455  0.51729  1.0000
  C   C1625     1.0  0.73055  0.93498  0.49061  1.0000
  C   C1626     1.0  0.70745  0.90739  0.50561  1.0000
  C   C1627     1.0  0.72196  0.92814  0.47856  1.0000
  C   C1628     1.0  0.71041  0.91420  0.48610  1.0000
  H   H1627     1.0  0.93491  0.77950  0.44991  1.0000
  C   C1629     1.0  0.75516  0.94092  0.62536  1.0000
  Fe  Fe277     1.0  0.90970  0.74325  0.55390  1.0000
  C   C1630     1.0  0.97457  0.78579  0.55814  1.0000
  C   C1631     1.0  0.84145  0.85822  0.34793  1.0000
  C   C1632     1.0  0.80621  0.85173  0.38843  1.0000
  S   S549      1.0  0.57622  0.89727  0.33226  1.0000
  C   C1633     1.0  0.96118  0.73411  0.37828  1.0000
  C   C1634     1.0  0.81402  0.83324  0.38451  1.0000
  H   H1628     1.0  0.85457  0.82947  0.34453  1.0000
  C   C1635     1.0  0.96069  0.75992  0.60428  1.0000
  N   N136      1.0  0.74058  0.95259  0.61694  1.0000
  H   H1629     1.0  0.66415  0.91987  0.34619  1.0000
  H   H1630     1.0  0.73203  0.92899  0.60971  1.0000
  S   S550      1.0  0.95454  0.78736  0.54725  1.0000
  S   S551      1.0  0.90394  0.77518  0.54930  1.0000
  H   H1631     1.0  0.89797  0.82546  0.35010  1.0000
  H   H1632     1.0  0.91547  0.77662  0.46949  1.0000
  Fe  Fe278     1.0  0.64944  0.89234  0.32240  1.0000
  C   C1636     1.0  0.75869  0.98195  0.40403  1.0000
  C   C1637     1.0  0.88447  0.75449  0.51434  1.0000
  H   H1633     1.0  0.79308  0.85946  0.38349  1.0000
  H   H1634     1.0  0.64685  0.94728  0.32007  1.0000
  S   S552      1.0  0.85927  0.75586  0.41664  1.0000
  H   H1635     1.0  0.53832  0.88745  0.34225  1.0000
  C   C1638     1.0  0.87169  0.85687  0.36647  1.0000
  C   C1639     1.0  0.84217  0.80448  0.54234  1.0000
  C   C1640     1.0  0.98687  0.75429  0.42311  1.0000
  N   N137      1.0  0.87043  0.84128  0.35938  1.0000
  C   C1641     1.0  0.75341  0.98014  0.42375  1.0000
  H   H1636     1.0  0.85527  0.79381  0.54205  1.0000
  C   C1642     1.0  0.97561  0.80081  0.56681  1.0000
  C   C1643     1.0  0.53589  0.87205  0.32096  1.0000
  C   C1644     1.0  0.97527  0.77060  0.48264  1.0000
  N   N138      1.0  0.98056  0.74996  0.60498  1.0000
  H   H1637     1.0  0.72171  0.88673  0.37507  1.0000
  H   H1638     1.0  0.66046  0.96571  0.33730  1.0000
  C   C1645     1.0  0.70253  0.91347  0.36918  1.0000
  S   S553      1.0  0.62447  0.91628  0.32716  1.0000
  C   C1646     1.0  0.70911  0.89399  0.36894  1.0000
  H   H1639     1.0  0.72689  0.98127  0.60833  1.0000
  H   H1640     1.0  0.70499  0.86892  0.35998  1.0000
  N   N139      1.0  0.70469  0.95066  0.31379  1.0000
  C   C1647     1.0  0.68353  0.89321  0.35187  1.0000
  Fe  Fe279     1.0  0.88766  0.77152  0.57924  1.0000
  C   C1648     1.0  0.69965  0.88394  0.36031  1.0000
  C   C1649     1.0  0.96264  0.77140  0.47024  1.0000
  H   H1641     1.0  0.85697  0.82802  0.52888  1.0000
  C   C1650     1.0  0.82624  0.83737  0.53662  1.0000
  H   H1642     1.0  0.99051  0.73732  0.37655  1.0000
  H   H1643     1.0  0.85807  0.88544  0.37115  1.0000
  H   H1644     1.0  0.72502  0.95166  0.59558  1.0000
  H   H1645     1.0  0.95884  0.74520  0.36607  1.0000
  S   S554      1.0  0.91345  0.77124  0.59241  1.0000
  C   C1651     1.0  0.70431  0.93175  0.31460  1.0000
  S   S555      1.0  0.63109  0.87327  0.31661  1.0000
  H   H1646     1.0  0.98991  0.77357  0.61131  1.0000
  H   H1647     1.0  0.79409  0.80907  0.55946  1.0000
  H   H1648     1.0  0.78637  0.85141  0.53310  1.0000
  Fe  Fe280     1.0  0.60705  0.89856  0.31816  1.0000
  H   H1649     1.0  0.93108  0.75576  0.46182  1.0000
  C   C1652     1.0  0.68614  0.92268  0.36110  1.0000
  C   C1653     1.0  0.82441  0.79919  0.55106  1.0000
  H   H1650     1.0  0.73064  0.93202  0.53714  1.0000
  H   H1651     1.0  0.82370  0.78440  0.55746  1.0000
  C   C1654     1.0  0.84312  0.82367  0.53498  1.0000
  C   C1655     1.0  0.93065  0.77055  0.46391  1.0000
  C   C1656     1.0  0.94897  0.76701  0.50892  1.0000
  H   H1652     1.0  0.94346  0.76525  0.52403  1.0000
  C   C1657     1.0  0.96829  0.74984  0.42959  1.0000
  S   S556      1.0  0.90486  0.74486  0.42101  1.0000
  H   H1653     1.0  0.71812  0.96911  0.40556  1.0000
  C   C1658     1.0  0.65492  0.97274  0.32447  1.0000
  H   H1654     1.0  0.72125  0.96750  0.32215  1.0000
  S   S557      1.0  0.86699  0.76938  0.46338  1.0000
  C   C1659     1.0  0.72686  0.94440  0.61023  1.0000
  H   H1655     1.0  0.73671  0.95080  0.51810  1.0000
  H   H1656     1.0  0.71007  0.92091  0.32563  1.0000
  H   H1657     1.0  0.67097  0.91289  0.62763  1.0000
  C   C1660     1.0  0.96829  0.76859  0.50211  1.0000
  C   C1661     1.0  0.93676  0.76779  0.49614  1.0000
  H   H1658     1.0  0.77706  0.97483  0.63352  1.0000
  H   H1659     1.0  0.92179  0.76651  0.50163  1.0000
  C   C1662     1.0  0.69796  0.98031  0.38618  1.0000
  S   S558      1.0  0.89172  0.73931  0.58298  1.0000
  H   H1660     1.0  0.95885  0.77529  0.60521  1.0000
  C   C1663     1.0  0.59063  0.97160  0.32573  1.0000
  H   H1661     1.0  0.71270  0.94577  0.61993  1.0000
  H   H1662     1.0  0.72035  0.94446  0.33691  1.0000
  H   H1663     1.0  0.57717  0.83234  0.31768  1.0000
  C   C1664     1.0  0.76850  0.94870  0.63145  1.0000
  C   C1665     1.0  0.73839  0.97202  0.61508  1.0000
  H   H1664     1.0  0.95054  0.75304  0.61612  1.0000
  C   C1666     1.0  0.52513  0.93340  0.31788  1.0000
  H   H1665     1.0  0.51022  0.93016  0.32181  1.0000
  H   H1666     1.0  0.75669  0.92549  0.62723  1.0000
  H   H1667     1.0  0.89764  0.73609  0.46633  1.0000
  H   H1668     1.0  0.59141  0.96402  0.31384  1.0000
  C   C1667     1.0  0.76659  0.96852  0.62928  1.0000
  C   C1668     1.0  0.68137  0.90843  0.63712  1.0000
  H   H1669     1.0  0.87795  0.73447  0.36182  1.0000
  C   C1669     1.0  0.75128  0.98027  0.62131  1.0000
  H   H1670     1.0  0.99037  0.77147  0.47711  1.0000
  C   C1670     1.0  0.99261  0.80138  0.57299  1.0000
  C   C1671     1.0  0.70936  0.98180  0.39886  1.0000
  Fe  Fe281     1.0  0.60050  0.90062  0.72290  1.0000
  S   S559      1.0  0.60729  0.90964  0.74775  1.0000
  S   S560      1.0  0.57556  0.88503  0.72708  1.0000
  Fe  Fe282     1.0  0.63740  0.91111  0.69684  1.0000
  S   S561      1.0  0.64733  0.92075  0.71991  1.0000
  Fe  Fe283     1.0  0.63728  0.89444  0.73888  1.0000
  S   S562      1.0  0.65416  0.87307  0.75958  1.0000
  Fe  Fe284     1.0  0.61634  0.93510  0.72680  1.0000
  S   S563      1.0  0.60423  0.96449  0.73452  1.0000
  S   S564      1.0  0.63002  0.88379  0.71511  1.0000
  S   S565      1.0  0.60695  0.92714  0.70261  1.0000
  C   C1672     1.0  0.64397  0.83188  0.80606  1.0000
  H   H1671     1.0  0.55276  0.77272  0.94098  1.0000
  C   C1673     1.0  0.64153  0.74858  0.94992  1.0000
  H   H1672     1.0  0.53813  0.93928  0.69019  1.0000
  H   H1673     1.0  0.63707  0.83510  0.75122  1.0000
  C   C1674     1.0  0.54369  0.76941  0.88954  1.0000
  H   H1674     1.0  0.67492  0.75220  0.96647  1.0000
  C   C1675     1.0  0.55051  0.77510  0.83448  1.0000
  S   S566      1.0  0.59432  0.73459  0.85183  1.0000
  H   H1675     1.0  0.62218  0.89602  0.80816  1.0000
  H   H1676     1.0  0.59956  0.78691  0.79721  1.0000
  C   C1676     1.0  0.62312  0.83287  0.75966  1.0000
  C   C1677     1.0  0.53781  0.77062  0.94129  1.0000
  H   H1677     1.0  0.57949  0.93758  0.64479  1.0000
  H   H1678     1.0  0.66889  0.93215  0.74782  1.0000
  H   H1679     1.0  0.57566  0.85310  0.76429  1.0000
  C   C1678     1.0  0.53809  0.74545  0.84517  1.0000
  H   H1680     1.0  0.67820  0.92147  0.76939  1.0000
  S   S567      1.0  0.59347  0.77259  0.92184  1.0000
  H   H1681     1.0  0.71876  0.89209  0.67091  1.0000
  H   H1682     1.0  0.63765  0.94912  0.75608  1.0000
  H   H1683     1.0  0.59195  0.80319  0.81407  1.0000
  N   N140      1.0  0.64608  0.74936  0.96693  1.0000
  H   H1684     1.0  0.61695  0.79443  0.80744  1.0000
  S   S568      1.0  0.59509  0.78244  0.86754  1.0000
  C   C1679     1.0  0.52353  0.91502  0.69899  1.0000
  C   C1680     1.0  0.59294  0.86762  0.68557  1.0000
  C   C1681     1.0  0.60054  0.91565  0.65750  1.0000
  H   H1685     1.0  0.68383  0.90029  0.68408  1.0000
  C   C1682     1.0  0.62551  0.90787  0.79693  1.0000
  H   H1686     1.0  0.61224  0.92383  0.65272  1.0000
  C   C1683     1.0  0.62811  0.73747  0.94914  1.0000
  C   C1684     1.0  0.62424  0.83699  0.81283  1.0000
  H   H1687     1.0  0.49630  0.78970  0.89797  1.0000
  C   C1685     1.0  0.55527  0.89718  0.71696  1.0000
  C   C1686     1.0  0.54007  0.88747  0.71809  1.0000
  S   S569      1.0  0.62442  0.74522  0.88451  1.0000
  C   C1687     1.0  0.53860  0.92486  0.69806  1.0000
  C   C1688     1.0  0.55442  0.91598  0.70711  1.0000
  H   H1688     1.0  0.54065  0.87290  0.72566  1.0000
  H   H1689     1.0  0.56604  0.92359  0.70622  1.0000
  C   C1689     1.0  0.71473  0.89780  0.64178  1.0000
  H   H1690     1.0  0.66006  0.77357  0.95586  1.0000
  S   S570      1.0  0.50430  0.92601  0.68688  1.0000
  N   N141      1.0  0.58911  0.88697  0.67464  1.0000
  C   C1690     1.0  0.68856  0.90133  0.66892  1.0000
  C   C1691     1.0  0.61128  0.92374  0.79295  1.0000
  H   H1691     1.0  0.64258  0.96860  0.71280  1.0000
  H   H1692     1.0  0.50406  0.78607  0.93000  1.0000
  C   C1692     1.0  0.57118  0.89425  0.67006  1.0000
  H   H1693     1.0  0.58038  0.77363  0.83606  1.0000
  C   C1693     1.0  0.61367  0.85330  0.80315  1.0000
  C   C1694     1.0  0.62263  0.86433  0.78678  1.0000
  C   C1695     1.0  0.64237  0.85933  0.78003  1.0000
  C   C1696     1.0  0.65302  0.84313  0.78981  1.0000
  Fe  Fe285     1.0  0.64863  0.75953  0.86712  1.0000
  H   H1694     1.0  0.59839  0.85735  0.80829  1.0000
  H   H1695     1.0  0.61423  0.87671  0.77943  1.0000
  H   H1696     1.0  0.66833  0.83918  0.78475  1.0000
  C   C1697     1.0  0.61578  0.79185  0.93508  1.0000
  C   C1698     1.0  0.62205  0.79746  0.94969  1.0000
  C   C1699     1.0  0.60378  0.89731  0.66830  1.0000
  Fe  Fe286     1.0  0.62133  0.79448  0.85089  1.0000
  H   H1697     1.0  0.62186  0.79651  0.92040  1.0000
  H   H1698     1.0  0.63295  0.80647  0.94619  1.0000
  C   C1700     1.0  0.57169  0.74617  0.84596  1.0000
  C   C1701     1.0  0.56867  0.76573  0.83862  1.0000
  C   C1702     1.0  0.51539  0.78172  0.91859  1.0000
  S   S571      1.0  0.63581  0.76703  0.84029  1.0000
  H   H1699     1.0  0.57953  0.86355  0.69488  1.0000
  C   C1703     1.0  0.52515  0.77755  0.88592  1.0000
  H   H1700     1.0  0.59894  0.85720  0.67581  1.0000
  C   C1704     1.0  0.60148  0.78044  0.93953  1.0000
  S   S572      1.0  0.64993  0.91302  0.66550  1.0000
  S   S573      1.0  0.63602  0.78800  0.87654  1.0000
  C   C1705     1.0  0.51089  0.78377  0.90051  1.0000
  H   H1701     1.0  0.59676  0.92439  0.80112  1.0000
  S   S574      1.0  0.51250  0.77783  0.83307  1.0000
  C   C1706     1.0  0.56743  0.91255  0.65928  1.0000
  Fe  Fe287     1.0  0.61087  0.77385  0.89211  1.0000
  H   H1702     1.0  0.63493  0.80801  0.77808  1.0000
  C   C1707     1.0  0.53515  0.76503  0.83780  1.0000
  N   N142      1.0  0.60436  0.81535  0.78618  1.0000
  S   S575      1.0  0.61181  0.82347  0.83298  1.0000
  H   H1703     1.0  0.55487  0.76439  0.87836  1.0000
  H   H1704     1.0  0.65499  0.89466  0.78906  1.0000
  C   C1708     1.0  0.58866  0.84309  0.76720  1.0000
  H   H1705     1.0  0.49985  0.93576  0.73357  1.0000
  H   H1706     1.0  0.51272  0.88862  0.70980  1.0000
  C   C1709     1.0  0.58788  0.82772  0.78239  1.0000
  C   C1710     1.0  0.52420  0.89638  0.70918  1.0000
  H   H1707     1.0  0.57405  0.82584  0.79127  1.0000
  C   C1711     1.0  0.62181  0.81765  0.77495  1.0000
  C   C1712     1.0  0.60313  0.79911  0.80190  1.0000
  C   C1713     1.0  0.63445  0.93748  0.76762  1.0000
  N   N143      1.0  0.64827  0.92178  0.77152  1.0000
  H   H1708     1.0  0.55302  0.91840  0.65612  1.0000
  H   H1709     1.0  0.55950  0.88610  0.67510  1.0000
  H   H1710     1.0  0.52774  0.78072  0.94984  1.0000
  C   C1714     1.0  0.64406  0.90718  0.78606  1.0000
  H   H1711     1.0  0.60479  0.95106  0.77492  1.0000
  C   C1715     1.0  0.67498  0.90718  0.65678  1.0000
  H   H1712     1.0  0.67232  0.90671  0.75515  1.0000
  H   H1713     1.0  0.53611  0.75585  0.94854  1.0000
  Fe  Fe288     1.0  0.61050  0.75487  0.85874  1.0000
  H   H1714     1.0  0.50757  0.96712  0.70571  1.0000
  H   H1715     1.0  0.61811  0.89146  0.67164  1.0000
  H   H1716     1.0  0.52177  0.77888  0.87189  1.0000
  H   H1717     1.0  0.60333  0.86677  0.69514  1.0000
  C   C1716     1.0  0.61577  0.93870  0.77828  1.0000
  C   C1717     1.0  0.59355  0.77465  0.95858  1.0000
  S   S576      1.0  0.67860  0.74432  0.87210  1.0000
  C   C1718     1.0  0.54769  0.76756  0.90779  1.0000
  H   H1718     1.0  0.54829  0.79026  0.82886  1.0000
  H   H1719     1.0  0.65230  0.81941  0.81343  1.0000
  H   H1720     1.0  0.58251  0.76579  0.96213  1.0000
  C   C1719     1.0  0.70835  0.89669  0.66143  1.0000
  C   C1720     1.0  0.66788  0.92055  0.76042  1.0000
  C   C1721     1.0  0.60641  0.84566  0.75584  1.0000
  N   N144      1.0  0.53363  0.77376  0.92201  1.0000
  H   H1721     1.0  0.60722  0.85773  0.74428  1.0000
  H   H1722     1.0  0.64784  0.75699  0.93689  1.0000
  H   H1723     1.0  0.56209  0.76104  0.91053  1.0000
  C   C1722     1.0  0.58222  0.92332  0.65305  1.0000
  C   C1723     1.0  0.50019  0.97436  0.71746  1.0000
  H   H1724     1.0  0.49919  0.74807  0.92375  1.0000
  H   H1725     1.0  0.52630  0.73760  0.84780  1.0000
  C   C1724     1.0  0.55642  0.73599  0.84908  1.0000
  C   C1725     1.0  0.61444  0.79127  0.96879  1.0000
  C   C1726     1.0  0.66023  0.76098  0.96754  1.0000
  H   H1726     1.0  0.49421  0.81040  0.80005  1.0000
  H   H1727     1.0  0.62395  0.73756  0.93571  1.0000
  H   H1728     1.0  0.49809  0.83881  0.77765  1.0000
  C   C1727     1.0  0.63512  0.98239  0.71608  1.0000
  C   C1728     1.0  0.60019  0.77982  0.97316  1.0000
