data_image0
_chemical_formula_structural       FeS2CSFeSFeS3H9SH2FeC8H3C6H2NC3HSC2HSH2SHFeHFeH2CSHS2CSC2H2FeCFe3SC3H2CHNHSCHFeH2CHCSH2FeHS2CSC2SNHFeS2FeHFeSH6SC3HFeSH3FeSFeS2FeSFeHS2CS2C6H4S2H3C4HCH2CHC4NH2C2HNC2HCFeHCSFeS2C4H2CH2C2SH4CH2C8H4CSC2HCH2C6HCFeH2SC2SNC2HC3HCSHC2H3C2HSCH2Fe2HSHN3C6H8CSH2CHCFeHCHFeHC2FeCHCSH2S2HSFeH3C2NSHC3HC3H2SHSHFeS2FeS2FeSFeS5CFeS2FeS2FeSFeS3CH2C4SC2SFeS2FeS2FeSFeS3HSHFeS2C6H4C6H2C8H6CH2S2H2CH2C6H5C3H7C6H4C6H4C6H4C2H3CNCHC6H4N2HCHCHC2HFeH4CH2NC6H9CFeHFeHNC2HCH2C2HCHCHCNH3CFeH2CHNHC6H2SH2CSFeCNC3H3CH3CNC6H9C2H3C3H2CHCHNC2SCH2C5HSH2CHC3SCNC2H4C2NH2NHC3HCH3C2HCH3SHCH2CH2FeSCFeHCSFeS2FeS2FeHFeS3HS2FeSFeSFeS2CHFeHC2HCSCHC6H4C6H4C6HCH2CHFeC2SH2CH2C3H5FeSCNCSHNC3H4SH4SC3HC3H4CHCFeHNCNSFeH2CHCH2C3SCHCH2SC2HCH4CHC2HCHCFeS2FeS2FeSFeS3CH2SC2HNHCFeCSHCSCSH2C2HNHSHC6H4C6H4C6H10C5H2NHC7H4C2NC5HFeNHC2H3CHSCHC3FeHNC5HC2HCH4SHSH4CHC3H2CH7NHCHSH3C3HS3HCFeS2CH2FeSHFeS2FeS2HFeSC3FeCFeSFeHS2H2SHFeSFeSH2FeS2FeS2FeSFeS3NCH2C5H4C6H3C6H4C3SC2H3C2HC6H4C2HSC2HSH2CHC4H5CSCHC2H2C7H4CSH3C4HCH2FeHSHCHCFeHCH2CNC2HCHCH2CH6NC6H3SCHCHNC6H2SCFeCH2FeCHC2H2CHFeC3HSCHNSHCSC3SFeH2FeNC6H4SH2NHCH3CH2CHC2HFeS2FeS2Fe2S3FeS2FeSCFeSFeS3C4SC2FeH2FeS2FeS2FeSFeS3H2CNHCFeSHCHC3H3C2HCHCHC7H3C6H4CH3C7H5C6H7CHC5H2C6H4C6H5C6H4S2C3H2CH3NHC2HNHNC3HC2H3SCHCHCH3C4HSCNC2HCHCH4CH2C2HNH2CH3CHNH2NH6CSC2HCH2C4HNC2H2C3SH2FeCHC2HC3NC2H2CH3SCH3CH5SH3SH8CSCFeSH2CNSNH3SC2FeSFeS2FeSFeS3FeS2H2FeSFeSH2SC2SCFeHCH2CSCSCSC3SHC2H2CHC6H3FeH2C9H4C3HC7H4C6H4C3SH5NC7H2CNHNCH5CSCH2CH3SHC2HFeH2C3HCHCSCHC2HCHCSFeHC2H3FeH2NC2HNC2H3NH5C2H2CHC2HSCHCNH2SHCH3C2H2SHSCH2SH2CNC2SCH2SH2FeS2FeS2FeSFeS3C4HFeH2CNCS2FeS4C2HCH2FeS3CSHFeCSFeS2C10H3CHCHC4HFeSCH2CSFe2HC6H4C6H4CHC4FeH3C6H7FeSH2NC6H3SH4C4HNH3CH4CNC6H9C2NCH3C3SHSCNC6H2SC3H2CSH2CH2C2HS2C2HSC3H2CHSCHCSCHFeCH2SC2H2FeSFeSH2CH2SCHSHC4SFeH2CH6CH2C2FeH2CHCH2SHC3FeC2H3NC4NHCHNCH4C2HCFeHCSFeHNHCHCNSC3HFeNCHCH3CHC3HSH2CH5CH2CH3CH3CH3C2H2CH3S2CFeS2H2CH2C2HSFeS2FeS2FeSFeS3FeHCHC6H4CSC5H2CFeCHCSHSC6H6C6H5C3HCFeSH2CHSH4C4SCHCH2CSHFeH4CSFeCHCS3N2C6H8NC5HC2H3C2HNC2HNC6H8NC4HCH2CH2C2H3CHCHS2C2H4FeCSNHS2C2FeHC2HSH2SH2S2FeSC8H2S2FeC2H3FeHCHCHFeHC2HCH2SC4HNC4H6CSNH4CHCSHFeC2HCHSFeHCH6CHCHCFeS2FeS2FeSFeS3FeSFeS2FeSFeS3HSHFeS2FeSHSNHS3HFeS2FeS2FeSFeS3HCHSFeS2FeS2FeSFeS3HN2CH5SC3H2CHC2HC6H5C7H6CSC7H4C6H2C6H4C6H4C6SCH2CHSCHCHCSHC4H3C6H7C4H3C6HCHC4FeHC3HFeC5H2C2H2C3HCHCHCH3CH2NC6H2CH3NHCNCHCH3CH2C3NC6H8NCH2C2NH5SH2FeHC2H2FeSCH6CH2CHC3H3CHC2HFeC2H2CHC2H4CHFeC2HCH2NCH3SHCHCNHSCH2CFeSHCHC4H2CSHSCH2CHNC4HNCSHC2HC2H3C2H5CH3CHNHFe2S2FeS2FeSFeS3H2C2SFeS2FeS2FeSFeS3HFeNSHFe2HFeS2FeC2H4S2HSFeC3H2CSFeCSHFeSCS2C3NHSCHCSFeHC4H4NH2C2H3C3NSHCHC3HSCFeNC2HFeHCHCH6NHC6H4C6H4C6H4C6H4C6H4C6H4C3SFeH3SHCH2NC6H8NC5FeHCH3FeHC4H2CNHC2H2SC2H2SCNC6H3SCH3C3SHCHC3HCHCH2SHCH3C2HSCH5CH2CHC2S2FeS2FeS2Fe3S3FeS2FeS2FeSFeS3FeSCH4CHCSHC6H4C6H4C6H5C2H5C6H3SC6H2C2HC5H4CHC4HCSH3C3H4CFeHC4H2C3HCSHNCFeCHNSCH2C2SNHCHFeH2CHCSCH3NC6H5C2SNC3H2NH6CH2S2CHCH2CH2NFeNHCH2C3SCH9FeC2HC3HSCHCHCH3C2H2C2NCS2HCSCSCSH7CSC3S3FeSHCHSC2SCNFeSCH2C3H3CNFeHC3SH2C3FeS2H2C2HC2HFeCHC2SCFeHCSH2FeH2SCH2CHCH2C2SH2CH2CHCH2Fe2SFeS2FeSFeS3FeS2FeS2FeHFeS3H4FeS2HSH2CFe2SFeSFeS2FeS2FeS2FeSFeS4NCHCSCHFeSHFeS2FeSFeS3C6H2SC2HC3H2C6H4C5H3C4NCH2C4HC3H2C6H4C5H4CH2C2HC2HC6H4SCHCH2CHCHC2HC3H2CH2C3H2C6H4SHNC6H4CH6CHNC2FeSHC3HC2H4FeCH5C2NHCH2C2SCHFeCHCNC6H8CH2N2HCHCHCFeHCH5NC2SCHCH4CH2CNCHC2H2NHNH2FeH4C2S2CHCSC2HCHC3SCSC3SCH2CH2CH4CH3SHCHCHC3H4FeH2NH2SH2CHC3H2C2HC3HC2HC3HCHFeS2FeS2FeSFeCS2NHFeHSH2SFeHSFeHS2HSHC2SHC5FeSH2CFeH2NSH3CFeHCH2NS2CHCHCHCHCH2CH2C3H2CH2CHCHFeCH3C7H4C6H4C6H2CNS2H2C2NC3HCHCHSFeCSFeHSH3SCS2CSHNHFeS2HFeHFeSHFeSHSCFeS2FeSCFeSFeS3CH2CNH3CFeS2FeSHFeSFeS3CNCS2HCHCHCH4SCH9CHNHCHC3HC4FeHC6H4C6H4C2HC3H4C2FeC3H4C4SCHC4NCH2CNH4SHC5HSC6H5CHNHCHCHCFeH2CFeSC2H3NCHS2FeCHC7H5CH2CH2CSH3FeHSHCH2C2HCH3CFeHSCFeS2FeS2FeSFeS3FeS2FeS2C2FeS4FeS2FeS2FeSFeS3FeS2FeS2FeSFeS3FeS2FeS2C2HC2H4C8H6SC6H4C6H4C7H3C6H4CH2C5H2C6H4C6H5C6H3N2C6H8NC6H10CHCHC3HCHCH3CHCH4C3H2C2NCNCH2C3HCHC2H4C3NCFeC3H5NC6H5C2HCSH8C4NH3C3NCH11NH2C3SCH2FeH2CHSH2NHCHCSC2H3C2FeS2FeS2Fe2S5FeSFeS2FeSCFeSFeS3CHSH2CNC3H2CH2C6H6FeH4C6H7CHNC6HCH2C6H4CHCH2FeH2CH5NH2C4SCH3CNC6H9SCSHCH3FeCSCSCFeCNH2C3HC4H4CSHCHCNCHC2SHFeS2FeS2FeSFeS3FeCSCHNHCH2SHNS2C2HC4HCFeC3H2NHCH2NCFeSCSH2CS2CH3CHC6H4C6H4C3H2C3HCH4C2H2CFeC2FeH2CH2C2HS2HCH4CHNC3H2CH2C2HFeCSH2C3HCSH4C2H3FeSCFeSHFeS2H2NFeSFeHSFeS2CFeS2FeS2FeSFeS3FeHSFeS2FeSC2S2FeS2FeSFe2CFeS3C6H5FeHFeHC6H4C6H4CNHCH3SCH2CH2CSFeC3H6C6H4CH3C3SNH2SHC7H4C6H2CH3SHC2HCHCSHCNC6H7CH3SCH4CSC4H2C3H2CH2C3H2C4HCHNSC2NC3H5CH6C2HNSH2S2CHSCSH2C3HCHC2H2CH3C2HCHC2FeCFe2S2FeS2FeSFeCS2HFeS2FeS2FeSFeS3H2C2SCH2SH2NFeS2FeS2FeSFeS3FeSFeS2FeS2C2HC2HC6H4C6H4CHSC6H4NH2CNH4SC4HC7H4C6H4CHCH3FeHC4H2CH2C2HCH2C3HNCH2C2H2C3H2SHSNH2CH4CHC2HCH3CNHCNCHCHCH2CHCH2C2H2SCH2C5H3CH2NH3C3HCSH3CHSCHCH2C2NCHCHC2H2CHCH3CHC5SC4FeCH3C3NCHCH2CHCH4CH2C2HC2HSHCHCNC2H5CSHNHFeCFeS2FeS2FeHFeS3CFeHSH4SFeCSHFeSFeS2FeS2C4H3C6H4C4NC2HC6H5CHC3HCHCH2CHNCH2C2HCH3SCH2NCSH2CH4CH3CSC6HCHNC3HC2NHFeH2NHC2H2SC2HCHFeSFeCH2C2HCH4C3FeSH2CHS2C2H2CHCH2SHC3HCHC2HCH2CHCHNH3CHCNHCHCH
_chemical_formula_sum              "Fe384 S768 C2304 H2304 N192"
_cell_length_a       75.8696
_cell_length_b       75.7493
_cell_length_c       75.6695
_cell_angle_alpha    75.5521
_cell_angle_beta     75.3132
_cell_angle_gamma    75.256

_space_group_name_H-M_alt    "P 1"
_space_group_IT_number       1

loop_
  _space_group_symop_operation_xyz
  'x, y, z'

loop_
  _atom_site_type_symbol
  _atom_site_label
  _atom_site_symmetry_multiplicity
  _atom_site_fract_x
  _atom_site_fract_y
  _atom_site_fract_z
  _atom_site_occupancy
  Fe  Fe1       1.0  0.15706  0.45173  0.09944  1.0000
  S   S1        1.0  0.18240  0.42974  0.09281  1.0000
  S   S2        1.0  0.13022  0.44248  0.11383  1.0000
  C   C1        1.0  0.15228  0.42624  0.02194  1.0000
  S   S3        1.0  0.20603  0.46303  0.07739  1.0000
  Fe  Fe2       1.0  0.18906  0.44990  0.06596  1.0000
  S   S4        1.0  0.20128  0.44079  0.03848  1.0000
  Fe  Fe3       1.0  0.19669  0.44505  0.10495  1.0000
  S   S5        1.0  0.21308  0.42932  0.12709  1.0000
  S   S6        1.0  0.16241  0.47067  0.07147  1.0000
  S   S7        1.0  0.17075  0.46561  0.11347  1.0000
  H   H1        1.0  0.16527  0.43016  0.16432  1.0000
  H   H2        1.0  0.14856  0.41898  0.08423  1.0000
  H   H3        1.0  0.19329  0.40134  0.03332  1.0000
  H   H4        1.0  0.19407  0.44174  0.16068  1.0000
  H   H5        1.0  0.16338  0.45088  0.23549  1.0000
  H   H6        1.0  0.12717  0.42437  0.07631  1.0000
  H   H7        1.0  0.12990  0.46457  0.23530  1.0000
  H   H8        1.0  0.17630  0.40805  0.06410  1.0000
  H   H9        1.0  0.99893  0.45615  0.17758  1.0000
  S   S8        1.0  0.27552  0.46277  0.14153  1.0000
  H   H10       1.0  0.12902  0.43837  0.04116  1.0000
  H   H11       1.0  0.14023  0.44228  0.07263  1.0000
  Fe  Fe4       1.0  0.04319  0.45319  0.22983  1.0000
  C   C2        1.0  0.00275  0.44346  0.22312  1.0000
  C   C3        1.0  0.24958  0.46208  0.12243  1.0000
  C   C4        1.0  0.18080  0.45145  0.16061  1.0000
  C   C5        1.0  0.22985  0.43931  0.13127  1.0000
  C   C6        1.0  0.23765  0.43130  0.14711  1.0000
  C   C7        1.0  0.25137  0.43865  0.15063  1.0000
  C   C8        1.0  0.25755  0.45391  0.13815  1.0000
  C   C9        1.0  0.23565  0.45489  0.11906  1.0000
  H   H12       1.0  0.23322  0.41922  0.15660  1.0000
  H   H13       1.0  0.25745  0.43228  0.16278  1.0000
  H   H14       1.0  0.22975  0.46110  0.10680  1.0000
  C   C10       1.0  0.11694  0.45567  0.13059  1.0000
  C   C11       1.0  0.10539  0.44746  0.14644  1.0000
  C   C12       1.0  0.09493  0.45783  0.16004  1.0000
  C   C13       1.0  0.09560  0.47660  0.15753  1.0000
  C   C14       1.0  0.16462  0.44495  0.16273  1.0000
  C   C15       1.0  0.11779  0.47437  0.12821  1.0000
  H   H15       1.0  0.10467  0.43301  0.14831  1.0000
  H   H16       1.0  0.08615  0.45138  0.17229  1.0000
  N   N1        1.0  0.15139  0.42297  0.05457  1.0000
  C   C16       1.0  0.17891  0.40882  0.03505  1.0000
  C   C17       1.0  0.19052  0.45051  0.01919  1.0000
  C   C18       1.0  0.19982  0.44592  0.00193  1.0000
  H   H17       1.0  0.21597  0.48378  0.01377  1.0000
  S   S9        1.0  0.08090  0.48121  0.22567  1.0000
  C   C19       1.0  0.16450  0.46897  0.00507  1.0000
  C   C20       1.0  0.17277  0.46202  0.02078  1.0000
  H   H18       1.0  0.21345  0.43684  0.00066  1.0000
  S   S10       1.0  0.30960  0.46200  0.17145  1.0000
  H   H19       1.0  0.15079  0.47788  0.00633  1.0000
  H   H20       1.0  0.16539  0.46548  0.03406  1.0000
  S   S11       1.0  0.26057  0.41705  0.23414  1.0000
  H   H21       1.0  0.17800  0.41328  0.00600  1.0000
  Fe  Fe5       1.0  0.17883  0.48230  0.08490  1.0000
  H   H22       1.0  0.12653  0.48084  0.11592  1.0000
  Fe  Fe6       1.0  0.31789  0.43286  0.18747  1.0000
  H   H23       1.0  0.02116  0.45324  0.19780  1.0000
  H   H24       1.0  0.14578  0.43212  0.00994  1.0000
  C   C21       1.0  0.16923  0.41277  0.05246  1.0000
  S   S12       1.0  0.07278  0.44484  0.21450  1.0000
  H   H25       1.0  0.13502  0.45270  0.16387  1.0000
  S   S13       1.0  0.04025  0.48339  0.21618  1.0000
  S   S14       1.0  0.26735  0.46113  0.19483  1.0000
  C   C22       1.0  0.17990  0.47060  0.15779  1.0000
  S   S15       1.0  0.30315  0.44027  0.21524  1.0000
  C   C23       1.0  0.14140  0.42733  0.07276  1.0000
  C   C24       1.0  0.14768  0.45759  0.16241  1.0000
  H   H26       1.0  0.25438  0.47385  0.11274  1.0000
  H   H27       1.0  0.24860  0.45706  0.23064  1.0000
  Fe  Fe7       1.0  0.07052  0.47552  0.20283  1.0000
  C   C25       1.0  0.10687  0.48488  0.14147  1.0000
  Fe  Fe8       1.0  0.28502  0.45210  0.16894  1.0000
  Fe  Fe9       1.0  0.27858  0.43261  0.20977  1.0000
  Fe  Fe10      1.0  0.29273  0.46837  0.19885  1.0000
  S   S16       1.0  0.29426  0.42252  0.18329  1.0000
  C   C26       1.0  0.17036  0.41563  0.01971  1.0000
  C   C27       1.0  0.14295  0.42982  0.03958  1.0000
  C   C28       1.0  0.00750  0.45011  0.20393  1.0000
  H   H28       1.0  0.00725  0.39039  0.19336  1.0000
  H   H29       1.0  0.31422  0.38122  0.17706  1.0000
  C   C29       1.0  0.99831  0.40345  0.19730  1.0000
  H   H30       1.0  0.19267  0.47550  0.15565  1.0000
  N   N2        1.0  0.16322  0.48291  0.15753  1.0000
  H   H31       1.0  0.00637  0.41014  0.20320  1.0000
  S   S17       1.0  0.08270  0.49013  0.17413  1.0000
  C   C30       1.0  0.99489  0.45176  0.19252  1.0000
  H   H32       1.0  0.13404  0.48638  0.15934  1.0000
  Fe  Fe11      1.0  0.08106  0.45120  0.23844  1.0000
  H   H33       1.0  0.32046  0.34863  0.19480  1.0000
  H   H34       1.0  0.19975  0.48692  0.10538  1.0000
  C   C31       1.0  0.14724  0.47664  0.15977  1.0000
  H   H35       1.0  0.32559  0.48269  0.20756  1.0000
  C   C32       1.0  0.32750  0.37197  0.17340  1.0000
  S   S18       1.0  0.01895  0.43853  0.23763  1.0000
  H   H36       1.0  0.99477  0.41340  0.18453  1.0000
  H   H37       1.0  0.21307  0.49156  0.13006  1.0000
  Fe  Fe12      1.0  0.16504  0.46460  0.34988  1.0000
  H   H38       1.0  0.05196  0.21553  0.42475  1.0000
  S   S19       1.0  0.21974  0.28875  0.43821  1.0000
  S   S20       1.0  0.05189  0.45662  0.25484  1.0000
  C   C33       1.0  0.20997  0.14944  0.44544  1.0000
  S   S21       1.0  0.03266  0.21392  0.47165  1.0000
  C   C34       1.0  0.16357  0.46316  0.25825  1.0000
  C   C35       1.0  0.12026  0.38977  0.39596  1.0000
  S   S22       1.0  0.11179  0.16793  0.47352  1.0000
  N   N3        1.0  0.17799  0.16384  0.44448  1.0000
  H   H39       1.0  0.19604  0.26167  0.45069  1.0000
  Fe  Fe13      1.0  0.17350  0.06813  0.45916  1.0000
  S   S23       1.0  0.20330  0.05890  0.44572  1.0000
  S   S24       1.0  0.15217  0.07302  0.44174  1.0000
  Fe  Fe14      1.0  0.20433  0.03647  0.47127  1.0000
  H   H40       1.0  0.01749  0.16229  0.45393  1.0000
  Fe  Fe15      1.0  0.20950  0.07686  0.46194  1.0000
  S   S25       1.0  0.22930  0.09589  0.44650  1.0000
  H   H41       1.0  0.09787  0.23950  0.47160  1.0000
  H   H42       1.0  0.12026  0.13241  0.46128  1.0000
  H   H43       1.0  0.24767  0.44555  0.29440  1.0000
  H   H44       1.0  0.11547  0.38766  0.41098  1.0000
  H   H45       1.0  0.22958  0.99302  0.43139  1.0000
  H   H46       1.0  0.26158  0.11192  0.43355  1.0000
  S   S26       1.0  0.08535  0.19847  0.44676  1.0000
  C   C36       1.0  0.19216  0.14846  0.44419  1.0000
  C   C37       1.0  0.24302  0.25514  0.43550  1.0000
  C   C38       1.0  0.25117  0.22928  0.48242  1.0000
  H   H47       1.0  0.15934  0.47679  0.28108  1.0000
  Fe  Fe16      1.0  0.10382  0.19908  0.46554  1.0000
  S   S27       1.0  0.12921  0.21213  0.45704  1.0000
  H   H48       1.0  0.01949  0.22639  0.41980  1.0000
  H   H49       1.0  0.16999  0.19277  0.44572  1.0000
  H   H50       1.0  0.14008  0.36366  0.39689  1.0000
  Fe  Fe17      1.0  0.30872  0.17185  0.43879  1.0000
  S   S28       1.0  0.06744  0.16722  0.48109  1.0000
  Fe  Fe18      1.0  0.17522  0.42452  0.34527  1.0000
  S   S29       1.0  0.16921  0.43163  0.31637  1.0000
  S   S30       1.0  0.18465  0.39456  0.35871  1.0000
  Fe  Fe19      1.0  0.18342  0.45538  0.31197  1.0000
  S   S31       1.0  0.20014  0.46796  0.28488  1.0000
  Fe  Fe20      1.0  0.14380  0.45080  0.32847  1.0000
  H   H51       1.0  0.23132  0.47765  0.29731  1.0000
  S   S32       1.0  0.19224  0.44645  0.33962  1.0000
  S   S33       1.0  0.21353  0.05344  0.48637  1.0000
  C   C39       1.0  0.21461  0.23498  0.44945  1.0000
  S   S34       1.0  0.15654  0.36753  0.44533  1.0000
  S   S35       1.0  0.16541  0.31408  0.44357  1.0000
  C   C40       1.0  0.17597  0.38700  0.38262  1.0000
  C   C41       1.0  0.16377  0.39930  0.39347  1.0000
  C   C42       1.0  0.15752  0.39304  0.41261  1.0000
  C   C43       1.0  0.16351  0.37448  0.42107  1.0000
  C   C44       1.0  0.17550  0.36209  0.41020  1.0000
  C   C45       1.0  0.18168  0.36834  0.39102  1.0000
  H   H52       1.0  0.15932  0.41367  0.38724  1.0000
  H   H53       1.0  0.14827  0.40267  0.42098  1.0000
  H   H54       1.0  0.18028  0.34776  0.41663  1.0000
  H   H55       1.0  0.19114  0.35873  0.38273  1.0000
  S   S36       1.0  0.31358  0.15805  0.46786  1.0000
  S   S37       1.0  0.29312  0.19945  0.44629  1.0000
  H   H56       1.0  0.06931  0.15516  0.40979  1.0000
  H   H57       1.0  0.14281  0.10213  0.46360  1.0000
  H   H58       1.0  0.03825  0.17758  0.46252  1.0000
  C   C46       1.0  0.22646  0.46157  0.25406  1.0000
  C   C47       1.0  0.21579  0.45336  0.27055  1.0000
  C   C48       1.0  0.21845  0.43394  0.27559  1.0000
  C   C49       1.0  0.23190  0.42282  0.26411  1.0000
  H   H59       1.0  0.28405  0.46622  0.24480  1.0000
  C   C50       1.0  0.11103  0.12892  0.43791  1.0000
  H   H60       1.0  0.21029  0.42749  0.28835  1.0000
  H   H61       1.0  0.23401  0.40780  0.26803  1.0000
  C   C51       1.0  0.12761  0.23411  0.46193  1.0000
  H   H62       1.0  0.19498  0.48581  0.34142  1.0000
  C   C52       1.0  0.22607  0.26266  0.48526  1.0000
  C   C53       1.0  0.10981  0.26168  0.47392  1.0000
  C   C54       1.0  0.14321  0.25797  0.46359  1.0000
  C   C55       1.0  0.14391  0.24093  0.45890  1.0000
  N   N4        1.0  0.26683  0.45399  0.26948  1.0000
  H   H63       1.0  0.15590  0.26296  0.46147  1.0000
  H   H64       1.0  0.15717  0.23293  0.45309  1.0000
  C   C56       1.0  0.01749  0.20225  0.46682  1.0000
  C   C57       1.0  0.25249  0.45712  0.28425  1.0000
  H   H65       1.0  0.28395  0.23361  0.46232  1.0000
  N   N5        1.0  0.13431  0.48128  0.27111  1.0000
  C   C58       1.0  0.12185  0.12351  0.45161  1.0000
  C   C59       1.0  0.18706  0.99432  0.47407  1.0000
  H   H66       1.0  0.15996  0.16211  0.42792  1.0000
  C   C60       1.0  0.01803  0.20010  0.41469  1.0000
  Fe  Fe21      1.0  0.28614  0.14953  0.47201  1.0000
  H   H67       1.0  0.05493  0.14915  0.43238  1.0000
  C   C61       1.0  0.04516  0.20627  0.42122  1.0000
  S   S38       1.0  0.23824  0.20118  0.44901  1.0000
  Fe  Fe22      1.0  0.16495  0.33696  0.45777  1.0000
  S   S39       1.0  0.11498  0.45421  0.32366  1.0000
  S   S40       1.0  0.10633  0.43470  0.25000  1.0000
  C   C62       1.0  0.23313  0.22556  0.44510  1.0000
  C   C63       1.0  0.13651  0.09463  0.44057  1.0000
  C   C64       1.0  0.12557  0.10003  0.42704  1.0000
  C   C65       1.0  0.11295  0.11715  0.42565  1.0000
  H   H68       1.0  0.12828  0.48835  0.29793  1.0000
  H   H69       1.0  0.22119  0.13726  0.44511  1.0000
  C   C66       1.0  0.13466  0.10638  0.45290  1.0000
  H   H70       1.0  0.12691  0.09100  0.41752  1.0000
  H   H71       1.0  0.10463  0.12125  0.41506  1.0000
  C   C67       1.0  0.16885  0.00578  0.43155  1.0000
  C   C68       1.0  0.23764  0.10133  0.47800  1.0000
  S   S41       1.0  0.14853  0.32465  0.48527  1.0000
  H   H72       1.0  0.22456  0.47658  0.25015  1.0000
  H   H73       1.0  0.13517  0.38871  0.33156  1.0000
  H   H74       1.0  0.14870  0.17473  0.44639  1.0000
  H   H75       1.0  0.26089  0.21617  0.48130  1.0000
  C   C69       1.0  0.24320  0.47528  0.28601  1.0000
  H   H76       1.0  0.21639  0.27588  0.48601  1.0000
  H   H77       1.0  0.20358  0.22723  0.45482  1.0000
  C   C70       1.0  0.15280  0.47415  0.27108  1.0000
  C   C71       1.0  0.27716  0.24549  0.46946  1.0000
  C   C72       1.0  0.10822  0.43957  0.27092  1.0000
  C   C73       1.0  0.09380  0.45133  0.28065  1.0000
  C   C74       1.0  0.09592  0.45551  0.29698  1.0000
  C   C75       1.0  0.11264  0.44837  0.30336  1.0000
  C   C76       1.0  0.12716  0.43683  0.29348  1.0000
  C   C77       1.0  0.12484  0.43221  0.27747  1.0000
  H   H78       1.0  0.08098  0.45718  0.27564  1.0000
  H   H79       1.0  0.28924  0.43109  0.27376  1.0000
  H   H80       1.0  0.14013  0.43133  0.29814  1.0000
  H   H81       1.0  0.13607  0.42319  0.26991  1.0000
  C   C78       1.0  0.25776  0.11074  0.44852  1.0000
  S   S42       1.0  0.09498  0.15023  0.43563  1.0000
  C   C79       1.0  0.24007  0.45049  0.24286  1.0000
  C   C80       1.0  0.26338  0.11567  0.47695  1.0000
  H   H82       1.0  0.25401  0.26294  0.42999  1.0000
  C   C81       1.0  0.22456  0.26452  0.44028  1.0000
  H   H83       1.0  0.15174  0.36906  0.36274  1.0000
  H   H84       1.0  0.18983  0.13531  0.44289  1.0000
  C   C82       1.0  0.13406  0.37625  0.38805  1.0000
  C   C83       1.0  0.21033  0.25445  0.44721  1.0000
  C   C84       1.0  0.14026  0.39811  0.33738  1.0000
  C   C85       1.0  0.24733  0.23565  0.43806  1.0000
  C   C86       1.0  0.16708  0.02484  0.43029  1.0000
  C   C87       1.0  0.18114  0.18047  0.44574  1.0000
  H   H85       1.0  0.18173  0.04701  0.42536  1.0000
  C   C88       1.0  0.11296  0.40610  0.38448  1.0000
  Fe  Fe23      1.0  0.26748  0.18754  0.45272  1.0000
  H   H86       1.0  0.26158  0.22848  0.43438  1.0000
  H   H87       1.0  0.09655  0.26971  0.47969  1.0000
  S   S43       1.0  0.14865  0.44200  0.35766  1.0000
  C   C89       1.0  0.02395  0.18446  0.46267  1.0000
  C   C90       1.0  0.02692  0.21238  0.41841  1.0000
  S   S44       1.0  0.19240  0.32443  0.46647  1.0000
  N   N6        1.0  0.04531  0.17582  0.41695  1.0000
  C   C91       1.0  0.02744  0.18172  0.41411  1.0000
  C   C92       1.0  0.05420  0.18783  0.42041  1.0000
  H   H88       1.0  0.22707  0.16721  0.44781  1.0000
  C   C93       1.0  0.14059  0.37938  0.36874  1.0000
  C   C94       1.0  0.12617  0.26829  0.47129  1.0000
  C   C95       1.0  0.05466  0.15625  0.41765  1.0000
  H   H89       1.0  0.01997  0.17205  0.41229  1.0000
  C   C96       1.0  0.27649  0.43488  0.26787  1.0000
  S   S45       1.0  0.28246  0.16130  0.44270  1.0000
  H   H90       1.0  0.15575  0.39507  0.33409  1.0000
  C   C97       1.0  0.18301  0.03218  0.42661  1.0000
  C   C98       1.0  0.21327  0.16626  0.44690  1.0000
  H   H91       1.0  0.20137  0.19509  0.44793  1.0000
  H   H92       1.0  0.22573  0.09549  0.48582  1.0000
  H   H93       1.0  0.17816  0.45728  0.25853  1.0000
  C   C99       1.0  0.11052  0.24459  0.46935  1.0000
  C   C100      1.0  0.12625  0.47840  0.25810  1.0000
  H   H94       1.0  0.06821  0.18300  0.42308  1.0000
  S   S46       1.0  0.16124  0.48348  0.36984  1.0000
  C   C101      1.0  0.24283  0.43109  0.24772  1.0000
  H   H95       1.0  0.04760  0.14874  0.41158  1.0000
  H   H96       1.0  0.08465  0.46452  0.30451  1.0000
  Fe  Fe24      1.0  0.09150  0.16754  0.45683  1.0000
  Fe  Fe25      1.0  0.29617  0.18508  0.47557  1.0000
  H   H97       1.0  0.15531  0.14982  0.45184  1.0000
  S   S47       1.0  0.15741  0.47527  0.32195  1.0000
  H   H98       1.0  0.21282  0.02610  0.42231  1.0000
  N   N7        1.0  0.25727  0.24570  0.47658  1.0000
  N   N8        1.0  0.13341  0.39545  0.35760  1.0000
  N   N9        1.0  0.19188  0.42341  0.40193  1.0000
  C   C102      1.0  0.18620  0.41675  0.42056  1.0000
  C   C103      1.0  0.20364  0.41184  0.39071  1.0000
  C   C104      1.0  0.19260  0.39813  0.42847  1.0000
  C   C105      1.0  0.21039  0.39318  0.39818  1.0000
  C   C106      1.0  0.20478  0.38631  0.41718  1.0000
  C   C107      1.0  0.18414  0.44263  0.39369  1.0000
  H   H99       1.0  0.17629  0.42569  0.42933  1.0000
  H   H100      1.0  0.20737  0.41681  0.37578  1.0000
  H   H101      1.0  0.18751  0.39266  0.44309  1.0000
  H   H102      1.0  0.21917  0.38390  0.38913  1.0000
  H   H103      1.0  0.20923  0.37167  0.42301  1.0000
  H   H104      1.0  0.19406  0.44837  0.38133  1.0000
  H   H105      1.0  0.17108  0.44319  0.38927  1.0000
  H   H106      1.0  0.18095  0.45207  0.40373  1.0000
  C   C108      1.0  0.01215  0.17582  0.45768  1.0000
  S   S48       1.0  0.17946  0.08806  0.47330  1.0000
  H   H107      1.0  0.10226  0.41675  0.39046  1.0000
  H   H108      1.0  0.13541  0.41266  0.33030  1.0000
  C   C109      1.0  0.24254  0.10275  0.45866  1.0000
  H   H109      1.0  0.27946  0.25840  0.45913  1.0000
  C   C110      1.0  0.26825  0.11700  0.45764  1.0000
  Fe  Fe26      1.0  0.19179  0.30055  0.45425  1.0000
  H   H110      1.0  0.11385  0.42140  0.35633  1.0000
  C   C111      1.0  0.19880  0.18191  0.44702  1.0000
  H   H111      1.0  0.26737  0.42474  0.27511  1.0000
  Fe  Fe27      1.0  0.15099  0.30066  0.47176  1.0000
  H   H112      1.0  0.28034  0.12253  0.44973  1.0000
  C   C112      1.0  0.15961  0.16257  0.44257  1.0000
  C   C113      1.0  0.11963  0.40867  0.36518  1.0000
  Fe  Fe28      1.0  0.06230  0.19822  0.47218  1.0000
  C   C114      1.0  0.18662  0.99434  0.42918  1.0000
  H   H113      1.0  0.28037  0.43343  0.25305  1.0000
  C   C115      1.0  0.20053  0.02031  0.42471  1.0000
  S   S49       1.0  0.21937  0.00687  0.46994  1.0000
  H   H114      1.0  0.00917  0.48624  0.26759  1.0000
  H   H115      1.0  0.15343  0.03399  0.43221  1.0000
  S   S50       1.0  0.17742  0.28496  0.48096  1.0000
  S   S51       1.0  0.26945  0.17511  0.48228  1.0000
  H   H116      1.0  0.11156  0.48403  0.25813  1.0000
  S   S52       1.0  0.17406  0.04430  0.48360  1.0000
  Fe  Fe29      1.0  0.05103  0.48616  0.24005  1.0000
  H   H117      1.0  0.17946  0.00814  0.47563  1.0000
  H   H118      1.0  0.15656  0.99985  0.43456  1.0000
  H   H119      1.0  0.28410  0.24392  0.48123  1.0000
  C   C116      1.0  0.26370  0.48697  0.25789  1.0000
  C   C117      1.0  0.99884  0.21107  0.46659  1.0000
  N   N10       1.0  0.20215  0.00163  0.42608  1.0000
  S   S53       1.0  0.12502  0.28860  0.47927  1.0000
  H   H120      1.0  0.24976  0.27531  0.47328  1.0000
  C   C118      1.0  0.24502  0.26225  0.47806  1.0000
  C   C119      1.0  0.13660  0.46751  0.24504  1.0000
  C   C120      1.0  0.15533  0.45971  0.24526  1.0000
  H   H121      1.0  0.00356  0.20441  0.41333  1.0000
  C   C121      1.0  0.24881  0.49027  0.27268  1.0000
  C   C122      1.0  0.24791  0.10803  0.48707  1.0000
  C   C123      1.0  0.27263  0.46863  0.25651  1.0000
  H   H122      1.0  0.22744  0.99167  0.40847  1.0000
  H   H123      1.0  0.10847  0.49129  0.28833  1.0000
  S   S54       1.0  0.27674  0.12311  0.48858  1.0000
  H   H124      1.0  0.21099  0.05705  0.56624  1.0000
  S   S55       1.0  0.17210  0.06376  0.52674  1.0000
  H   H125      1.0  0.17285  0.36944  0.69906  1.0000
  Fe  Fe30      1.0  0.20714  0.11488  0.57731  1.0000
  S   S56       1.0  0.23574  0.10699  0.58341  1.0000
  S   S57       1.0  0.20454  0.12282  0.54745  1.0000
  Fe  Fe31      1.0  0.18840  0.10826  0.61816  1.0000
  S   S58       1.0  0.21554  0.09908  0.62785  1.0000
  S   S59       1.0  0.16139  0.10890  0.63895  1.0000
  Fe  Fe32      1.0  0.22351  0.12349  0.60600  1.0000
  S   S60       1.0  0.23286  0.14795  0.60965  1.0000
  Fe  Fe33      1.0  0.22500  0.08328  0.60432  1.0000
  S   S61       1.0  0.24109  0.05392  0.60296  1.0000
  S   S62       1.0  0.19571  0.13356  0.59786  1.0000
  S   S63       1.0  0.19709  0.09038  0.59673  1.0000
  S   S64       1.0  0.32607  0.21891  0.59287  1.0000
  S   S65       1.0  0.08655  0.15725  0.52676  1.0000
  C   C124      1.0  0.17036  0.16555  0.64752  1.0000
  Fe  Fe34      1.0  0.11241  0.20727  0.61570  1.0000
  S   S66       1.0  0.09587  0.23651  0.61106  1.0000
  S   S67       1.0  0.11215  0.18911  0.64393  1.0000
  Fe  Fe35      1.0  0.12517  0.20663  0.57490  1.0000
  S   S68       1.0  0.10996  0.23584  0.56636  1.0000
  S   S69       1.0  0.14156  0.19026  0.55301  1.0000
  Fe  Fe36      1.0  0.12072  0.24202  0.58868  1.0000
  S   S70       1.0  0.13148  0.26836  0.58233  1.0000
  Fe  Fe37      1.0  0.08648  0.22776  0.58931  1.0000
  S   S71       1.0  0.05688  0.23760  0.58511  1.0000
  S   S72       1.0  0.13821  0.21344  0.59515  1.0000
  S   S73       1.0  0.10086  0.19796  0.59608  1.0000
  C   C125      1.0  0.27778  0.40469  0.72454  1.0000
  H   H126      1.0  0.14099  0.12250  0.51414  1.0000
  H   H127      1.0  0.14533  0.15083  0.57745  1.0000
  C   C126      1.0  0.00504  0.20051  0.53659  1.0000
  C   C127      1.0  0.29053  0.15282  0.57105  1.0000
  C   C128      1.0  0.29375  0.15933  0.53279  1.0000
  C   C129      1.0  0.22424  0.01004  0.59541  1.0000
  S   S74       1.0  0.18330  0.30083  0.52102  1.0000
  C   C130      1.0  0.30953  0.15438  0.54073  1.0000
  C   C131      1.0  0.24811  0.07052  0.52277  1.0000
  S   S75       1.0  0.22309  0.40414  0.68521  1.0000
  Fe  Fe38      1.0  0.18349  0.30515  0.63139  1.0000
  S   S76       1.0  0.20288  0.31064  0.60385  1.0000
  S   S77       1.0  0.17392  0.27780  0.64040  1.0000
  Fe  Fe39      1.0  0.18600  0.34077  0.64192  1.0000
  S   S78       1.0  0.20564  0.34900  0.61498  1.0000
  S   S79       1.0  0.17553  0.35636  0.66588  1.0000
  Fe  Fe40      1.0  0.18691  0.34000  0.60152  1.0000
  S   S80       1.0  0.17999  0.35528  0.57352  1.0000
  Fe  Fe41      1.0  0.21969  0.31877  0.61970  1.0000
  S   S81       1.0  0.25065  0.30787  0.61567  1.0000
  S   S82       1.0  0.16598  0.33409  0.62812  1.0000
  S   S83       1.0  0.20157  0.31114  0.64754  1.0000
  H   H128      1.0  0.26218  0.08815  0.55039  1.0000
  S   S84       1.0  0.30797  0.18496  0.58901  1.0000
  H   H129      1.0  0.05072  0.15292  0.55521  1.0000
  Fe  Fe42      1.0  0.29900  0.20920  0.60327  1.0000
  S   S85       1.0  0.26993  0.22548  0.60259  1.0000
  S   S86       1.0  0.30611  0.19218  0.63012  1.0000
  C   C132      1.0  0.25636  0.28458  0.61303  1.0000
  C   C133      1.0  0.24232  0.27557  0.61342  1.0000
  C   C134      1.0  0.24676  0.25772  0.60949  1.0000
  C   C135      1.0  0.26527  0.24820  0.60638  1.0000
  C   C136      1.0  0.27943  0.25680  0.60676  1.0000
  C   C137      1.0  0.27498  0.27514  0.60981  1.0000
  H   H130      1.0  0.22796  0.28219  0.61690  1.0000
  H   H131      1.0  0.23576  0.25110  0.60930  1.0000
  H   H132      1.0  0.29378  0.24946  0.60442  1.0000
  H   H133      1.0  0.28594  0.28199  0.60961  1.0000
  C   C138      1.0  0.21079  0.38930  0.68082  1.0000
  C   C139      1.0  0.21651  0.38294  0.66395  1.0000
  C   C140      1.0  0.20630  0.37206  0.65953  1.0000
  C   C141      1.0  0.19036  0.36739  0.67206  1.0000
  C   C142      1.0  0.02154  0.19382  0.59724  1.0000
  C   C143      1.0  0.19519  0.38414  0.69361  1.0000
  H   H134      1.0  0.22862  0.38679  0.65403  1.0000
  H   H135      1.0  0.21049  0.36774  0.64624  1.0000
  C   C144      1.0  0.13465  0.12251  0.54354  1.0000
  C   C145      1.0  0.18509  0.37314  0.68926  1.0000
  C   C146      1.0  0.18048  0.31682  0.53534  1.0000
  C   C147      1.0  0.18017  0.30991  0.55436  1.0000
  C   C148      1.0  0.17889  0.32191  0.56622  1.0000
  C   C149      1.0  0.17852  0.34083  0.55915  1.0000
  C   C150      1.0  0.17830  0.34791  0.54017  1.0000
  C   C151      1.0  0.17914  0.33593  0.52827  1.0000
  H   H136      1.0  0.18098  0.29518  0.56002  1.0000
  H   H137      1.0  0.17841  0.31642  0.58082  1.0000
  H   H138      1.0  0.17792  0.36259  0.53460  1.0000
  H   H139      1.0  0.17930  0.34138  0.51359  1.0000
  H   H140      1.0  0.00068  0.20379  0.50878  1.0000
  H   H141      1.0  0.29520  0.16213  0.51775  1.0000
  C   C152      1.0  0.02471  0.22609  0.58816  1.0000
  H   H142      1.0  0.20594  0.26794  0.65859  1.0000
  H   H143      1.0  0.08142  0.17272  0.64057  1.0000
  S   S87       1.0  0.21806  0.48339  0.71120  1.0000
  S   S88       1.0  0.19084  0.99821  0.60439  1.0000
  H   H144      1.0  0.19075  0.38881  0.70671  1.0000
  H   H145      1.0  0.23032  0.07882  0.56598  1.0000
  C   C153      1.0  0.01359  0.21271  0.59254  1.0000
  H   H146      1.0  0.12411  0.21651  0.50228  1.0000
  H   H147      1.0  0.20490  0.24622  0.49583  1.0000
  C   C154      1.0  0.14281  0.27076  0.59896  1.0000
  C   C155      1.0  0.14821  0.28760  0.59713  1.0000
  C   C156      1.0  0.15751  0.28980  0.61001  1.0000
  C   C157      1.0  0.16167  0.27514  0.62468  1.0000
  C   C158      1.0  0.15615  0.25829  0.62667  1.0000
  C   C159      1.0  0.14666  0.25613  0.61385  1.0000
  H   H148      1.0  0.14504  0.29906  0.58588  1.0000
  H   H149      1.0  0.16130  0.30294  0.60873  1.0000
  H   H150      1.0  0.15915  0.24700  0.63815  1.0000
  H   H151      1.0  0.14227  0.24322  0.61548  1.0000
  H   H152      1.0  0.28421  0.41780  0.69556  1.0000
  C   C160      1.0  0.04073  0.18829  0.59645  1.0000
  C   C161      1.0  0.05182  0.20163  0.59193  1.0000
  C   C162      1.0  0.04376  0.22057  0.58836  1.0000
  H   H153      1.0  0.04698  0.17365  0.59983  1.0000
  H   H154      1.0  0.06649  0.19718  0.59166  1.0000
  H   H155      1.0  0.07361  0.20718  0.63570  1.0000
  H   H156      1.0  0.00473  0.21190  0.65280  1.0000
  H   H157      1.0  0.01262  0.19379  0.56329  1.0000
  H   H158      1.0  0.01841  0.24075  0.58522  1.0000
  H   H159      1.0  0.19415  0.00138  0.64656  1.0000
  C   C163      1.0  0.10253  0.16522  0.53428  1.0000
  C   C164      1.0  0.11714  0.17221  0.52135  1.0000
  C   C165      1.0  0.12958  0.17918  0.52729  1.0000
  C   C166      1.0  0.12700  0.17985  0.54608  1.0000
  C   C167      1.0  0.11263  0.17249  0.55907  1.0000
  C   C168      1.0  0.10047  0.16505  0.55320  1.0000
  H   H160      1.0  0.11895  0.17221  0.50676  1.0000
  H   H161      1.0  0.14095  0.18442  0.51725  1.0000
  H   H162      1.0  0.11112  0.17210  0.57369  1.0000
  H   H163      1.0  0.08932  0.15946  0.56327  1.0000
  C   C169      1.0  0.25423  0.14462  0.61613  1.0000
  C   C170      1.0  0.25967  0.16023  0.61805  1.0000
  C   C171      1.0  0.27714  0.15854  0.62197  1.0000
  C   C172      1.0  0.28932  0.14122  0.62396  1.0000
  C   C173      1.0  0.28373  0.12543  0.62257  1.0000
  C   C174      1.0  0.26616  0.12713  0.61856  1.0000
  H   H164      1.0  0.25052  0.17379  0.61614  1.0000
  H   H165      1.0  0.28125  0.17078  0.62314  1.0000
  H   H166      1.0  0.29316  0.11201  0.62404  1.0000
  H   H167      1.0  0.26198  0.11503  0.61709  1.0000
  C   C175      1.0  0.14731  0.13112  0.63974  1.0000
  C   C176      1.0  0.13559  0.13458  0.65659  1.0000
  C   C177      1.0  0.12464  0.15236  0.65775  1.0000
  C   C178      1.0  0.12508  0.16666  0.64196  1.0000
  C   C179      1.0  0.13640  0.16311  0.62495  1.0000
  C   C180      1.0  0.14761  0.14538  0.62387  1.0000
  H   H168      1.0  0.13523  0.12355  0.66885  1.0000
  H   H169      1.0  0.11591  0.15503  0.67092  1.0000
  H   H170      1.0  0.13674  0.17405  0.61266  1.0000
  H   H171      1.0  0.15626  0.14268  0.61074  1.0000
  C   C181      1.0  0.19719  0.02968  0.61060  1.0000
  C   C182      1.0  0.20817  0.04203  0.61056  1.0000
  H   H172      1.0  0.12361  0.11482  0.54663  1.0000
  H   H173      1.0  0.18248  0.03243  0.61679  1.0000
  H   H174      1.0  0.20197  0.05384  0.61722  1.0000
  C   C183      1.0  0.27682  0.40792  0.70578  1.0000
  N   N11       1.0  0.30778  0.15118  0.55964  1.0000
  C   C184      1.0  0.21499  0.24152  0.65017  1.0000
  H   H175      1.0  0.28911  0.15042  0.58599  1.0000
  C   C185      1.0  0.18041  0.08076  0.53225  1.0000
  C   C186      1.0  0.17535  0.08401  0.55040  1.0000
  C   C187      1.0  0.18254  0.09714  0.55504  1.0000
  C   C188      1.0  0.19496  0.10685  0.54162  1.0000
  C   C189      1.0  0.19957  0.10400  0.52333  1.0000
  C   C190      1.0  0.19237  0.09088  0.51865  1.0000
  H   H176      1.0  0.16584  0.07643  0.56086  1.0000
  H   H177      1.0  0.17799  0.10008  0.56885  1.0000
  H   H178      1.0  0.20885  0.11181  0.51283  1.0000
  H   H179      1.0  0.19620  0.08850  0.50457  1.0000
  N   N12       1.0  0.03070  0.17638  0.54508  1.0000
  N   N13       1.0  0.18980  0.01254  0.54906  1.0000
  H   H180      1.0  0.24715  0.37980  0.70949  1.0000
  C   C191      1.0  0.07576  0.22985  0.53836  1.0000
  H   H181      1.0  0.16609  0.14042  0.50726  1.0000
  C   C192      1.0  0.32460  0.14600  0.56752  1.0000
  H   H182      1.0  0.13260  0.42193  0.71566  1.0000
  C   C193      1.0  0.17723  0.02212  0.56353  1.0000
  C   C194      1.0  0.09359  0.22272  0.52901  1.0000
  H   H183      1.0  0.05194  0.17498  0.55922  1.0000
  Fe  Fe43      1.0  0.08697  0.17101  0.49685  1.0000
  H   H184      1.0  0.14566  0.39827  0.71885  1.0000
  H   H185      1.0  0.13292  0.21868  0.52166  1.0000
  H   H186      1.0  0.18514  0.02825  0.57013  1.0000
  H   H187      1.0  0.25848  0.07430  0.51047  1.0000
  C   C195      1.0  0.23227  0.22919  0.48940  1.0000
  H   H188      1.0  0.26347  0.24343  0.65601  1.0000
  H   H189      1.0  0.25942  0.21656  0.64553  1.0000
  N   N14       1.0  0.13362  0.29685  0.53307  1.0000
  C   C196      1.0  0.12014  0.30808  0.52392  1.0000
  C   C197      1.0  0.13948  0.30306  0.54565  1.0000
  C   C198      1.0  0.11276  0.32633  0.52670  1.0000
  C   C199      1.0  0.13244  0.32120  0.54877  1.0000
  C   C200      1.0  0.11907  0.33293  0.53913  1.0000
  C   C201      1.0  0.14145  0.27783  0.52995  1.0000
  H   H190      1.0  0.11541  0.30315  0.51399  1.0000
  H   H191      1.0  0.14992  0.29400  0.55312  1.0000
  H   H192      1.0  0.10245  0.33535  0.51902  1.0000
  H   H193      1.0  0.13754  0.32612  0.55846  1.0000
  H   H194      1.0  0.11369  0.34711  0.54127  1.0000
  H   H195      1.0  0.13444  0.26789  0.54127  1.0000
  H   H196      1.0  0.13997  0.27634  0.51618  1.0000
  H   H197      1.0  0.15660  0.27418  0.53003  1.0000
  H   H198      1.0  0.02429  0.17256  0.64277  1.0000
  C   C202      1.0  0.00910  0.19610  0.51898  1.0000
  Fe  Fe44      1.0  0.20822  0.45619  0.72111  1.0000
  H   H199      1.0  0.29089  0.21389  0.53045  1.0000
  Fe  Fe45      1.0  0.18299  0.06319  0.49654  1.0000
  H   H200      1.0  0.16810  0.15255  0.56392  1.0000
  N   N15       1.0  0.15037  0.41348  0.69114  1.0000
  C   C203      1.0  0.14435  0.12692  0.52526  1.0000
  C   C204      1.0  0.22379  0.05335  0.53810  1.0000
  H   H201      1.0  0.24990  0.01996  0.58893  1.0000
  C   C205      1.0  0.21764  0.25647  0.65625  1.0000
  H   H202      1.0  0.19363  0.00837  0.50471  1.0000
  H   H203      1.0  0.24051  0.28394  0.65193  1.0000
  C   C206      1.0  0.04453  0.20893  0.63646  1.0000
  C   C207      1.0  0.17606  0.41929  0.65784  1.0000
  H   H204      1.0  0.24911  0.26917  0.67192  1.0000
  C   C208      1.0  0.02414  0.18182  0.51452  1.0000
  H   H205      1.0  0.22745  0.21617  0.49323  1.0000
  C   C209      1.0  0.08284  0.26055  0.52895  1.0000
  H   H206      1.0  0.11029  0.26203  0.51282  1.0000
  C   C210      1.0  0.25601  0.38648  0.71378  1.0000
  N   N16       1.0  0.24537  0.07800  0.53819  1.0000
  H   H207      1.0  0.18657  0.42097  0.64514  1.0000
  H   H208      1.0  0.26081  0.15889  0.57282  1.0000
  H   H209      1.0  0.18527  0.43679  0.67067  1.0000
  C   C211      1.0  0.17080  0.20015  0.62421  1.0000
  Fe  Fe46      1.0  0.21086  0.41933  0.70918  1.0000
  H   H210      1.0  0.14226  0.39474  0.67920  1.0000
  H   H211      1.0  0.04687  0.16131  0.52398  1.0000
  C   C212      1.0  0.24873  0.00040  0.63347  1.0000
  H   H212      1.0  0.12568  0.40465  0.70794  1.0000
  N   N17       1.0  0.15302  0.13805  0.55384  1.0000
  H   H213      1.0  0.32320  0.15330  0.53168  1.0000
  C   C213      1.0  0.04226  0.16636  0.55877  1.0000
  C   C214      1.0  0.25571  0.09201  0.53796  1.0000
  C   C215      1.0  0.23517  0.02269  0.59498  1.0000
  C   C216      1.0  0.15790  0.14322  0.56915  1.0000
  C   C217      1.0  0.31088  0.19824  0.51123  1.0000
  C   C218      1.0  0.13927  0.12814  0.55777  1.0000
  H   H214      1.0  0.20143  0.24161  0.64780  1.0000
  H   H215      1.0  0.05654  0.15530  0.64407  1.0000
  S   S89       1.0  0.22960  0.42965  0.72116  1.0000
  H   H216      1.0  0.16420  0.13056  0.57831  1.0000
  H   H217      1.0  0.17008  0.15184  0.65630  1.0000
  C   C219      1.0  0.21349  0.99373  0.52197  1.0000
  S   S90       1.0  0.00782  0.17687  0.60553  1.0000
  Fe  Fe47      1.0  0.17648  0.43552  0.73477  1.0000
  C   C220      1.0  0.16244  0.14265  0.53590  1.0000
  N   N18       1.0  0.23477  0.25682  0.65879  1.0000
  C   C221      1.0  0.07037  0.24890  0.53825  1.0000
  C   C222      1.0  0.12460  0.22624  0.51092  1.0000
  C   C223      1.0  0.03500  0.17218  0.52771  1.0000
  H   H218      1.0  0.09766  0.20791  0.52920  1.0000
  H   H219      1.0  0.17271  0.02493  0.52887  1.0000
  H   H220      1.0  0.14664  0.21043  0.64405  1.0000
  C   C224      1.0  0.06721  0.18013  0.64001  1.0000
  H   H221      1.0  0.21106  0.18745  0.60549  1.0000
  H   H222      1.0  0.16658  0.03371  0.55784  1.0000
  H   H223      1.0  0.17081  0.21376  0.61519  1.0000
  C   C225      1.0  0.22148  0.06060  0.55396  1.0000
  N   N19       1.0  0.23811  0.31766  0.56354  1.0000
  C   C226      1.0  0.22674  0.31474  0.55358  1.0000
  C   C227      1.0  0.25231  0.30368  0.56887  1.0000
  C   C228      1.0  0.22872  0.29714  0.54968  1.0000
  C   C229      1.0  0.25473  0.28591  0.56519  1.0000
  C   C230      1.0  0.24269  0.28259  0.55574  1.0000
  C   C231      1.0  0.23560  0.33610  0.56780  1.0000
  H   H224      1.0  0.21593  0.32601  0.54876  1.0000
  H   H225      1.0  0.26167  0.30614  0.57629  1.0000
  H   H226      1.0  0.21937  0.29481  0.54212  1.0000
  H   H227      1.0  0.26570  0.27471  0.56992  1.0000
  H   H228      1.0  0.24424  0.26878  0.55311  1.0000
  H   H229      1.0  0.23968  0.33492  0.58125  1.0000
  H   H230      1.0  0.24415  0.34469  0.55651  1.0000
  H   H231      1.0  0.22074  0.34343  0.56935  1.0000
  H   H232      1.0  0.16992  0.01213  0.57448  1.0000
  C   C232      1.0  0.03504  0.18022  0.64138  1.0000
  C   C233      1.0  0.23002  0.22690  0.64663  1.0000
  H   H233      1.0  0.13192  0.23709  0.50149  1.0000
  H   H234      1.0  0.26696  0.09358  0.52531  1.0000
  H   H235      1.0  0.22836  0.21547  0.64136  1.0000
  C   C234      1.0  0.19713  0.00601  0.51824  1.0000
  C   C235      1.0  0.24967  0.24272  0.65499  1.0000
  C   C236      1.0  0.13793  0.40935  0.70926  1.0000
  H   H236      1.0  0.19397  0.15566  0.62737  1.0000
  H   H237      1.0  0.16201  0.43169  0.70012  1.0000
  C   C237      1.0  0.20519  0.01355  0.60327  1.0000
  H   H238      1.0  0.26379  0.16487  0.53831  1.0000
  C   C238      1.0  0.27445  0.15767  0.56362  1.0000
  H   H239      1.0  0.26462  0.40146  0.68587  1.0000
  N   N20       1.0  0.25697  0.38345  0.73214  1.0000
  C   C239      1.0  0.24747  0.22745  0.64909  1.0000
  C   C240      1.0  0.15835  0.13704  0.52137  1.0000
  S   S91       1.0  0.08012  0.20218  0.49011  1.0000
  C   C241      1.0  0.16230  0.42508  0.68885  1.0000
  H   H240      1.0  0.13177  0.12458  0.57197  1.0000
  H   H241      1.0  0.20039  0.17468  0.59548  1.0000
  C   C242      1.0  0.15101  0.40470  0.67714  1.0000
  C   C243      1.0  0.15724  0.19843  0.64062  1.0000
  C   C244      1.0  0.23243  0.07301  0.55373  1.0000
  C   C245      1.0  0.27611  0.16097  0.54433  1.0000
  C   C246      1.0  0.22716  0.03867  0.60266  1.0000
  H   H242      1.0  0.19337  0.19950  0.59196  1.0000
  S   S92       1.0  0.31213  0.14000  0.62604  1.0000
  H   H243      1.0  0.24365  0.10769  0.50187  1.0000
  H   H244      1.0  0.25443  0.01280  0.63099  1.0000
  C   C247      1.0  0.16373  0.40761  0.66023  1.0000
  H   H245      1.0  0.14626  0.17941  0.66480  1.0000
  C   C248      1.0  0.17534  0.42814  0.67220  1.0000
  C   C249      1.0  0.23742  0.27298  0.66443  1.0000
  C   C250      1.0  0.15706  0.18101  0.65232  1.0000
  S   S93       1.0  0.19121  0.44702  0.70613  1.0000
  C   C251      1.0  0.19777  0.18682  0.60224  1.0000
  N   N21       1.0  0.18359  0.18485  0.61944  1.0000
  C   C252      1.0  0.18367  0.16775  0.63098  1.0000
  C   C253      1.0  0.10063  0.25291  0.51991  1.0000
  H   H246      1.0  0.07881  0.27535  0.52892  1.0000
  H   H247      1.0  0.00355  0.20131  0.63434  1.0000
  H   H248      1.0  0.28590  0.41203  0.72905  1.0000
  H   H249      1.0  0.16471  0.40000  0.64949  1.0000
  C   C254      1.0  0.18535  0.01533  0.53200  1.0000
  C   C255      1.0  0.30490  0.20584  0.52737  1.0000
  N   N22       1.0  0.10574  0.23423  0.51990  1.0000
  H   H250      1.0  0.24607  0.10581  0.53799  1.0000
  H   H251      1.0  0.01116  0.22287  0.62858  1.0000
  N   N23       1.0  0.03092  0.19926  0.63850  1.0000
  H   H252      1.0  0.06628  0.22065  0.54591  1.0000
  C   C256      1.0  0.05326  0.17038  0.64204  1.0000
  C   C257      1.0  0.01604  0.19044  0.54955  1.0000
  C   C258      1.0  0.23732  0.05817  0.52246  1.0000
  H   H253      1.0  0.03341  0.16309  0.57285  1.0000
  C   C259      1.0  0.06284  0.19951  0.63724  1.0000
  H   H254      1.0  0.04135  0.22404  0.63398  1.0000
  H   H255      1.0  0.05665  0.25455  0.54567  1.0000
  H   H256      1.0  0.31215  0.20931  0.55188  1.0000
  C   C260      1.0  0.22965  0.00119  0.64030  1.0000
  C   C261      1.0  0.20566  0.00028  0.55298  1.0000
  H   H257      1.0  0.22080  0.01429  0.64318  1.0000
  C   C262      1.0  0.26594  0.39871  0.70033  1.0000
  H   H258      1.0  0.22471  0.27893  0.67390  1.0000
  H   H259      1.0  0.17342  0.15042  0.53279  1.0000
  H   H260      1.0  0.99880  0.21709  0.59304  1.0000
  S   S94       1.0  0.19514  0.40716  0.73703  1.0000
  H   H261      1.0  0.21492  0.04427  0.53782  1.0000
  C   C263      1.0  0.31690  0.20314  0.53962  1.0000
  H   H262      1.0  0.20902  0.99781  0.56660  1.0000
  H   H263      1.0  0.32130  0.14323  0.58304  1.0000
  C   C264      1.0  0.26774  0.39229  0.73759  1.0000
  H   H264      1.0  0.02742  0.17836  0.50084  1.0000
  H   H265      1.0  0.23932  0.05264  0.51003  1.0000
  Fe  Fe48      1.0  0.31773  0.16877  0.61488  1.0000
  S   S95       1.0  0.29516  0.20249  0.49629  1.0000
  C   C265      1.0  0.21965  0.24602  0.49081  1.0000
  Fe  Fe49      1.0  0.17610  0.30988  0.49254  1.0000
  H   H266      1.0  0.23057  0.99764  0.58972  1.0000
  C   C266      1.0  0.01164  0.20934  0.63862  1.0000
  S   S96       1.0  0.14534  0.44151  0.73886  1.0000
  Fe  Fe50      1.0  0.04579  0.45129  0.85127  1.0000
  S   S97       1.0  0.06039  0.45279  0.82136  1.0000
  S   S98       1.0  0.01611  0.44776  0.86279  1.0000
  Fe  Fe51      1.0  0.07966  0.45528  0.86349  1.0000
  S   S99       1.0  0.09709  0.45749  0.83464  1.0000
  S   S100      1.0  0.09083  0.45389  0.88876  1.0000
  Fe  Fe52      1.0  0.07128  0.47575  0.82587  1.0000
  H   H267      1.0  0.06514  0.40354  0.83969  1.0000
  Fe  Fe53      1.0  0.08483  0.43436  0.83263  1.0000
  S   S101      1.0  0.10365  0.41072  0.82000  1.0000
  S   S102      1.0  0.05479  0.47595  0.85498  1.0000
  S   S103      1.0  0.06934  0.43046  0.86229  1.0000
  H   H268      1.0  0.04758  0.41025  0.78840  1.0000
  S   S104      1.0  0.21256  0.46325  0.89143  1.0000
  S   S105      1.0  0.22344  0.41195  0.92057  1.0000
  Fe  Fe54      1.0  0.30700  0.43056  0.79496  1.0000
  S   S106      1.0  0.29709  0.43770  0.76797  1.0000
  Fe  Fe55      1.0  0.29901  0.40913  0.83428  1.0000
  S   S107      1.0  0.28463  0.38685  0.85290  1.0000
  Fe  Fe56      1.0  0.30468  0.44897  0.82695  1.0000
  S   S108      1.0  0.19180  0.44700  0.74962  1.0000
  S   S109      1.0  0.28453  0.43619  0.81963  1.0000
  C   C267      1.0  0.11592  0.44167  0.76829  1.0000
  H   H269      1.0  0.23067  0.37828  0.74747  1.0000
  Fe  Fe57      1.0  0.18209  0.46917  0.94022  1.0000
  H   H270      1.0  0.11207  0.47508  0.91889  1.0000
  C   C268      1.0  0.02667  0.40632  0.81352  1.0000
  C   C269      1.0  0.26531  0.45121  0.90904  1.0000
  H   H271      1.0  0.29278  0.47632  0.87590  1.0000
  C   C270      1.0  0.02290  0.40386  0.83297  1.0000
  S   S110      1.0  0.22648  0.40549  0.77297  1.0000
  C   C271      1.0  0.00280  0.44654  0.84736  1.0000
  H   H272      1.0  0.18554  0.43830  0.88368  1.0000
  C   C272      1.0  0.27679  0.42944  0.77042  1.0000
  C   C273      1.0  0.27288  0.41389  0.78409  1.0000
  C   C274      1.0  0.25714  0.40682  0.78513  1.0000
  C   C275      1.0  0.24500  0.41559  0.77287  1.0000
  C   C276      1.0  0.24852  0.43162  0.75978  1.0000
  C   C277      1.0  0.26455  0.43832  0.75832  1.0000
  H   H273      1.0  0.28235  0.40691  0.79342  1.0000
  H   H274      1.0  0.25467  0.39427  0.79510  1.0000
  H   H275      1.0  0.30039  0.44467  0.87244  1.0000
  H   H276      1.0  0.10929  0.45419  0.75992  1.0000
  C   C278      1.0  0.24050  0.40559  0.90152  1.0000
  C   C279      1.0  0.24725  0.41894  0.88658  1.0000
  C   C280      1.0  0.26108  0.41331  0.87165  1.0000
  C   C281      1.0  0.26790  0.39434  0.87156  1.0000
  C   C282      1.0  0.26101  0.38105  0.88638  1.0000
  C   C283      1.0  0.24746  0.38667  0.90141  1.0000
  H   H277      1.0  0.24225  0.43354  0.88671  1.0000
  H   H278      1.0  0.26643  0.42363  0.86023  1.0000
  H   H279      1.0  0.26628  0.36637  0.88633  1.0000
  H   H280      1.0  0.24230  0.37630  0.91294  1.0000
  C   C284      1.0  0.11520  0.41900  0.79734  1.0000
  C   C285      1.0  0.10680  0.43523  0.78648  1.0000
  C   C286      1.0  0.21777  0.43220  0.84410  1.0000
  C   C287      1.0  0.32590  0.48368  0.83514  1.0000
  C   C288      1.0  0.14237  0.41628  0.77210  1.0000
  C   C289      1.0  0.13294  0.40946  0.79009  1.0000
  H   H281      1.0  0.09316  0.44273  0.79198  1.0000
  C   C290      1.0  0.13386  0.48035  0.86648  1.0000
  H   H282      1.0  0.15620  0.40905  0.76668  1.0000
  H   H283      1.0  0.13950  0.39693  0.79849  1.0000
  C   C291      1.0  0.11258  0.46005  0.88392  1.0000
  H   H284      1.0  0.10754  0.48127  0.85982  1.0000
  Fe  Fe58      1.0  0.21226  0.41989  0.74890  1.0000
  C   C292      1.0  0.11716  0.47438  0.86901  1.0000
  C   C293      1.0  0.14276  0.45315  0.80998  1.0000
  S   S111      1.0  0.32640  0.44536  0.80106  1.0000
  H   H285      1.0  0.30394  0.47068  0.77387  1.0000
  H   H286      1.0  0.27505  0.48373  0.89469  1.0000
  C   C294      1.0  0.13376  0.43231  0.76114  1.0000
  H   H287      1.0  0.19878  0.44888  0.97322  1.0000
  H   H288      1.0  0.26838  0.39007  0.75215  1.0000
  C   C295      1.0  0.00992  0.44876  0.82819  1.0000
  C   C296      1.0  0.29048  0.44133  0.88529  1.0000
  C   C297      1.0  0.14165  0.45733  0.89341  1.0000
  H   H289      1.0  0.00527  0.44786  0.80151  1.0000
  H   H290      1.0  0.02353  0.45196  0.82248  1.0000
  H   H291      1.0  0.26741  0.45043  0.74781  1.0000
  H   H292      1.0  0.25223  0.41299  0.83094  1.0000
  H   H293      1.0  0.15106  0.47236  0.75498  1.0000
  Fe  Fe59      1.0  0.20926  0.44197  0.91783  1.0000
  S   S112      1.0  0.31708  0.42216  0.84416  1.0000
  C   C298      1.0  0.19157  0.45285  0.98629  1.0000
  N   N24       1.0  0.14610  0.47735  0.78265  1.0000
  C   C299      1.0  0.26449  0.43269  0.91753  1.0000
  S   S113      1.0  0.31998  0.40216  0.80899  1.0000
  H   H294      1.0  0.22622  0.38976  0.87129  1.0000
  N   N25       1.0  0.27837  0.45529  0.89327  1.0000
  C   C300      1.0  0.12494  0.45139  0.89597  1.0000
  C   C301      1.0  0.24101  0.40484  0.83629  1.0000
  C   C302      1.0  0.14482  0.48361  0.81262  1.0000
  H   H295      1.0  0.23899  0.43884  0.75064  1.0000
  H   H296      1.0  0.24767  0.35783  0.74176  1.0000
  H   H297      1.0  0.29954  0.41159  0.88694  1.0000
  H   H298      1.0  0.27627  0.40394  0.91592  1.0000
  S   S114      1.0  0.21311  0.45969  0.93561  1.0000
  H   H299      1.0  0.20069  0.40521  0.89345  1.0000
  H   H300      1.0  0.24760  0.39065  0.84288  1.0000
  H   H301      1.0  0.25385  0.42945  0.92979  1.0000
  H   H302      1.0  0.14402  0.44992  0.78237  1.0000
  S   S115      1.0  0.17807  0.44943  0.92448  1.0000
  C   C303      1.0  0.05419  0.40442  0.83244  1.0000
  C   C304      1.0  0.14604  0.47193  0.87876  1.0000
  C   C305      1.0  0.27872  0.47474  0.88425  1.0000
  H   H303      1.0  0.19670  0.45574  0.85208  1.0000
  C   C306      1.0  0.99954  0.44646  0.81631  1.0000
  C   C307      1.0  0.20515  0.41281  0.87945  1.0000
  C   C308      1.0  0.20310  0.44122  0.85628  1.0000
  H   H304      1.0  0.14094  0.43901  0.81632  1.0000
  H   H305      1.0  0.12141  0.44026  0.90749  1.0000
  H   H306      1.0  0.14138  0.46075  0.83597  1.0000
  H   H307      1.0  0.27839  0.47775  0.75689  1.0000
  C   C309      1.0  0.19679  0.43142  0.87406  1.0000
  H   H308      1.0  0.00884  0.40303  0.84059  1.0000
  C   C310      1.0  0.21968  0.40418  0.86688  1.0000
  Fe  Fe60      1.0  0.18161  0.47225  0.89930  1.0000
  H   H309      1.0  0.01562  0.40741  0.80632  1.0000
  N   N26       1.0  0.03651  0.40328  0.84214  1.0000
  C   C311      1.0  0.05843  0.40696  0.81299  1.0000
  N   N27       1.0  0.22588  0.41393  0.84950  1.0000
  S   S116      1.0  0.29182  0.47630  0.83651  1.0000
  Fe  Fe61      1.0  0.21354  0.48181  0.90976  1.0000
  H   H310      1.0  0.19355  0.48402  0.74763  1.0000
  H   H311      1.0  0.25535  0.46227  0.91507  1.0000
  C   C312      1.0  0.27710  0.41835  0.90974  1.0000
  H   H312      1.0  0.22267  0.43988  0.83029  1.0000
  C   C313      1.0  0.24562  0.37134  0.74601  1.0000
  H   H313      1.0  0.01741  0.40617  0.86790  1.0000
  H   H314      1.0  0.15101  0.45063  0.90284  1.0000
  C   C314      1.0  0.14297  0.46536  0.82098  1.0000
  C   C315      1.0  0.29012  0.42265  0.89346  1.0000
  C   C316      1.0  0.29258  0.48248  0.77592  1.0000
  S   S117      1.0  0.16669  0.47986  0.87536  1.0000
  C   C317      1.0  0.04453  0.40803  0.80350  1.0000
  H   H315      1.0  0.26860  0.47981  0.87482  1.0000
  C   C318      1.0  0.14434  0.45944  0.79075  1.0000
  H   H316      1.0  0.07242  0.40821  0.80537  1.0000
  H   H317      1.0  0.23561  0.40361  0.82440  1.0000
  S   S118      1.0  0.16368  0.47385  0.96803  1.0000
  C   C319      1.0  0.17398  0.46455  0.98771  1.0000
  C   C320      1.0  0.14630  0.48943  0.79333  1.0000
  H   H318      1.0  0.24912  0.36845  0.76001  1.0000
  C   C321      1.0  0.27807  0.48662  0.76629  1.0000
  H   H319      1.0  0.13440  0.48070  0.93518  1.0000
  H   H320      1.0  0.30339  0.49038  0.79591  1.0000
  H   H321      1.0  0.03586  0.38550  0.86874  1.0000
  H   H322      1.0  0.08177  0.48677  0.90921  1.0000
  C   C322      1.0  0.30676  0.49052  0.83695  1.0000
  H   H323      1.0  0.04033  0.40826  0.86729  1.0000
  C   C323      1.0  0.10569  0.48967  0.91798  1.0000
  C   C324      1.0  0.03234  0.40054  0.86252  1.0000
  H   H324      1.0  0.00819  0.48689  0.82720  1.0000
  C   C325      1.0  0.14654  0.48405  0.76265  1.0000
  H   H325      1.0  0.13240  0.49154  0.76044  1.0000
  C   C326      1.0  0.24717  0.52781  0.08165  1.0000
  Fe  Fe62      1.0  0.24758  0.57158  0.14140  1.0000
  S   S119      1.0  0.22116  0.56480  0.16023  1.0000
  S   S120      1.0  0.27402  0.56471  0.15221  1.0000
  Fe  Fe63      1.0  0.23097  0.58348  0.10670  1.0000
  S   S121      1.0  0.20302  0.57810  0.12250  1.0000
  S   S122      1.0  0.23745  0.59379  0.07559  1.0000
  Fe  Fe64      1.0  0.20743  0.59138  0.14381  1.0000
  S   S123      1.0  0.18307  0.61062  0.15748  1.0000
  Fe  Fe65      1.0  0.21895  0.55202  0.13740  1.0000
  S   S124      1.0  0.21139  0.52402  0.14365  1.0000
  S   S125      1.0  0.23410  0.59944  0.12675  1.0000
  S   S126      1.0  0.24671  0.55620  0.11993  1.0000
  C   C327      1.0  0.19167  0.49825  0.03033  1.0000
  H   H326      1.0  0.25510  0.55368  0.06639  1.0000
  H   H327      1.0  0.14653  0.61938  0.06841  1.0000
  S   S127      1.0  0.12331  0.56381  0.20604  1.0000
  C   C328      1.0  0.20219  0.49255  0.01397  1.0000
  C   C329      1.0  0.02014  0.53211  0.20675  1.0000
  H   H328      1.0  0.05901  0.55529  0.22876  1.0000
  N   N28       1.0  0.22794  0.53180  0.05361  1.0000
  H   H329      1.0  0.19205  0.62679  0.11648  1.0000
  C   C330      1.0  0.24294  0.51298  0.17222  1.0000
  Fe  Fe66      1.0  0.30813  0.59970  0.21858  1.0000
  C   C331      1.0  0.19408  0.58948  0.20042  1.0000
  S   S128      1.0  0.28354  0.61302  0.20496  1.0000
  H   H330      1.0  0.23631  0.60369  0.03662  1.0000
  C   C332      1.0  0.20475  0.50328  0.12233  1.0000
  S   S129      1.0  0.18618  0.55245  0.99562  1.0000
  C   C333      1.0  0.31289  0.62067  0.15927  1.0000
  S   S130      1.0  0.17803  0.51268  0.08001  1.0000
  H   H331      1.0  0.24981  0.49632  0.15122  1.0000
  H   H332      1.0  0.21555  0.59810  0.01874  1.0000
  C   C334      1.0  0.16073  0.61350  0.09998  1.0000
  C   C335      1.0  0.18594  0.62088  0.07546  1.0000
  H   H333      1.0  0.20832  0.57248  0.08665  1.0000
  N   N29       1.0  0.32266  0.62925  0.16821  1.0000
  H   H334      1.0  0.22120  0.52217  0.03253  1.0000
  S   S131      1.0  0.31929  0.61441  0.23448  1.0000
  H   H335      1.0  0.18852  0.61875  0.20015  1.0000
  C   C336      1.0  0.27548  0.57769  0.16787  1.0000
  C   C337      1.0  0.28994  0.57138  0.17776  1.0000
  C   C338      1.0  0.29200  0.58186  0.18971  1.0000
  C   C339      1.0  0.27977  0.59883  0.19165  1.0000
  C   C340      1.0  0.26508  0.60501  0.18202  1.0000
  C   C341      1.0  0.26285  0.59439  0.17022  1.0000
  H   H336      1.0  0.29968  0.55842  0.17608  1.0000
  H   H337      1.0  0.30331  0.57692  0.19714  1.0000
  H   H338      1.0  0.25561  0.61816  0.18345  1.0000
  H   H339      1.0  0.25169  0.59934  0.16258  1.0000
  C   C342      1.0  0.16555  0.59817  0.16960  1.0000
  C   C343      1.0  0.16793  0.57939  0.16893  1.0000
  C   C344      1.0  0.15455  0.56911  0.17966  1.0000
  C   C345      1.0  0.13886  0.57748  0.19132  1.0000
  C   C346      1.0  0.13620  0.59639  0.19159  1.0000
  C   C347      1.0  0.14949  0.60676  0.18065  1.0000
  H   H340      1.0  0.18020  0.57263  0.16040  1.0000
  H   H341      1.0  0.15662  0.55452  0.17931  1.0000
  H   H342      1.0  0.12390  0.60306  0.20017  1.0000
  H   H343      1.0  0.14748  0.62133  0.18106  1.0000
  C   C348      1.0  0.20203  0.52109  0.12595  1.0000
  C   C349      1.0  0.19152  0.53623  0.11571  1.0000
  C   C350      1.0  0.18403  0.53364  0.10165  1.0000
  C   C351      1.0  0.18693  0.51588  0.09790  1.0000
  C   C352      1.0  0.18557  0.62374  0.10662  1.0000
  C   C353      1.0  0.23735  0.51439  0.08210  1.0000
  H   H344      1.0  0.18866  0.54985  0.11894  1.0000
  H   H345      1.0  0.17570  0.54532  0.09392  1.0000
  H   H346      1.0  0.20787  0.62904  0.08308  1.0000
  H   H347      1.0  0.15945  0.59560  0.07270  1.0000
  H   H348      1.0  0.21963  0.50645  0.06866  1.0000
  H   H349      1.0  0.20734  0.58961  0.19072  1.0000
  H   H350      1.0  0.10726  0.49945  0.13935  1.0000
  H   H351      1.0  0.31444  0.65792  0.19859  1.0000
  H   H352      1.0  0.15722  0.63572  0.21124  1.0000
  H   H353      1.0  0.16889  0.61250  0.05405  1.0000
  C   C354      1.0  0.19993  0.58263  0.04280  1.0000
  C   C355      1.0  0.19795  0.57549  0.06195  1.0000
  C   C356      1.0  0.20978  0.57839  0.07198  1.0000
  C   C357      1.0  0.22345  0.58880  0.06297  1.0000
  C   C358      1.0  0.22569  0.59568  0.04369  1.0000
  H   H354      1.0  0.29781  0.64444  0.18275  1.0000
  H   H355      1.0  0.18723  0.56765  0.06903  1.0000
  N   N30       1.0  0.16618  0.60615  0.21727  1.0000
  H   H356      1.0  0.30582  0.54645  0.22118  1.0000
  C   C359      1.0  0.03586  0.59157  0.21497  1.0000
  C   C360      1.0  0.05393  0.52794  0.19432  1.0000
  C   C361      1.0  0.21684  0.53429  0.03954  1.0000
  C   C362      1.0  0.22767  0.51667  0.06794  1.0000
  C   C363      1.0  0.16987  0.57334  0.21896  1.0000
  C   C364      1.0  0.29713  0.52370  0.21580  1.0000
  C   C365      1.0  0.24769  0.54300  0.06679  1.0000
  H   H357      1.0  0.25425  0.52647  0.09285  1.0000
  H   H358      1.0  0.16578  0.51410  0.04302  1.0000
  H   H359      1.0  0.05983  0.59613  0.22227  1.0000
  H   H360      1.0  0.30753  0.51086  0.14541  1.0000
  C   C366      1.0  0.18331  0.60598  0.20575  1.0000
  C   C367      1.0  0.30261  0.50570  0.21197  1.0000
  N   N31       1.0  0.28032  0.51504  0.16282  1.0000
  C   C368      1.0  0.26854  0.52390  0.17634  1.0000
  C   C369      1.0  0.27381  0.50512  0.15392  1.0000
  C   C370      1.0  0.24971  0.52299  0.18127  1.0000
  C   C371      1.0  0.07155  0.53067  0.19414  1.0000
  C   C372      1.0  0.30015  0.51562  0.15860  1.0000
  H   H361      1.0  0.20181  0.53583  0.04628  1.0000
  Fe  Fe67      1.0  0.10925  0.57378  0.23272  1.0000
  N   N32       1.0  0.16934  0.61511  0.08159  1.0000
  H   H362      1.0  0.19300  0.62183  0.06097  1.0000
  C   C373      1.0  0.05777  0.54750  0.21907  1.0000
  C   C374      1.0  0.16689  0.51459  0.01401  1.0000
  H   H363      1.0  0.27379  0.53162  0.18348  1.0000
  H   H364      1.0  0.14961  0.51031  0.16188  1.0000
  H   H365      1.0  0.16193  0.61642  0.12739  1.0000
  C   C375      1.0  0.04037  0.54456  0.21884  1.0000
  H   H366      1.0  0.21834  0.54702  0.02863  1.0000
  S   S132      1.0  0.18381  0.57991  0.03123  1.0000
  C   C376      1.0  0.23813  0.54467  0.05268  1.0000
  H   H367      1.0  0.24052  0.53000  0.19203  1.0000
  C   C377      1.0  0.31019  0.53255  0.21834  1.0000
  C   C378      1.0  0.16254  0.50300  0.15375  1.0000
  C   C379      1.0  0.19437  0.62512  0.08789  1.0000
  Fe  Fe68      1.0  0.19367  0.57702  0.00124  1.0000
  H   H368      1.0  0.02820  0.55024  0.22838  1.0000
  N   N33       1.0  0.03864  0.53481  0.20664  1.0000
  C   C380      1.0  0.15959  0.59004  0.22416  1.0000
  C   C381      1.0  0.07345  0.54057  0.20658  1.0000
  C   C382      1.0  0.15508  0.62356  0.22271  1.0000
  C   C383      1.0  0.16062  0.61048  0.06857  1.0000
  C   C384      1.0  0.04490  0.59728  0.22596  1.0000
  H   H369      1.0  0.22836  0.51215  0.17585  1.0000
  C   C385      1.0  0.21401  0.59249  0.03356  1.0000
  C   C386      1.0  0.18720  0.57311  0.20693  1.0000
  H   H370      1.0  0.08363  0.52508  0.18439  1.0000
  C   C387      1.0  0.16865  0.61789  0.11274  1.0000
  H   H371      1.0  0.30677  0.50659  0.17016  1.0000
  H   H372      1.0  0.19506  0.56040  0.20230  1.0000
  H   H373      1.0  0.14770  0.60869  0.10491  1.0000
  H   H374      1.0  0.14602  0.59018  0.23326  1.0000
  S   S133      1.0  0.28551  0.49498  0.20973  1.0000
  H   H375      1.0  0.15317  0.52345  0.01406  1.0000
  S   S134      1.0  0.00596  0.58373  0.20678  1.0000
  H   H376      1.0  0.23849  0.55662  0.04129  1.0000
  H   H377      1.0  0.04387  0.58607  0.20279  1.0000
  H   H378      1.0  0.08701  0.54295  0.20653  1.0000
  H   H379      1.0  0.23692  0.50249  0.09356  1.0000
  C   C388      1.0  0.01658  0.59265  0.21983  1.0000
  H   H380      1.0  0.28274  0.53090  0.21677  1.0000
  C   C389      1.0  0.17394  0.50942  0.03038  1.0000
  C   C390      1.0  0.25500  0.50408  0.15838  1.0000
  C   C391      1.0  0.19720  0.50067  0.10833  1.0000
  H   H381      1.0  0.30190  0.53010  0.15703  1.0000
  H   H382      1.0  0.05263  0.52025  0.18454  1.0000
  C   C392      1.0  0.32127  0.49658  0.21054  1.0000
  H   H383      1.0  0.02074  0.52279  0.19727  1.0000
  H   H384      1.0  0.31768  0.62370  0.14390  1.0000
  H   H385      1.0  0.01360  0.52573  0.22103  1.0000
  H   H386      1.0  0.01112  0.54575  0.20220  1.0000
  H   H387      1.0  0.28314  0.49785  0.14338  1.0000
  H   H388      1.0  0.29756  0.62584  0.16247  1.0000
  H   H389      1.0  0.16411  0.56084  0.22376  1.0000
  N   N34       1.0  0.17727  0.50887  0.99804  1.0000
  H   H390      1.0  0.16302  0.50879  0.13864  1.0000
  C   C393      1.0  0.31291  0.64114  0.17995  1.0000
  H   H391      1.0  0.17449  0.50611  0.15760  1.0000
  S   S135      1.0  0.10159  0.60325  0.23698  1.0000
  H   H392      1.0  0.13994  0.62345  0.22614  1.0000
  H   H393      1.0  0.31555  0.60534  0.16443  1.0000
  H   H394      1.0  0.15890  0.62536  0.23531  1.0000
  C   C394      1.0  0.32222  0.64888  0.18893  1.0000
  C   C395      1.0  0.19476  0.49806  0.99784  1.0000
  C   C396      1.0  0.00620  0.60043  0.23516  1.0000
  H   H395      1.0  0.19720  0.49401  0.04298  1.0000
  S   S136      1.0  0.08659  0.58606  0.28141  1.0000
  S   S137      1.0  0.09005  0.53229  0.29407  1.0000
  S   S138      1.0  0.13583  0.60342  0.26760  1.0000
  H   H396      1.0  0.28997  0.53758  0.31456  1.0000
  C   C397      1.0  0.00920  0.80933  0.46536  1.0000
  Fe  Fe69      1.0  0.08809  0.80946  0.45254  1.0000
  S   S139      1.0  0.07551  0.83830  0.43903  1.0000
  S   S140      1.0  0.11121  0.79069  0.43686  1.0000
  C   C398      1.0  0.01407  0.58465  0.28958  1.0000
  H   H397      1.0  0.04400  0.57646  0.28611  1.0000
  H   H398      1.0  0.10980  0.52185  0.32426  1.0000
  Fe  Fe70      1.0  0.04861  0.83192  0.45757  1.0000
  S   S141      1.0  0.02071  0.84256  0.44917  1.0000
  H   H399      1.0  0.09098  0.89842  0.42282  1.0000
  Fe  Fe71      1.0  0.18193  0.71112  0.47801  1.0000
  S   S142      1.0  0.06085  0.80216  0.46882  1.0000
  S   S143      1.0  0.08193  0.56677  0.24863  1.0000
  Fe  Fe72      1.0  0.18980  0.87804  0.46642  1.0000
  S   S144      1.0  0.21778  0.86561  0.47395  1.0000
  S   S145      1.0  0.17702  0.85733  0.45978  1.0000
  H   H400      1.0  0.23550  0.66868  0.39354  1.0000
  Fe  Fe73      1.0  0.22625  0.89099  0.45458  1.0000
  S   S146      1.0  0.25243  0.89108  0.43264  1.0000
  C   C399      1.0  0.27859  0.54677  0.30850  1.0000
  C   C400      1.0  0.17738  0.98072  0.47416  1.0000
  C   C401      1.0  0.18710  0.96297  0.47116  1.0000
  Fe  Fe74      1.0  0.32632  0.79345  0.48736  1.0000
  C   C402      1.0  0.04785  0.51342  0.28670  1.0000
  Fe  Fe75      1.0  0.31622  0.79487  0.45068  1.0000
  S   S147      1.0  0.30775  0.81430  0.42523  1.0000
  Fe  Fe76      1.0  0.31984  0.58770  0.25564  1.0000
  H   H401      1.0  0.21031  0.82893  0.45859  1.0000
  S   S148      1.0  0.17483  0.94667  0.46973  1.0000
  S   S149      1.0  0.19665  0.71677  0.44820  1.0000
  H   H402      1.0  0.17295  0.54231  0.33808  1.0000
  H   H403      1.0  0.30974  0.85895  0.44942  1.0000
  S   S150      1.0  0.22921  0.68064  0.45890  1.0000
  H   H404      1.0  0.12680  0.76206  0.40452  1.0000
  Fe  Fe77      1.0  0.22246  0.71107  0.45967  1.0000
  S   S151      1.0  0.24401  0.72868  0.44702  1.0000
  Fe  Fe78      1.0  0.20190  0.68586  0.44993  1.0000
  S   S152      1.0  0.19607  0.67964  0.42426  1.0000
  H   H405      1.0  0.15126  0.70570  0.46508  1.0000
  H   H406      1.0  0.02349  0.80322  0.46627  1.0000
  Fe  Fe79      1.0  0.20634  0.56498  0.35673  1.0000
  S   S153      1.0  0.18171  0.57453  0.37824  1.0000
  S   S154      1.0  0.21913  0.53610  0.35104  1.0000
  Fe  Fe80      1.0  0.21020  0.60450  0.33745  1.0000
  S   S155      1.0  0.18545  0.61767  0.35690  1.0000
  S   S156      1.0  0.22643  0.62119  0.31264  1.0000
  Fe  Fe81      1.0  0.19736  0.59580  0.37934  1.0000
  S   S157      1.0  0.20131  0.60046  0.40655  1.0000
  Fe  Fe82      1.0  0.17188  0.59554  0.35412  1.0000
  S   S158      1.0  0.14260  0.59847  0.35049  1.0000
  S   S159      1.0  0.22310  0.58409  0.35990  1.0000
  S   S160      1.0  0.19548  0.58455  0.33266  1.0000
  N   N35       1.0  0.24972  0.57137  0.29325  1.0000
  C   C403      1.0  0.04002  0.87837  0.42097  1.0000
  H   H407      1.0  0.27001  0.57575  0.26816  1.0000
  H   H408      1.0  0.09026  0.89290  0.40128  1.0000
  C   C404      1.0  0.17531  0.51099  0.37550  1.0000
  C   C405      1.0  0.18785  0.52296  0.37125  1.0000
  C   C406      1.0  0.20323  0.52126  0.35654  1.0000
  C   C407      1.0  0.20590  0.50764  0.34596  1.0000
  C   C408      1.0  0.12235  0.88234  0.46435  1.0000
  H   H409      1.0  0.16357  0.51225  0.38706  1.0000
  H   H410      1.0  0.18580  0.53330  0.37959  1.0000
  H   H411      1.0  0.24382  0.63942  0.41604  1.0000
  H   H412      1.0  0.16236  0.98414  0.47603  1.0000
  C   C409      1.0  0.28816  0.59667  0.29394  1.0000
  C   C410      1.0  0.27933  0.59193  0.31261  1.0000
  C   C411      1.0  0.26036  0.59932  0.31847  1.0000
  C   C412      1.0  0.25028  0.61188  0.30580  1.0000
  C   C413      1.0  0.25926  0.61699  0.28724  1.0000
  C   C414      1.0  0.27808  0.60917  0.28124  1.0000
  H   H413      1.0  0.28708  0.58222  0.32246  1.0000
  H   H414      1.0  0.25369  0.59539  0.33282  1.0000
  H   H415      1.0  0.25155  0.62678  0.27739  1.0000
  C   C415      1.0  0.19575  0.65753  0.42061  1.0000
  C   C416      1.0  0.20066  0.64111  0.43327  1.0000
  C   C417      1.0  0.20163  0.62373  0.42906  1.0000
  C   C418      1.0  0.19778  0.62262  0.41218  1.0000
  C   C419      1.0  0.19241  0.63908  0.39975  1.0000
  C   C420      1.0  0.19137  0.65644  0.40398  1.0000
  H   H416      1.0  0.20401  0.64175  0.44613  1.0000
  H   H417      1.0  0.20575  0.61105  0.43876  1.0000
  H   H418      1.0  0.18928  0.63842  0.38679  1.0000
  H   H419      1.0  0.18747  0.66909  0.39415  1.0000
  C   C421      1.0  0.25526  0.73420  0.46196  1.0000
  C   C422      1.0  0.26930  0.74440  0.45403  1.0000
  C   C423      1.0  0.27953  0.74804  0.46527  1.0000
  S   S161      1.0  0.05210  0.84331  0.48082  1.0000
  C   C424      1.0  0.17776  0.49762  0.36472  1.0000
  C   C425      1.0  0.19304  0.49600  0.34988  1.0000
  H   H420      1.0  0.27261  0.74908  0.43907  1.0000
  H   H421      1.0  0.29046  0.75568  0.45891  1.0000
  H   H422      1.0  0.11498  0.72474  0.45678  1.0000
  C   C426      1.0  0.99498  0.49352  0.27191  1.0000
  C   C427      1.0  0.99947  0.56777  0.27698  1.0000
  H   H423      1.0  0.29595  0.55414  0.28158  1.0000
  C   C428      1.0  0.26826  0.86980  0.43173  1.0000
  C   C429      1.0  0.26842  0.85496  0.44710  1.0000
  C   C430      1.0  0.28102  0.83794  0.44554  1.0000
  C   C431      1.0  0.29316  0.83573  0.42851  1.0000
  C   C432      1.0  0.29304  0.85063  0.41329  1.0000
  C   C433      1.0  0.28081  0.86766  0.41496  1.0000
  H   H424      1.0  0.25889  0.85661  0.46016  1.0000
  H   H425      1.0  0.28089  0.82644  0.45731  1.0000
  H   H426      1.0  0.30233  0.84897  0.40008  1.0000
  H   H427      1.0  0.28074  0.87911  0.40307  1.0000
  C   C434      1.0  0.12369  0.77422  0.45248  1.0000
  C   C435      1.0  0.11499  0.76863  0.47101  1.0000
  H   H428      1.0  0.21777  0.50630  0.33455  1.0000
  S   S162      1.0  0.29968  0.79313  0.47981  1.0000
  C   C436      1.0  0.15179  0.75158  0.45809  1.0000
  C   C437      1.0  0.14217  0.76585  0.44612  1.0000
  H   H429      1.0  0.14737  0.88935  0.46700  1.0000
  S   S163      1.0  0.09052  0.87269  0.46234  1.0000
  H   H430      1.0  0.16602  0.74533  0.45305  1.0000
  H   H431      1.0  0.14903  0.77034  0.43188  1.0000
  C   C438      1.0  0.11470  0.86894  0.46066  1.0000
  H   H432      1.0  0.16810  0.71418  0.42094  1.0000
  C   C439      1.0  0.14155  0.87910  0.46390  1.0000
  C   C440      1.0  0.15313  0.86251  0.45955  1.0000
  C   C441      1.0  0.14549  0.84929  0.45556  1.0000
  C   C442      1.0  0.12634  0.85247  0.45615  1.0000
  H   H433      1.0  0.23957  0.59539  0.27395  1.0000
  H   H434      1.0  0.03437  0.51100  0.29463  1.0000
  H   H435      1.0  0.15440  0.83645  0.45216  1.0000
  H   H436      1.0  0.12065  0.84218  0.45298  1.0000
  H   H437      1.0  0.03363  0.87111  0.41439  1.0000
  C   C443      1.0  0.24624  0.56199  0.31131  1.0000
  S   S164      1.0  0.03723  0.50838  0.25672  1.0000
  C   C444      1.0  0.20650  0.95876  0.46864  1.0000
  H   H438      1.0  0.22017  0.97468  0.42875  1.0000
  C   C445      1.0  0.20649  0.99005  0.47143  1.0000
  C   C446      1.0  0.05863  0.87995  0.41433  1.0000
  H   H439      1.0  0.23235  0.56413  0.31979  1.0000
  H   H440      1.0  0.07482  0.51399  0.24324  1.0000
  C   C447      1.0  0.05319  0.51200  0.26791  1.0000
  C   C448      1.0  0.13693  0.60283  0.29069  1.0000
  C   C449      1.0  0.15263  0.60695  0.29407  1.0000
  C   C450      1.0  0.15427  0.60600  0.31236  1.0000
  C   C451      1.0  0.14020  0.60098  0.32740  1.0000
  C   C452      1.0  0.12434  0.59714  0.32401  1.0000
  C   C453      1.0  0.12272  0.59802  0.30569  1.0000
  H   H441      1.0  0.16357  0.61089  0.28252  1.0000
  H   H442      1.0  0.16631  0.60946  0.31479  1.0000
  H   H443      1.0  0.11336  0.59334  0.33560  1.0000
  H   H444      1.0  0.11047  0.59502  0.30320  1.0000
  C   C454      1.0  0.07682  0.52252  0.28469  1.0000
  S   S165      1.0  0.19894  0.90235  0.44540  1.0000
  H   H445      1.0  0.21438  0.85761  0.43481  1.0000
  H   H446      1.0  0.16253  0.56517  0.32711  1.0000
  H   H447      1.0  0.22735  0.57640  0.27939  1.0000
  C   C455      1.0  0.23443  0.58415  0.28516  1.0000
  C   C456      1.0  0.01668  0.55670  0.27081  1.0000
  C   C457      1.0  0.02992  0.88533  0.43681  1.0000
  C   C458      1.0  0.08237  0.52059  0.26605  1.0000
  H   H448      1.0  0.23116  0.96873  0.46697  1.0000
  C   C459      1.0  0.22512  0.84502  0.43442  1.0000
  H   H449      1.0  0.15865  0.74247  0.39795  1.0000
  H   H450      1.0  0.06658  0.87390  0.40241  1.0000
  Fe  Fe83      1.0  0.19105  0.91713  0.46950  1.0000
  H   H451      1.0  0.28480  0.61291  0.26680  1.0000
  S   S166      1.0  0.04576  0.61136  0.25582  1.0000
  H   H452      1.0  0.23503  0.62305  0.34760  1.0000
  C   C460      1.0  0.28192  0.55600  0.28994  1.0000
  H   H453      1.0  0.25773  0.54251  0.33370  1.0000
  C   C461      1.0  0.27604  0.74123  0.48448  1.0000
  Fe  Fe84      1.0  0.07523  0.59526  0.25511  1.0000
  H   H454      1.0  0.01756  0.54582  0.26345  1.0000
  C   C462      1.0  0.00414  0.82822  0.45758  1.0000
  H   H455      1.0  0.09550  0.52382  0.25788  1.0000
  H   H456      1.0  0.21438  0.64049  0.35261  1.0000
  C   C463      1.0  0.26722  0.56829  0.28247  1.0000
  N   N36       1.0  0.25272  0.81286  0.43369  1.0000
  C   C464      1.0  0.23693  0.81290  0.44732  1.0000
  C   C465      1.0  0.25505  0.82859  0.42047  1.0000
  H   H457      1.0  0.24150  0.50440  0.27369  1.0000
  C   C466      1.0  0.24135  0.84493  0.42070  1.0000
  H   H458      1.0  0.01566  0.88358  0.44243  1.0000
  C   C467      1.0  0.26744  0.79602  0.43390  1.0000
  H   H459      1.0  0.23517  0.80049  0.45791  1.0000
  H   H460      1.0  0.26773  0.82871  0.40989  1.0000
  C   C468      1.0  0.28744  0.69485  0.47240  1.0000
  H   H461      1.0  0.12180  0.51001  0.35369  1.0000
  H   H462      1.0  0.04630  0.55181  0.26893  1.0000
  H   H463      1.0  0.27472  0.79430  0.44544  1.0000
  H   H464      1.0  0.26147  0.78356  0.43580  1.0000
  H   H465      1.0  0.27804  0.79671  0.42068  1.0000
  H   H466      1.0  0.21424  0.94545  0.46569  1.0000
  N   N37       1.0  0.14577  0.54448  0.33400  1.0000
  C   C469      1.0  0.13957  0.55085  0.31761  1.0000
  C   C470      1.0  0.13940  0.53010  0.34687  1.0000
  C   C471      1.0  0.12642  0.54293  0.31393  1.0000
  C   C472      1.0  0.12656  0.52160  0.34350  1.0000
  C   C473      1.0  0.11996  0.52816  0.32696  1.0000
  C   C474      1.0  0.15966  0.55265  0.33780  1.0000
  H   H467      1.0  0.14467  0.56220  0.30732  1.0000
  H   H468      1.0  0.14424  0.52508  0.35988  1.0000
  H   H469      1.0  0.12120  0.54824  0.30112  1.0000
  S   S167      1.0  0.18531  0.68058  0.47923  1.0000
  C   C475      1.0  0.01514  0.60706  0.24558  1.0000
  H   H470      1.0  0.22408  0.59126  0.29582  1.0000
  C   C476      1.0  0.03279  0.55991  0.27404  1.0000
  H   H471      1.0  0.12382  0.50763  0.27880  1.0000
  N   N38       1.0  0.14184  0.71746  0.43987  1.0000
  C   C477      1.0  0.15409  0.72245  0.42371  1.0000
  C   C478      1.0  0.12439  0.72821  0.44361  1.0000
  C   C479      1.0  0.14882  0.73841  0.41062  1.0000
  C   C480      1.0  0.11859  0.74413  0.43074  1.0000
  C   C481      1.0  0.13094  0.74929  0.41421  1.0000
  C   C482      1.0  0.14768  0.70114  0.45381  1.0000
  H   H472      1.0  0.31166  0.83712  0.46605  1.0000
  H   H473      1.0  0.03086  0.89878  0.45840  1.0000
  S   S168      1.0  0.32512  0.76403  0.45239  1.0000
  C   C483      1.0  0.14296  0.74560  0.47645  1.0000
  Fe  Fe85      1.0  0.21211  0.67816  0.48812  1.0000
  C   C484      1.0  0.03456  0.60498  0.24135  1.0000
  H   H474      1.0  0.10494  0.75295  0.43395  1.0000
  H   H475      1.0  0.13639  0.69319  0.45995  1.0000
  Fe  Fe86      1.0  0.11369  0.59127  0.26274  1.0000
  C   C485      1.0  0.08679  0.88860  0.41669  1.0000
  H   H476      1.0  0.05549  0.51995  0.30958  1.0000
  C   C486      1.0  0.12462  0.75432  0.48298  1.0000
  C   C487      1.0  0.05981  0.51840  0.29518  1.0000
  H   H477      1.0  0.10069  0.77504  0.47600  1.0000
  H   H478      1.0  0.16002  0.69141  0.44762  1.0000
  C   C488      1.0  0.03149  0.57372  0.28376  1.0000
  H   H479      1.0  0.01336  0.59586  0.29644  1.0000
  Fe  Fe87      1.0  0.09529  0.55813  0.27341  1.0000
  C   C489      1.0  0.27493  0.68390  0.47305  1.0000
  C   C490      1.0  0.07067  0.51503  0.25775  1.0000
  C   C491      1.0  0.26060  0.54965  0.31925  1.0000
  H   H480      1.0  0.15461  0.55714  0.35145  1.0000
  S   S169      1.0  0.30625  0.57422  0.24099  1.0000
  C   C492      1.0  0.21611  0.97212  0.46912  1.0000
  H   H481      1.0  0.09519  0.87451  0.42102  1.0000
  N   N39       1.0  0.06692  0.88828  0.42321  1.0000
  S   S170      1.0  0.12333  0.56231  0.25704  1.0000
  H   H482      1.0  0.06371  0.90140  0.44608  1.0000
  C   C493      1.0  0.03845  0.89378  0.44579  1.0000
  S   S171      1.0  0.31150  0.58610  0.28660  1.0000
  C   C494      1.0  0.25119  0.72798  0.48131  1.0000
  C   C495      1.0  0.05707  0.89519  0.43874  1.0000
  C   C496      1.0  0.22285  0.82891  0.44781  1.0000
  S   S172      1.0  0.09461  0.81865  0.47561  1.0000
  Fe  Fe88      1.0  0.08010  0.84694  0.46352  1.0000
  H   H483      1.0  0.24346  0.85756  0.41057  1.0000
  H   H484      1.0  0.00704  0.61357  0.25710  1.0000
  Fe  Fe89      1.0  0.31059  0.76235  0.48247  1.0000
  N   N40       1.0  0.23447  0.63754  0.36873  1.0000
  C   C497      1.0  0.23343  0.65438  0.37294  1.0000
  C   C498      1.0  0.23878  0.62137  0.38119  1.0000
  C   C499      1.0  0.23708  0.65530  0.38988  1.0000
  C   C500      1.0  0.24261  0.62177  0.39820  1.0000
  C   C501      1.0  0.24172  0.63886  0.40255  1.0000
  C   C502      1.0  0.22973  0.63702  0.35129  1.0000
  H   H485      1.0  0.22927  0.66722  0.36340  1.0000
  H   H486      1.0  0.23860  0.60806  0.37837  1.0000
  H   H487      1.0  0.23601  0.64703  0.33943  1.0000
  H   H488      1.0  0.24525  0.60894  0.40832  1.0000
  S   S173      1.0  0.21919  0.90783  0.47679  1.0000
  H   H489      1.0  0.11340  0.89513  0.46783  1.0000
  H   H490      1.0  0.26820  0.49850  0.24739  1.0000
  N   N41       1.0  0.99837  0.58178  0.28587  1.0000
  H   H491      1.0  0.18784  0.97950  0.43039  1.0000
  C   C503      1.0  0.12325  0.49276  0.28463  1.0000
  H   H492      1.0  0.29226  0.70396  0.45946  1.0000
  H   H493      1.0  0.27002  0.68447  0.46059  1.0000
  H   H494      1.0  0.99982  0.78350  0.47734  1.0000
  C   C504      1.0  0.99576  0.79816  0.47157  1.0000
  H   H495      1.0  0.00327  0.51151  0.28499  1.0000
  H   H496      1.0  0.31792  0.85686  0.47029  1.0000
  C   C505      1.0  0.31823  0.84935  0.45930  1.0000
  H   H497      1.0  0.24050  0.71998  0.48756  1.0000
  C   C506      1.0  0.22075  0.98964  0.42348  1.0000
  C   C507      1.0  0.29285  0.69480  0.48878  1.0000
  H   H498      1.0  0.30202  0.70390  0.48830  1.0000
  Fe  Fe90      1.0  0.12550  0.82538  0.56321  1.0000
  S   S174      1.0  0.10869  0.85446  0.56000  1.0000
  S   S175      1.0  0.13385  0.80792  0.54152  1.0000
  Fe  Fe91      1.0  0.12885  0.82385  0.60206  1.0000
  S   S176      1.0  0.11202  0.85286  0.60311  1.0000
  S   S177      1.0  0.14381  0.80380  0.62335  1.0000
  Fe  Fe92      1.0  0.09329  0.84487  0.58890  1.0000
  Fe  Fe93      1.0  0.12858  0.86037  0.57413  1.0000
  S   S178      1.0  0.14237  0.88500  0.56147  1.0000
  S   S179      1.0  0.10845  0.81512  0.59089  1.0000
  S   S180      1.0  0.14695  0.83215  0.57434  1.0000
  Fe  Fe94      1.0  0.19199  0.93131  0.60759  1.0000
  S   S181      1.0  0.22120  0.91655  0.59811  1.0000
  S   S182      1.0  0.16858  0.91574  0.61888  1.0000
  Fe  Fe95      1.0  0.20325  0.96867  0.60094  1.0000
  S   S183      1.0  0.23335  0.95733  0.59039  1.0000
  C   C508      1.0  0.21776  0.99071  0.53951  1.0000
  Fe  Fe96      1.0  0.22247  0.94181  0.57519  1.0000
  S   S184      1.0  0.23522  0.93970  0.54545  1.0000
  Fe  Fe97      1.0  0.22936  0.93321  0.61412  1.0000
  S   S185      1.0  0.24990  0.91988  0.63261  1.0000
  S   S186      1.0  0.19254  0.95546  0.58339  1.0000
  S   S187      1.0  0.19999  0.94571  0.62601  1.0000
  C   C509      1.0  0.26157  0.73151  0.49257  1.0000
  C   C510      1.0  0.21631  0.64690  0.63710  1.0000
  C   C511      1.0  0.00156  0.86550  0.61817  1.0000
  C   C512      1.0  0.24948  0.59399  0.65436  1.0000
  S   S188      1.0  0.25029  0.59992  0.69955  1.0000
  C   C513      1.0  0.05587  0.81892  0.60016  1.0000
  C   C514      1.0  0.23285  0.90062  0.51864  1.0000
  Fe  Fe98      1.0  0.20810  0.88348  0.49544  1.0000
  H   H499      1.0  0.29490  0.76635  0.66351  1.0000
  H   H500      1.0  0.99800  0.77647  0.52569  1.0000
  Fe  Fe99      1.0  0.22319  0.72327  0.59578  1.0000
  S   S189      1.0  0.22009  0.69358  0.60584  1.0000
  S   S190      1.0  0.20114  0.74327  0.58158  1.0000
  Fe  Fe100     1.0  0.26194  0.71511  0.60374  1.0000
  S   S191      1.0  0.26214  0.68455  0.61441  1.0000
  S   S192      1.0  0.28824  0.72572  0.59996  1.0000
  Fe  Fe101     1.0  0.24930  0.68674  0.59005  1.0000
  S   S193      1.0  0.25856  0.66342  0.57413  1.0000
  Fe  Fe102     1.0  0.23296  0.69394  0.62938  1.0000
  S   S194      1.0  0.21952  0.68160  0.65866  1.0000
  S   S195      1.0  0.25164  0.71631  0.57803  1.0000
  S   S196      1.0  0.23356  0.72455  0.62062  1.0000
  H   H501      1.0  0.02734  0.86697  0.62407  1.0000
  H   H502      1.0  0.16460  0.82741  0.49881  1.0000
  C   C515      1.0  0.23317  0.64054  0.62569  1.0000
  N   N42       1.0  0.28591  0.68418  0.50534  1.0000
  H   H503      1.0  0.99863  0.88006  0.61146  1.0000
  C   C516      1.0  0.21461  0.52838  0.73266  1.0000
  Fe  Fe103     1.0  0.31365  0.80514  0.62389  1.0000
  S   S197      1.0  0.28657  0.79530  0.63316  1.0000
  H   H504      1.0  0.16552  0.95959  0.55685  1.0000
  C   C517      1.0  0.01363  0.79824  0.51666  1.0000
  H   H505      1.0  0.22279  0.98653  0.51129  1.0000
  C   C518      1.0  0.15896  0.94338  0.54053  1.0000
  C   C519      1.0  0.13524  0.83954  0.50242  1.0000
  C   C520      1.0  0.19396  0.70838  0.56119  1.0000
  H   H506      1.0  0.29554  0.72558  0.55947  1.0000
  H   H507      1.0  0.14643  0.87688  0.52203  1.0000
  H   H508      1.0  0.30706  0.72950  0.53508  1.0000
  C   C521      1.0  0.15771  0.85212  0.51044  1.0000
  C   C522      1.0  0.29459  0.78662  0.53583  1.0000
  H   H509      1.0  0.09525  0.86818  0.50130  1.0000
  C   C523      1.0  0.29573  0.73545  0.54581  1.0000
  H   H510      1.0  0.05085  0.77061  0.58369  1.0000
  C   C524      1.0  0.26220  0.87763  0.58579  1.0000
  H   H511      1.0  0.25130  0.90372  0.56885  1.0000
  C   C525      1.0  0.99752  0.79115  0.51988  1.0000
  C   C526      1.0  0.01773  0.85803  0.62541  1.0000
  C   C527      1.0  0.24665  0.66248  0.55734  1.0000
  C   C528      1.0  0.24650  0.64493  0.55469  1.0000
  C   C529      1.0  0.23823  0.64321  0.54083  1.0000
  C   C530      1.0  0.23079  0.67674  0.53136  1.0000
  C   C531      1.0  0.23868  0.67849  0.54573  1.0000
  H   H512      1.0  0.25283  0.63252  0.56342  1.0000
  H   H513      1.0  0.19740  0.96010  0.53752  1.0000
  H   H514      1.0  0.23905  0.69213  0.54750  1.0000
  C   C532      1.0  0.28737  0.74489  0.60965  1.0000
  C   C533      1.0  0.27069  0.75416  0.61923  1.0000
  C   C534      1.0  0.27050  0.76962  0.62646  1.0000
  C   C535      1.0  0.28692  0.77606  0.62387  1.0000
  C   C536      1.0  0.30358  0.76682  0.61425  1.0000
  C   C537      1.0  0.30384  0.75114  0.60742  1.0000
  H   H515      1.0  0.25793  0.74944  0.62107  1.0000
  H   H516      1.0  0.25757  0.77668  0.63395  1.0000
  H   H517      1.0  0.22043  0.54078  0.72837  1.0000
  H   H518      1.0  0.31686  0.74388  0.60029  1.0000
  C   C538      1.0  0.30972  0.76119  0.66291  1.0000
  H   H519      1.0  0.17329  0.75402  0.52715  1.0000
  H   H520      1.0  0.20282  0.85262  0.56482  1.0000
  H   H521      1.0  0.18370  0.67747  0.54155  1.0000
  C   C539      1.0  0.17252  0.74134  0.52271  1.0000
  C   C540      1.0  0.24310  0.62361  0.68965  1.0000
  C   C541      1.0  0.22630  0.63414  0.69757  1.0000
  C   C542      1.0  0.21962  0.65222  0.68825  1.0000
  C   C543      1.0  0.22967  0.65991  0.67096  1.0000
  C   C544      1.0  0.24684  0.64966  0.66339  1.0000
  C   C545      1.0  0.25356  0.63158  0.67275  1.0000
  H   H522      1.0  0.21818  0.62820  0.71064  1.0000
  H   H523      1.0  0.20639  0.66014  0.69425  1.0000
  H   H524      1.0  0.25477  0.65553  0.65018  1.0000
  H   H525      1.0  0.26674  0.62366  0.66671  1.0000
  H   H526      1.0  0.18881  0.73797  0.55135  1.0000
  C   C546      1.0  0.26962  0.90624  0.62094  1.0000
  C   C547      1.0  0.28003  0.89086  0.63107  1.0000
  C   C548      1.0  0.29549  0.87957  0.62177  1.0000
  C   C549      1.0  0.30083  0.88391  0.60235  1.0000
  C   C550      1.0  0.29073  0.89962  0.59229  1.0000
  C   C551      1.0  0.27494  0.91058  0.60152  1.0000
  H   H527      1.0  0.27600  0.88752  0.64611  1.0000
  H   H528      1.0  0.30341  0.86770  0.62966  1.0000
  H   H529      1.0  0.29491  0.90310  0.57728  1.0000
  H   H530      1.0  0.26706  0.92251  0.59362  1.0000
  H   H531      1.0  0.04388  0.81714  0.64084  1.0000
  H   H532      1.0  0.26235  0.59621  0.65720  1.0000
  H   H533      1.0  0.02653  0.78919  0.51976  1.0000
  C   C552      1.0  0.02297  0.83060  0.58628  1.0000
  H   H534      1.0  0.28215  0.73691  0.54196  1.0000
  C   C553      1.0  0.21951  0.89141  0.53126  1.0000
  C   C554      1.0  0.23797  0.91529  0.52309  1.0000
  C   C555      1.0  0.22977  0.92069  0.54020  1.0000
  C   C556      1.0  0.21690  0.91107  0.55299  1.0000
  C   C557      1.0  0.21193  0.89635  0.54860  1.0000
  H   H535      1.0  0.21042  0.91527  0.56608  1.0000
  H   H536      1.0  0.20172  0.88920  0.55837  1.0000
  C   C558      1.0  0.15926  0.78611  0.61253  1.0000
  C   C559      1.0  0.17342  0.77402  0.62105  1.0000
  C   C560      1.0  0.18633  0.76060  0.61180  1.0000
  C   C561      1.0  0.18508  0.75935  0.59401  1.0000
  C   C562      1.0  0.17076  0.77127  0.58569  1.0000
  C   C563      1.0  0.15786  0.78451  0.59495  1.0000
  H   H537      1.0  0.17453  0.77510  0.63470  1.0000
  H   H538      1.0  0.19728  0.75137  0.61837  1.0000
  H   H539      1.0  0.16968  0.77036  0.57197  1.0000
  H   H540      1.0  0.14682  0.79345  0.58838  1.0000
  C   C564      1.0  0.14930  0.89368  0.57757  1.0000
  C   C565      1.0  0.16307  0.90435  0.57124  1.0000
  C   C566      1.0  0.16867  0.91170  0.58375  1.0000
  C   C567      1.0  0.16076  0.90803  0.60274  1.0000
  C   C568      1.0  0.14699  0.89731  0.60911  1.0000
  C   C569      1.0  0.14130  0.89011  0.59656  1.0000
  H   H541      1.0  0.16976  0.90653  0.55670  1.0000
  H   H542      1.0  0.17921  0.92000  0.57879  1.0000
  H   H543      1.0  0.14080  0.89446  0.62381  1.0000
  H   H544      1.0  0.13059  0.88200  0.60160  1.0000
  H   H545      1.0  0.06826  0.81445  0.60601  1.0000
  C   C570      1.0  0.08096  0.80282  0.52737  1.0000
  C   C571      1.0  0.09832  0.79467  0.51794  1.0000
  C   C572      1.0  0.11463  0.79636  0.52220  1.0000
  C   C573      1.0  0.11353  0.80613  0.53597  1.0000
  C   C574      1.0  0.09615  0.81430  0.54540  1.0000
  C   C575      1.0  0.07984  0.81269  0.54107  1.0000
  H   H546      1.0  0.01032  0.83517  0.58086  1.0000
  H   H547      1.0  0.12806  0.79007  0.51486  1.0000
  H   H548      1.0  0.09520  0.82200  0.55596  1.0000
  H   H549      1.0  0.06641  0.81936  0.54810  1.0000
  S   S198      1.0  0.21133  0.87451  0.52520  1.0000
  S   S199      1.0  0.06083  0.80162  0.52105  1.0000
  C   C576      1.0  0.21938  0.51539  0.72096  1.0000
  C   C577      1.0  0.19438  0.94411  0.51904  1.0000
  C   C578      1.0  0.18278  0.93439  0.51535  1.0000
  H   H550      1.0  0.11478  0.74839  0.53892  1.0000
  H   H551      1.0  0.23938  0.89631  0.50553  1.0000
  C   C579      1.0  0.31125  0.77167  0.56064  1.0000
  H   H552      1.0  0.28473  0.76835  0.52469  1.0000
  H   H553      1.0  0.22890  0.51782  0.70769  1.0000
  H   H554      1.0  0.25326  0.58538  0.64352  1.0000
  N   N43       1.0  0.16529  0.93421  0.52595  1.0000
  H   H555      1.0  0.02954  0.85794  0.57896  1.0000
  C   C580      1.0  0.21184  0.49930  0.72630  1.0000
  C   C581      1.0  0.01294  0.81720  0.50969  1.0000
  H   H556      1.0  0.22502  0.68903  0.52216  1.0000
  N   N44       1.0  0.29848  0.75354  0.54701  1.0000
  H   H557      1.0  0.01317  0.81346  0.64081  1.0000
  N   N45       1.0  0.07781  0.77077  0.56645  1.0000
  C   C582      1.0  0.08695  0.77614  0.57702  1.0000
  C   C583      1.0  0.08760  0.76066  0.55311  1.0000
  C   C584      1.0  0.10639  0.77154  0.57427  1.0000
  H   H558      1.0  0.11420  0.87823  0.51949  1.0000
  C   C585      1.0  0.11647  0.76138  0.56060  1.0000
  C   C586      1.0  0.05747  0.77638  0.56924  1.0000
  H   H559      1.0  0.07928  0.78456  0.58724  1.0000
  H   H560      1.0  0.05319  0.79181  0.56672  1.0000
  H   H561      1.0  0.11365  0.77637  0.58222  1.0000
  S   S200      1.0  0.31845  0.82790  0.63497  1.0000
  C   C587      1.0  0.29115  0.68494  0.52247  1.0000
  H   H562      1.0  0.04994  0.83945  0.63338  1.0000
  C   C588      1.0  0.26857  0.67250  0.48984  1.0000
  H   H563      1.0  0.17191  0.85147  0.51136  1.0000
  C   C589      1.0  0.18189  0.86123  0.61760  1.0000
  H   H564      1.0  0.19022  0.87419  0.58907  1.0000
  H   H565      1.0  0.18254  0.87301  0.62301  1.0000
  H   H566      1.0  0.17271  0.84498  0.64464  1.0000
  C   C590      1.0  0.19241  0.69129  0.55859  1.0000
  C   C591      1.0  0.23046  0.65900  0.52902  1.0000
  C   C592      1.0  0.15377  0.92333  0.52208  1.0000
  C   C593      1.0  0.27641  0.84800  0.60383  1.0000
  H   H567      1.0  0.29919  0.84578  0.57095  1.0000
  S   S201      1.0  0.15432  0.72691  0.49134  1.0000
  C   C594      1.0  0.02818  0.81204  0.59496  1.0000
  N   N46       1.0  0.27540  0.86149  0.58625  1.0000
  C   C595      1.0  0.22114  0.61814  0.65950  1.0000
  C   C596      1.0  0.03851  0.83212  0.64142  1.0000
  H   H568      1.0  0.21672  0.60988  0.67313  1.0000
  C   C597      1.0  0.10196  0.85410  0.50791  1.0000
  H   H569      1.0  0.29156  0.69949  0.52263  1.0000
  C   C598      1.0  0.30403  0.78781  0.54896  1.0000
  H   H570      1.0  0.28857  0.84861  0.60912  1.0000
  H   H571      1.0  0.10094  0.84414  0.49980  1.0000
  H   H572      1.0  0.19798  0.67845  0.56740  1.0000
  H   H573      1.0  0.13944  0.92540  0.53067  1.0000
  C   C599      1.0  0.23344  0.96935  0.63919  1.0000
  H   H574      1.0  0.31913  0.77245  0.57047  1.0000
  H   H575      1.0  0.23813  0.62948  0.53907  1.0000
  C   C600      1.0  0.18617  0.86185  0.59838  1.0000
  C   C601      1.0  0.17631  0.84556  0.62971  1.0000
  H   H576      1.0  0.17816  0.82033  0.59782  1.0000
  N   N47       1.0  0.31973  0.77043  0.66889  1.0000
  H   H577      1.0  0.04857  0.79191  0.60877  1.0000
  H   H578      1.0  0.29837  0.86841  0.54128  1.0000
  C   C602      1.0  0.18732  0.72478  0.54931  1.0000
  H   H579      1.0  0.15779  0.74232  0.52217  1.0000
  H   H580      1.0  0.24810  0.92254  0.51320  1.0000
  H   H581      1.0  0.14531  0.94277  0.54932  1.0000
  C   C603      1.0  0.17519  0.83073  0.62251  1.0000
  H   H582      1.0  0.02526  0.82287  0.50745  1.0000
  N   N48       1.0  0.17920  0.72415  0.53531  1.0000
  H   H583      1.0  0.19756  0.64088  0.66338  1.0000
  H   H584      1.0  0.24244  0.58599  0.66752  1.0000
  N   N49       1.0  0.18493  0.84730  0.59140  1.0000
  H   H585      1.0  0.17078  0.81849  0.63181  1.0000
  H   H586      1.0  0.27397  0.89760  0.54009  1.0000
  H   H587      1.0  0.32027  0.79667  0.67425  1.0000
  H   H588      1.0  0.31633  0.77164  0.61218  1.0000
  H   H589      1.0  0.18101  0.74139  0.50837  1.0000
  H   H590      1.0  0.30399  0.78388  0.69105  1.0000
  C   C604      1.0  0.27451  0.67258  0.50589  1.0000
  S   S202      1.0  0.06209  0.85430  0.59350  1.0000
  C   C605      1.0  0.17944  0.83186  0.60321  1.0000
  C   C606      1.0  0.18910  0.84866  0.57115  1.0000
  H   H591      1.0  0.17825  0.85944  0.56483  1.0000
  C   C607      1.0  0.17767  0.70743  0.53265  1.0000
  H   H592      1.0  0.17152  0.70687  0.52138  1.0000
  H   H593      1.0  0.09410  0.85042  0.52237  1.0000
  C   C608      1.0  0.18820  0.95320  0.53407  1.0000
  C   C609      1.0  0.18435  0.69075  0.54414  1.0000
  C   C610      1.0  0.15362  0.83858  0.50344  1.0000
  C   C611      1.0  0.12525  0.86712  0.51481  1.0000
  H   H594      1.0  0.18962  0.83527  0.56731  1.0000
  N   N50       1.0  0.12133  0.85367  0.50812  1.0000
  C   C612      1.0  0.21020  0.63564  0.65407  1.0000
  C   C613      1.0  0.28795  0.87102  0.55364  1.0000
  H   H595      1.0  0.31407  0.74199  0.56851  1.0000
  H   H596      1.0  0.09919  0.78700  0.50734  1.0000
  C   C614      1.0  0.27436  0.88738  0.55299  1.0000
  C   C615      1.0  0.26147  0.89076  0.56915  1.0000
  C   C616      1.0  0.00989  0.82817  0.63471  1.0000
  S   S203      1.0  0.29071  0.74334  0.49818  1.0000
  H   H597      1.0  0.05180  0.77172  0.55940  1.0000
  H   H598      1.0  0.23826  0.64938  0.61264  1.0000
  Fe  Fe104     1.0  0.23617  0.59040  0.72938  1.0000
  C   C617      1.0  0.10706  0.75579  0.54999  1.0000
  H   H599      1.0  0.30504  0.67589  0.52348  1.0000
  C   C618      1.0  0.25258  0.96806  0.63235  1.0000
  C   C619      1.0  0.24376  0.62296  0.63154  1.0000
  H   H600      1.0  0.31059  0.73853  0.64994  1.0000
  C   C620      1.0  0.05028  0.83765  0.59220  1.0000
  C   C621      1.0  0.04468  0.80621  0.60179  1.0000
  C   C622      1.0  0.14345  0.86647  0.51624  1.0000
  N   N51       1.0  0.23768  0.61201  0.64825  1.0000
  C   C623      1.0  0.28829  0.85819  0.57049  1.0000
  C   C624      1.0  0.17036  0.95289  0.54490  1.0000
  H   H601      1.0  0.08044  0.75695  0.54427  1.0000
  H   H602      1.0  0.25890  0.66383  0.49053  1.0000
  C   C625      1.0  0.03391  0.84344  0.58512  1.0000
  H   H603      1.0  0.25249  0.88069  0.59842  1.0000
  H   H604      1.0  0.26377  0.85084  0.61478  1.0000
  H   H605      1.0  0.13157  0.75842  0.55789  1.0000
  S   S204      1.0  0.01404  0.79592  0.59840  1.0000
  C   C626      1.0  0.30841  0.75452  0.55940  1.0000
  H   H606      1.0  0.23031  0.98093  0.54266  1.0000
  H   H607      1.0  0.27794  0.83360  0.60180  1.0000
  H   H608      1.0  0.25707  0.61832  0.62281  1.0000
  C   C627      1.0  0.26022  0.98373  0.62937  1.0000
  H   H609      1.0  0.20049  0.70897  0.57218  1.0000
  H   H610      1.0  0.20831  0.66082  0.63321  1.0000
  H   H611      1.0  0.30617  0.80118  0.54978  1.0000
  H   H612      1.0  0.25874  0.72624  0.50746  1.0000
  H   H613      1.0  0.27501  0.98296  0.62390  1.0000
  S   S205      1.0  0.32140  0.81872  0.59422  1.0000
  H   H614      1.0  0.26967  0.66354  0.51884  1.0000
  H   H615      1.0  0.15275  0.92737  0.50714  1.0000
  H   H616      1.0  0.20825  0.94418  0.51056  1.0000
  S   S206      1.0  0.22092  0.65545  0.51155  1.0000
  H   H617      1.0  0.16008  0.90824  0.52540  1.0000
  H   H618      1.0  0.22768  0.95702  0.64161  1.0000
  H   H619      1.0  0.11773  0.74984  0.49720  1.0000
  H   H620      1.0  0.13219  0.82878  0.49721  1.0000
  H   H621      1.0  0.28961  0.79906  0.52620  1.0000
  H   H622      1.0  0.18790  0.92686  0.50401  1.0000
  H   H623      1.0  0.29932  0.79568  0.66822  1.0000
  H   H624      1.0  0.03536  0.83383  0.65611  1.0000
  C   C628      1.0  0.29197  0.76924  0.53500  1.0000
  S   S207      1.0  0.32558  0.81478  0.50374  1.0000
  C   C629      1.0  0.31035  0.78746  0.67605  1.0000
  Fe  Fe105     1.0  0.06620  0.81404  0.49069  1.0000
  S   S208      1.0  0.17925  0.89370  0.48978  1.0000
  H   H625      1.0  0.26137  0.95493  0.62939  1.0000
  H   H626      1.0  0.28088  0.68027  0.53511  1.0000
  C   C630      1.0  0.31851  0.74535  0.65534  1.0000
  N   N52       1.0  0.02177  0.83955  0.63343  1.0000
  S   S209      1.0  0.31955  0.86962  0.59017  1.0000
  N   N53       1.0  0.22220  0.98588  0.64272  1.0000
  H   H627      1.0  0.19945  0.98194  0.66530  1.0000
  H   H628      1.0  0.19678  0.97832  0.64343  1.0000
  H   H629      1.0  0.99564  0.84358  0.50026  1.0000
  S   S210      1.0  0.20728  0.70816  0.48941  1.0000
  C   C631      1.0  0.20219  0.98691  0.64996  1.0000
  C   C632      1.0  0.99632  0.82882  0.50580  1.0000
  Fe  Fe106     1.0  0.09048  0.56043  0.87132  1.0000
  S   S211      1.0  0.10037  0.57434  0.84183  1.0000
  Fe  Fe107     1.0  0.12934  0.54838  0.87981  1.0000
  S   S212      1.0  0.14261  0.56063  0.85108  1.0000
  S   S213      1.0  0.14987  0.53420  0.89829  1.0000
  Fe  Fe108     1.0  0.11904  0.58495  0.85366  1.0000
  S   S214      1.0  0.12518  0.61370  0.84415  1.0000
  Fe  Fe109     1.0  0.12332  0.54898  0.84145  1.0000
  S   S215      1.0  0.13379  0.53740  0.81538  1.0000
  S   S216      1.0  0.10696  0.57368  0.88344  1.0000
  S   S217      1.0  0.11223  0.53397  0.87001  1.0000
  Fe  Fe110     1.0  0.17801  0.57181  0.97007  1.0000
  S   S218      1.0  0.20613  0.56527  0.95198  1.0000
  S   S219      1.0  0.15077  0.57376  0.96224  1.0000
  H   H630      1.0  0.14917  0.56117  0.78157  1.0000
  H   H631      1.0  0.08258  0.54163  0.91494  1.0000
  Fe  Fe111     1.0  0.21220  0.58873  0.96089  1.0000
  S   S220      1.0  0.22623  0.60807  0.93706  1.0000
  Fe  Fe112     1.0  0.21486  0.54815  0.97824  1.0000
  S   S221      1.0  0.23387  0.52024  0.97853  1.0000
  H   H632      1.0  0.01082  0.52760  0.86789  1.0000
  H   H633      1.0  0.32410  0.55120  0.78471  1.0000
  S   S222      1.0  0.21463  0.57392  0.78131  1.0000
  C   C633      1.0  0.09975  0.52212  0.79138  1.0000
  C   C634      1.0  0.08894  0.52695  0.91593  1.0000
  S   S223      1.0  0.32114  0.60466  0.86118  1.0000
  C   C635      1.0  0.23499  0.50439  0.92411  1.0000
  Fe  Fe113     1.0  0.21278  0.56384  0.75658  1.0000
  H   H634      1.0  0.11065  0.60742  0.81370  1.0000
  C   C636      1.0  0.26364  0.51287  0.78034  1.0000
  H   H635      1.0  0.20436  0.53901  0.80455  1.0000
  H   H636      1.0  0.29055  0.54921  0.81046  1.0000
  C   C637      1.0  0.31074  0.52001  0.84138  1.0000
  S   S224      1.0  0.28719  0.60840  0.82740  1.0000
  C   C638      1.0  0.04292  0.56289  0.87338  1.0000
  S   S225      1.0  0.30595  0.56641  0.86344  1.0000
  C   C639      1.0  0.04598  0.56881  0.85400  1.0000
  S   S226      1.0  0.31133  0.57320  0.91145  1.0000
  C   C640      1.0  0.13200  0.58629  0.79031  1.0000
  C   C641      1.0  0.03761  0.52871  0.83721  1.0000
  C   C642      1.0  0.15639  0.60504  0.76280  1.0000
  S   S227      1.0  0.18981  0.62692  0.77370  1.0000
  H   H637      1.0  0.28439  0.51415  0.84120  1.0000
  C   C643      1.0  0.23413  0.51323  0.95815  1.0000
  C   C644      1.0  0.09288  0.50918  0.82445  1.0000
  H   H638      1.0  0.03297  0.54186  0.82763  1.0000
  H   H639      1.0  0.11351  0.52946  0.92343  1.0000
  C   C645      1.0  0.01042  0.51855  0.85899  1.0000
  H   H640      1.0  0.27759  0.51775  0.79981  1.0000
  C   C646      1.0  0.26969  0.57109  0.79903  1.0000
  C   C647      1.0  0.28325  0.56354  0.80992  1.0000
  C   C648      1.0  0.28806  0.57478  0.81938  1.0000
  C   C649      1.0  0.27923  0.59354  0.81810  1.0000
  C   C650      1.0  0.26501  0.60082  0.80797  1.0000
  C   C651      1.0  0.26022  0.58960  0.79843  1.0000
  H   H641      1.0  0.29916  0.56909  0.82700  1.0000
  H   H642      1.0  0.25812  0.61532  0.80697  1.0000
  H   H643      1.0  0.24963  0.59547  0.79017  1.0000
  Fe  Fe114     1.0  0.24454  0.57278  0.76783  1.0000
  H   H644      1.0  0.13057  0.60135  0.90084  1.0000
  H   H645      1.0  0.02262  0.55581  0.89822  1.0000
  C   C652      1.0  0.19713  0.53405  0.81855  1.0000
  C   C653      1.0  0.17204  0.60532  0.92233  1.0000
  C   C654      1.0  0.17549  0.60510  0.88501  1.0000
  C   C655      1.0  0.25006  0.59895  0.93012  1.0000
  C   C656      1.0  0.26024  0.58705  0.94306  1.0000
  C   C657      1.0  0.27918  0.57955  0.93731  1.0000
  C   C658      1.0  0.28789  0.58355  0.91852  1.0000
  C   C659      1.0  0.27769  0.59529  0.90552  1.0000
  C   C660      1.0  0.25886  0.60320  0.91137  1.0000
  H   H646      1.0  0.25362  0.58391  0.95757  1.0000
  H   H647      1.0  0.28703  0.57053  0.94743  1.0000
  H   H648      1.0  0.28431  0.59841  0.89097  1.0000
  H   H649      1.0  0.25104  0.61239  0.90130  1.0000
  C   C661      1.0  0.30544  0.57963  0.76486  1.0000
  C   C662      1.0  0.24897  0.50606  0.75805  1.0000
  C   C663      1.0  0.01059  0.56314  0.87377  1.0000
  H   H650      1.0  0.10108  0.61878  0.79315  1.0000
  C   C664      1.0  0.29920  0.50874  0.83995  1.0000
  C   C665      1.0  0.14410  0.61664  0.82533  1.0000
  C   C666      1.0  0.14760  0.63453  0.81774  1.0000
  C   C667      1.0  0.16190  0.63747  0.80211  1.0000
  C   C668      1.0  0.17302  0.62250  0.79414  1.0000
  C   C669      1.0  0.16977  0.60453  0.80191  1.0000
  C   C670      1.0  0.15518  0.60166  0.81731  1.0000
  H   H651      1.0  0.13904  0.64623  0.82374  1.0000
  H   H652      1.0  0.16430  0.65142  0.79610  1.0000
  H   H653      1.0  0.17796  0.59296  0.79561  1.0000
  H   H654      1.0  0.15232  0.58794  0.82252  1.0000
  C   C671      1.0  0.15016  0.54567  0.91567  1.0000
  C   C672      1.0  0.13421  0.55756  0.92319  1.0000
  C   C673      1.0  0.13449  0.56580  0.93775  1.0000
  C   C674      1.0  0.15084  0.56260  0.94449  1.0000
  C   C675      1.0  0.16692  0.55104  0.93669  1.0000
  C   C676      1.0  0.16650  0.54245  0.92242  1.0000
  H   H655      1.0  0.12152  0.56013  0.91812  1.0000
  H   H656      1.0  0.12202  0.57476  0.94376  1.0000
  H   H657      1.0  0.17961  0.54856  0.94173  1.0000
  H   H658      1.0  0.17889  0.53339  0.91650  1.0000
  C   C677      1.0  0.11642  0.52794  0.81207  1.0000
  C   C678      1.0  0.11335  0.53013  0.79411  1.0000
  C   C679      1.0  0.08965  0.51152  0.80653  1.0000
  S   S228      1.0  0.06088  0.55839  0.88589  1.0000
  H   H659      1.0  0.17696  0.60499  0.87039  1.0000
  H   H660      1.0  0.12134  0.53812  0.78235  1.0000
  H   H661      1.0  0.20019  0.60970  0.91485  1.0000
  H   H662      1.0  0.06672  0.52035  0.90742  1.0000
  H   H663      1.0  0.24071  0.54457  0.92580  1.0000
  N   N54       1.0  0.15917  0.60281  0.89731  1.0000
  C   C680      1.0  0.30135  0.61327  0.77527  1.0000
  C   C681      1.0  0.10640  0.51999  0.92075  1.0000
  C   C682      1.0  0.26751  0.53347  0.89898  1.0000
  C   C683      1.0  0.19045  0.60771  0.89109  1.0000
  C   C684      1.0  0.18096  0.52737  0.82111  1.0000
  C   C685      1.0  0.30081  0.52342  0.89001  1.0000
  C   C686      1.0  0.02515  0.56021  0.88321  1.0000
  H   H664      1.0  0.17091  0.57796  0.75703  1.0000
  H   H665      1.0  0.20513  0.52509  0.95839  1.0000
  C   C687      1.0  0.25071  0.50390  0.94849  1.0000
  N   N55       1.0  0.12948  0.60524  0.78774  1.0000
  H   H666      1.0  0.21642  0.53946  0.83199  1.0000
  N   N56       1.0  0.26976  0.53976  0.91357  1.0000
  C   C688      1.0  0.10606  0.51765  0.82726  1.0000
  H   H667      1.0  0.25141  0.56457  0.91992  1.0000
  H   H668      1.0  0.28108  0.52016  0.87555  1.0000
  H   H669      1.0  0.25265  0.52510  0.78183  1.0000
  H   H670      1.0  0.20335  0.60967  0.88132  1.0000
  H   H671      1.0  0.05960  0.57098  0.84628  1.0000
  C   C689      1.0  0.28720  0.53819  0.91652  1.0000
  S   S229      1.0  0.18313  0.59696  0.97695  1.0000
  C   C690      1.0  0.20176  0.52796  0.86805  1.0000
  H   H672      1.0  0.17055  0.60516  0.93704  1.0000
  H   H673      1.0  0.14446  0.60106  0.92561  1.0000
  C   C691      1.0  0.02237  0.50656  0.83119  1.0000
  H   H674      1.0  0.20569  0.51652  0.92871  1.0000
  H   H675      1.0  0.28904  0.54351  0.92784  1.0000
  H   H676      1.0  0.25370  0.53486  0.89651  1.0000
  S   S230      1.0  0.24001  0.60234  0.75214  1.0000
  H   H677      1.0  0.17137  0.51653  0.86833  1.0000
  C   C692      1.0  0.31371  0.59740  0.78215  1.0000
  C   C693      1.0  0.15732  0.60293  0.91576  1.0000
  H   H678      1.0  0.03245  0.50590  0.81818  1.0000
  Fe  Fe115     1.0  0.20960  0.60229  0.76345  1.0000
  H   H679      1.0  0.26412  0.49274  0.92382  1.0000
  H   H680      1.0  0.19019  0.53126  0.87991  1.0000
  C   C694      1.0  0.21794  0.51787  0.95094  1.0000
  C   C695      1.0  0.01368  0.56872  0.85437  1.0000
  C   C696      1.0  0.03135  0.57185  0.84455  1.0000
  H   H681      1.0  0.13721  0.50407  0.93243  1.0000
  C   C697      1.0  0.15920  0.58570  0.76549  1.0000
  H   H682      1.0  0.14738  0.50374  0.78700  1.0000
  C   C698      1.0  0.14131  0.61466  0.77405  1.0000
  S   S231      1.0  0.19627  0.54116  0.76482  1.0000
  C   C699      1.0  0.19948  0.49628  0.74343  1.0000
  H   H683      1.0  0.17552  0.52736  0.80914  1.0000
  C   C700      1.0  0.25353  0.54932  0.92537  1.0000
  C   C701      1.0  0.14401  0.59938  0.89067  1.0000
  H   H684      1.0  0.14734  0.58487  0.88834  1.0000
  C   C702      1.0  0.21829  0.51312  0.93411  1.0000
  H   H685      1.0  0.16791  0.53008  0.97616  1.0000
  C   C703      1.0  0.17177  0.52086  0.83913  1.0000
  S   S232      1.0  0.26616  0.55772  0.78485  1.0000
  Fe  Fe116     1.0  0.31980  0.57698  0.88036  1.0000
  H   H686      1.0  0.25543  0.54646  0.94001  1.0000
  C   C704      1.0  0.19464  0.50929  0.75511  1.0000
  C   C705      1.0  0.11363  0.61557  0.79927  1.0000
  H   H687      1.0  0.11663  0.62876  0.80061  1.0000
  H   H688      1.0  0.13958  0.62964  0.77218  1.0000
  H   H689      1.0  0.30485  0.53404  0.84368  1.0000
  Fe  Fe117     1.0  0.30993  0.59277  0.84282  1.0000
  H   H690      1.0  0.12258  0.57878  0.80106  1.0000
  H   H691      1.0  0.03386  0.57629  0.82955  1.0000
  N   N57       1.0  0.19446  0.52820  0.85178  1.0000
  C   C706      1.0  0.20380  0.53429  0.83413  1.0000
  C   C707      1.0  0.17873  0.52142  0.85437  1.0000
  H   H692      1.0  0.14187  0.60917  0.87736  1.0000
  N   N58       1.0  0.02326  0.51749  0.84273  1.0000
  C   C708      1.0  0.18869  0.60776  0.90990  1.0000
  C   C709      1.0  0.08001  0.51498  0.91171  1.0000
  H   H693      1.0  0.28467  0.59411  0.74842  1.0000
  H   H694      1.0  0.29939  0.62614  0.78005  1.0000
  H   H695      1.0  0.21061  0.53843  0.86499  1.0000
  N   N59       1.0  0.26373  0.50156  0.76873  1.0000
  H   H696      1.0  0.28087  0.62420  0.75795  1.0000
  H   H697      1.0  0.10851  0.51581  0.84112  1.0000
  H   H698      1.0  0.15916  0.51562  0.84138  1.0000
  H   H699      1.0  0.09725  0.52388  0.77752  1.0000
  H   H700      1.0  0.25317  0.51499  0.74428  1.0000
  C   C710      1.0  0.29232  0.49360  0.78818  1.0000
  C   C711      1.0  0.14696  0.57624  0.77931  1.0000
  H   H701      1.0  0.04058  0.53207  0.84951  1.0000
  H   H702      1.0  0.05092  0.52108  0.83007  1.0000
  C   C712      1.0  0.29302  0.59526  0.75764  1.0000
  H   H703      1.0  0.20305  0.49344  0.98525  1.0000
  C   C713      1.0  0.28296  0.52506  0.88710  1.0000
  C   C714      1.0  0.99666  0.50789  0.86445  1.0000
  H   H704      1.0  0.21013  0.51391  0.87256  1.0000
  S   S233      1.0  0.22333  0.57103  0.98589  1.0000
  C   C715      1.0  0.29090  0.61214  0.76298  1.0000
  H   H705      1.0  0.32134  0.59831  0.79213  1.0000
  C   C716      1.0  0.16954  0.51475  0.98107  1.0000
  N   N60       1.0  0.31538  0.58078  0.77718  1.0000
  H   H706      1.0  0.17852  0.50781  0.96962  1.0000
  H   H707      1.0  0.31299  0.51742  0.88058  1.0000
  S   S234      1.0  0.99620  0.57057  0.84195  1.0000
  H   H708      1.0  0.18509  0.50688  0.76834  1.0000
  C   C717      1.0  0.30296  0.53008  0.90478  1.0000
  H   H709      1.0  0.24602  0.49324  0.75573  1.0000
  H   H710      1.0  0.16610  0.61257  0.75246  1.0000
  H   H711      1.0  0.31677  0.52944  0.90687  1.0000
  C   C718      1.0  0.99587  0.49640  0.85299  1.0000
  C   C719      1.0  0.20220  0.52534  0.74974  1.0000
  H   H712      1.0  0.14469  0.49334  0.82105  1.0000
  H   H713      1.0  0.99702  0.56098  0.88155  1.0000
  S   S235      1.0  0.20533  0.59250  0.73947  1.0000
  H   H714      1.0  0.30651  0.56644  0.76109  1.0000
  S   S236      1.0  0.24328  0.56053  0.74424  1.0000
  C   C720      1.0  0.27779  0.50891  0.79043  1.0000
  H   H715      1.0  0.08510  0.50099  0.83621  1.0000
  H   H716      1.0  0.23570  0.51358  0.76551  1.0000
  S   S237      1.0  0.07330  0.50079  0.80308  1.0000
  H   H717      1.0  0.26325  0.50035  0.95407  1.0000
  H   H718      1.0  0.15574  0.51097  0.98384  1.0000
  C   C721      1.0  0.25121  0.49972  0.93132  1.0000
  N   N61       1.0  0.11452  0.50153  0.92176  1.0000
  C   C722      1.0  0.08843  0.49620  0.91272  1.0000
  C   C723      1.0  0.00871  0.49580  0.83617  1.0000
  S   S238      1.0  0.23531  0.49892  0.90289  1.0000
  C   C724      1.0  0.13329  0.49456  0.92567  1.0000
  H   H719      1.0  0.32619  0.60621  0.91149  1.0000
  H   H720      1.0  0.13708  0.49181  0.85528  1.0000
  S   S239      1.0  0.18286  0.49294  0.91547  1.0000
  H   H721      1.0  0.14351  0.49341  0.91236  1.0000
  H   H722      1.0  0.15648  0.49357  0.75642  1.0000
  Fe  Fe118     1.0  0.48594  0.20461  0.08689  1.0000
  S   S240      1.0  0.45980  0.22419  0.08032  1.0000
  S   S241      1.0  0.51189  0.21574  0.08237  1.0000
  Fe  Fe119     1.0  0.46799  0.17096  0.09832  1.0000
  S   S242      1.0  0.44005  0.18786  0.09365  1.0000
  S   S243      1.0  0.47665  0.13992  0.10658  1.0000
  Fe  Fe120     1.0  0.45653  0.20202  0.06709  1.0000
  S   S244      1.0  0.44693  0.20960  0.03956  1.0000
  Fe  Fe121     1.0  0.44602  0.20845  0.10728  1.0000
  S   S245      1.0  0.42653  0.22246  0.13013  1.0000
  S   S246      1.0  0.48412  0.18396  0.07106  1.0000
  S   S247      1.0  0.47240  0.18991  0.11450  1.0000
  C   C725      1.0  0.34843  0.34215  0.17880  1.0000
  C   C726      1.0  0.59721  0.12613  0.16946  1.0000
  C   C727      1.0  0.41258  0.40145  0.19513  1.0000
  C   C728      1.0  0.60139  0.11725  0.18697  1.0000
  H   H723      1.0  0.54513  0.11465  0.19595  1.0000
  Fe  Fe122     1.0  0.59501  0.19504  0.99411  1.0000
  H   H724      1.0  0.61291  0.16588  0.16366  1.0000
  H   H725      1.0  0.58911  0.24291  0.03943  1.0000
  C   C729      1.0  0.63779  0.21861  0.99545  1.0000
  N   N62       1.0  0.39472  0.40337  0.20525  1.0000
  C   C730      1.0  0.35853  0.36646  0.15469  1.0000
  S   S248      1.0  0.38053  0.33401  0.20987  1.0000
  S   S249      1.0  0.61594  0.20182  0.11993  1.0000
  Fe  Fe123     1.0  0.56503  0.22138  0.14216  1.0000
  S   S250      1.0  0.58490  0.24034  0.12750  1.0000
  S   S251      1.0  0.53415  0.22927  0.15199  1.0000
  S   S252      1.0  0.58451  0.20141  0.15938  1.0000
  S   S253      1.0  0.57249  0.20490  0.11970  1.0000
  C   C731      1.0  0.59654  0.21639  0.03095  1.0000
  C   C732      1.0  0.60098  0.14385  0.16121  1.0000
  H   H726      1.0  0.59068  0.04054  0.20093  1.0000
  C   C733      1.0  0.60975  0.12590  0.19604  1.0000
  H   H727      1.0  0.59703  0.24974  0.17148  1.0000
  H   H728      1.0  0.51267  0.21533  0.04388  1.0000
  Fe  Fe124     1.0  0.56951  0.32194  0.19513  1.0000
  S   S254      1.0  0.55437  0.31857  0.17446  1.0000
  S   S255      1.0  0.57386  0.29648  0.21733  1.0000
  S   S256      1.0  0.42349  0.07265  0.22369  1.0000
  C   C734      1.0  0.47675  0.25107  0.03454  1.0000
  S   S257      1.0  0.46677  0.34631  0.19204  1.0000
  H   H729      1.0  0.65634  0.35631  0.17936  1.0000
  Fe  Fe125     1.0  0.45016  0.32668  0.18942  1.0000
  C   C735      1.0  0.37182  0.35779  0.20164  1.0000
  S   S258      1.0  0.42458  0.09399  0.17043  1.0000
  Fe  Fe126     1.0  0.43789  0.30419  0.16798  1.0000
  S   S259      1.0  0.44366  0.29708  0.13960  1.0000
  S   S260      1.0  0.42785  0.33363  0.17268  1.0000
  C   C736      1.0  0.34628  0.38491  0.20309  1.0000
  C   C737      1.0  0.35381  0.36612  0.20976  1.0000
  C   C738      1.0  0.49714  0.10051  0.21471  1.0000
  C   C739      1.0  0.61974  0.06825  0.22697  1.0000
  C   C740      1.0  0.49115  0.33904  0.18650  1.0000
  C   C741      1.0  0.49948  0.32619  0.17485  1.0000
  C   C742      1.0  0.51894  0.32030  0.17090  1.0000
  C   C743      1.0  0.53012  0.32699  0.17883  1.0000
  C   C744      1.0  0.52181  0.33992  0.19038  1.0000
  C   C745      1.0  0.50237  0.34607  0.19406  1.0000
  H   H730      1.0  0.49098  0.32109  0.16855  1.0000
  H   H731      1.0  0.52531  0.31047  0.16176  1.0000
  H   H732      1.0  0.53034  0.34534  0.19636  1.0000
  C   C746      1.0  0.58462  0.03455  0.21502  1.0000
  H   H733      1.0  0.59671  0.27031  0.19277  1.0000
  C   C747      1.0  0.65486  0.34192  0.20777  1.0000
  H   H734      1.0  0.46668  0.23023  0.99496  1.0000
  C   C748      1.0  0.60356  0.19730  0.03584  1.0000
  C   C749      1.0  0.60586  0.20166  0.06595  1.0000
  C   C750      1.0  0.60849  0.19000  0.05327  1.0000
  C   C751      1.0  0.42385  0.17123  0.05548  1.0000
  H   H735      1.0  0.43695  0.21519  0.19443  1.0000
  Fe  Fe127     1.0  0.60533  0.21873  0.14253  1.0000
  S   S261      1.0  0.56244  0.34207  0.21447  1.0000
  C   C752      1.0  0.59896  0.22078  0.06091  1.0000
  H   H736      1.0  0.46815  0.26330  0.03966  1.0000
  H   H737      1.0  0.54836  0.00372  0.20772  1.0000
  C   C753      1.0  0.59444  0.22812  0.04335  1.0000
  S   S262      1.0  0.41896  0.29162  0.19325  1.0000
  Fe  Fe128     1.0  0.41047  0.32078  0.19910  1.0000
  Fe  Fe129     1.0  0.59341  0.18625  0.13567  1.0000
  H   H738      1.0  0.53946  0.21052  0.19165  1.0000
  C   C754      1.0  0.43065  0.24370  0.13227  1.0000
  C   C755      1.0  0.42120  0.25145  0.14799  1.0000
  C   C756      1.0  0.42519  0.26770  0.15056  1.0000
  C   C757      1.0  0.43828  0.27659  0.13714  1.0000
  C   C758      1.0  0.44744  0.26906  0.12129  1.0000
  C   C759      1.0  0.44381  0.25258  0.11897  1.0000
  H   H739      1.0  0.41100  0.24468  0.15835  1.0000
  H   H740      1.0  0.41793  0.27346  0.16275  1.0000
  H   H741      1.0  0.45755  0.27588  0.11084  1.0000
  H   H742      1.0  0.45125  0.24679  0.10689  1.0000
  C   C760      1.0  0.43889  0.10668  0.15244  1.0000
  C   C761      1.0  0.43098  0.12231  0.14040  1.0000
  C   C762      1.0  0.44241  0.13301  0.12656  1.0000
  C   C763      1.0  0.46179  0.12768  0.12439  1.0000
  C   C764      1.0  0.46965  0.11190  0.13622  1.0000
  C   C765      1.0  0.45823  0.10162  0.15043  1.0000
  H   H743      1.0  0.41600  0.12628  0.14198  1.0000
  H   H744      1.0  0.43626  0.14515  0.11743  1.0000
  H   H745      1.0  0.48462  0.10765  0.13452  1.0000
  H   H746      1.0  0.46444  0.08956  0.15964  1.0000
  C   C766      1.0  0.46944  0.17487  0.99374  1.0000
  H   H747      1.0  0.38203  0.42680  0.18724  1.0000
  C   C767      1.0  0.44738  0.20012  0.00679  1.0000
  C   C768      1.0  0.45594  0.19597  0.02217  1.0000
  C   C769      1.0  0.47150  0.18141  0.02315  1.0000
  C   C770      1.0  0.47822  0.17092  0.00896  1.0000
  Fe  Fe130     1.0  0.56926  0.31641  0.23612  1.0000
  H   H748      1.0  0.43538  0.21141  0.00587  1.0000
  H   H749      1.0  0.47831  0.17814  0.03485  1.0000
  H   H750      1.0  0.49011  0.15951  0.00993  1.0000
  C   C771      1.0  0.51595  0.22152  0.10195  1.0000
  C   C772      1.0  0.52956  0.23188  0.09939  1.0000
  C   C773      1.0  0.53428  0.23527  0.11481  1.0000
  C   C774      1.0  0.52559  0.22811  0.13290  1.0000
  C   C775      1.0  0.51160  0.21820  0.13552  1.0000
  C   C776      1.0  0.50674  0.21498  0.12005  1.0000
  H   H751      1.0  0.53683  0.23696  0.08547  1.0000
  H   H752      1.0  0.54519  0.24289  0.11267  1.0000
  H   H753      1.0  0.50513  0.21230  0.14948  1.0000
  H   H754      1.0  0.49644  0.20679  0.12223  1.0000
  H   H755      1.0  0.57324  0.28103  0.14987  1.0000
  H   H756      1.0  0.49650  0.26882  0.20930  1.0000
  H   H757      1.0  0.62074  0.14996  0.19439  1.0000
  Fe  Fe131     1.0  0.59391  0.22212  0.10621  1.0000
  S   S263      1.0  0.59973  0.32340  0.18695  1.0000
  H   H758      1.0  0.57943  0.28707  0.12472  1.0000
  H   H759      1.0  0.57357  0.30485  0.13828  1.0000
  N   N63       1.0  0.47054  0.24611  0.16232  1.0000
  C   C777      1.0  0.46573  0.23325  0.15553  1.0000
  C   C778      1.0  0.46399  0.24766  0.18057  1.0000
  C   C779      1.0  0.45371  0.22184  0.16698  1.0000
  C   C780      1.0  0.45186  0.23655  0.19241  1.0000
  C   C781      1.0  0.44662  0.22364  0.18550  1.0000
  C   C782      1.0  0.48304  0.25814  0.15022  1.0000
  H   H760      1.0  0.47076  0.23208  0.14103  1.0000
  H   H761      1.0  0.46802  0.25762  0.18605  1.0000
  H   H762      1.0  0.44941  0.21217  0.16127  1.0000
  S   S264      1.0  0.43206  0.31590  0.21629  1.0000
  H   H763      1.0  0.49059  0.12179  0.23099  1.0000
  H   H764      1.0  0.47693  0.27294  0.15114  1.0000
  H   H765      1.0  0.49675  0.25408  0.15441  1.0000
  H   H766      1.0  0.48533  0.25727  0.13532  1.0000
  C   C783      1.0  0.33101  0.35369  0.18336  1.0000
  C   C784      1.0  0.40114  0.37136  0.22095  1.0000
  C   C785      1.0  0.50084  0.11507  0.22060  1.0000
  C   C786      1.0  0.54787  0.03980  0.19513  1.0000
  H   H767      1.0  0.53781  0.04222  0.18595  1.0000
  N   N64       1.0  0.50505  0.29113  0.21500  1.0000
  H   H768      1.0  0.60408  0.24865  0.99260  1.0000
  H   H769      1.0  0.33236  0.39122  0.20937  1.0000
  H   H770      1.0  0.55086  0.05346  0.19500  1.0000
  C   C787      1.0  0.38193  0.42148  0.20236  1.0000
  H   H771      1.0  0.60224  0.25647  0.23762  1.0000
  H   H772      1.0  0.43933  0.38277  0.18957  1.0000
  H   H773      1.0  0.52081  0.26902  0.20094  1.0000
  H   H774      1.0  0.33886  0.39277  0.15147  1.0000
  C   C788      1.0  0.54114  0.01204  0.21817  1.0000
  N   N65       1.0  0.56473  0.18107  0.07122  1.0000
  C   C789      1.0  0.56002  0.18235  0.08960  1.0000
  C   C790      1.0  0.57683  0.16573  0.06569  1.0000
  C   C791      1.0  0.56808  0.16837  0.10289  1.0000
  C   C792      1.0  0.58539  0.15165  0.07857  1.0000
  C   C793      1.0  0.58108  0.15310  0.09728  1.0000
  C   C794      1.0  0.55614  0.19595  0.05757  1.0000
  H   H775      1.0  0.55015  0.19435  0.09403  1.0000
  H   H776      1.0  0.58042  0.16459  0.05114  1.0000
  H   H777      1.0  0.56458  0.16950  0.11743  1.0000
  H   H778      1.0  0.59551  0.13986  0.07401  1.0000
  H   H779      1.0  0.58784  0.14252  0.10744  1.0000
  H   H780      1.0  0.54185  0.19431  0.05823  1.0000
  H   H781      1.0  0.55535  0.20982  0.06058  1.0000
  H   H782      1.0  0.56436  0.19581  0.04316  1.0000
  H   H783      1.0  0.47785  0.13902  0.15625  1.0000
  C   C795      1.0  0.64181  0.24722  0.18874  1.0000
  C   C796      1.0  0.61809  0.24995  0.99348  1.0000
  N   N66       1.0  0.43879  0.14187  0.18995  1.0000
  C   C797      1.0  0.66018  0.34046  0.22451  1.0000
  H   H784      1.0  0.37469  0.39000  0.22590  1.0000
  H   H785      1.0  0.49113  0.14187  0.18219  1.0000
  H   H786      1.0  0.49381  0.24381  0.05519  1.0000
  C   C798      1.0  0.41925  0.14047  0.19325  1.0000
  C   C799      1.0  0.57689  0.04592  0.22828  1.0000
  C   C800      1.0  0.38007  0.33630  0.16004  1.0000
  S   S265      1.0  0.59633  0.23588  0.07600  1.0000
  H   H787      1.0  0.39637  0.35951  0.23069  1.0000
  S   S266      1.0  0.59482  0.00145  0.20327  1.0000
  C   C801      1.0  0.44996  0.14074  0.17281  1.0000
  N   N67       1.0  0.60020  0.28694  0.13935  1.0000
  C   C802      1.0  0.60496  0.29614  0.15030  1.0000
  C   C803      1.0  0.61330  0.27389  0.13081  1.0000
  C   C804      1.0  0.62332  0.29249  0.15278  1.0000
  C   C805      1.0  0.63175  0.26990  0.13300  1.0000
  C   C806      1.0  0.63673  0.27921  0.14414  1.0000
  C   C807      1.0  0.58067  0.29010  0.13794  1.0000
  H   H788      1.0  0.59445  0.30608  0.15748  1.0000
  H   H789      1.0  0.60951  0.26612  0.12260  1.0000
  S   S267      1.0  0.59367  0.15571  0.14041  1.0000
  C   C808      1.0  0.35679  0.39544  0.18827  1.0000
  C   C809      1.0  0.61419  0.14328  0.18745  1.0000
  C   C810      1.0  0.60965  0.15234  0.17012  1.0000
  H   H790      1.0  0.59065  0.11946  0.16253  1.0000
  H   H791      1.0  0.47014  0.14607  0.21264  1.0000
  C   C811      1.0  0.38894  0.38864  0.21813  1.0000
  S   S268      1.0  0.59952  0.31713  0.23167  1.0000
  H   H792      1.0  0.59815  0.10372  0.19342  1.0000
  H   H793      1.0  0.63097  0.00816  0.21758  1.0000
  C   C812      1.0  0.38233  0.36840  0.18691  1.0000
  H   H794      1.0  0.37974  0.32863  0.14942  1.0000
  H   H795      1.0  0.34559  0.35798  0.22117  1.0000
  C   C813      1.0  0.47351  0.24607  0.01922  1.0000
  C   C814      1.0  0.49109  0.24010  0.04330  1.0000
  H   H796      1.0  0.46236  0.25466  0.01244  1.0000
  S   S269      1.0  0.52337  0.13715  0.22248  1.0000
  S   S270      1.0  0.61346  0.11564  0.21862  1.0000
  C   C815      1.0  0.34133  0.37843  0.15897  1.0000
  C   C816      1.0  0.57676  0.00781  0.23819  1.0000
  H   H797      1.0  0.49603  0.35614  0.20294  1.0000
  S   S271      1.0  0.45734  0.26314  0.22507  1.0000
  C   C817      1.0  0.60929  0.26057  0.18845  1.0000
  C   C818      1.0  0.51914  0.30771  0.22908  1.0000
  C   C819      1.0  0.50167  0.22408  0.03699  1.0000
  H   H798      1.0  0.63212  0.21560  0.01029  1.0000
  H   H799      1.0  0.64188  0.25897  0.12685  1.0000
  C   C820      1.0  0.51807  0.12027  0.21374  1.0000
  H   H800      1.0  0.60955  0.19594  0.07945  1.0000
  S   S272      1.0  0.46199  0.29872  0.18202  1.0000
  C   C821      1.0  0.48571  0.31287  0.23382  1.0000
  H   H801      1.0  0.46389  0.00625  0.17557  1.0000
  C   C822      1.0  0.46894  0.14074  0.16969  1.0000
  S   S273      1.0  0.56742  0.09856  0.22691  1.0000
  C   C823      1.0  0.50154  0.31668  0.23707  1.0000
  H   H802      1.0  0.53843  0.08910  0.18526  1.0000
  Fe  Fe132     1.0  0.58644  0.11029  0.23697  1.0000
  C   C824      1.0  0.58462  0.01545  0.21999  1.0000
  H   H803      1.0  0.61424  0.17530  0.05706  1.0000
  H   H804      1.0  0.42898  0.35603  0.21267  1.0000
  S   S274      1.0  0.34822  0.41906  0.17958  1.0000
  C   C825      1.0  0.41936  0.36931  0.21067  1.0000
  C   C826      1.0  0.37484  0.38715  0.18027  1.0000
  H   H805      1.0  0.48638  0.21135  0.99562  1.0000
  H   H806      1.0  0.50392  0.28592  0.18914  1.0000
  Fe  Fe133     1.0  0.54528  0.12088  0.23851  1.0000
  S   S275      1.0  0.60602  0.18232  0.02054  1.0000
  Fe  Fe134     1.0  0.59341  0.34130  0.20837  1.0000
  S   S276      1.0  0.46187  0.05414  0.19641  1.0000
  H   H807      1.0  0.56245  0.19667  0.21234  1.0000
  H   H808      1.0  0.44434  0.13923  0.16161  1.0000
  C   C827      1.0  0.42736  0.99664  0.20992  1.0000
  H   H809      1.0  0.39621  0.36223  0.18060  1.0000
  H   H810      1.0  0.42898  0.02435  0.21142  1.0000
  S   S277      1.0  0.50634  0.07245  0.19513  1.0000
  C   C828      1.0  0.43239  0.00961  0.21722  1.0000
  H   H811      1.0  0.59300  0.22222  0.01753  1.0000
  S   S278      1.0  0.62676  0.27479  0.20833  1.0000
  H   H812      1.0  0.65081  0.27565  0.14661  1.0000
  C   C829      1.0  0.60944  0.24893  0.17644  1.0000
  C   C830      1.0  0.46045  0.13554  0.03286  1.0000
  C   C831      1.0  0.63707  0.39390  0.21663  1.0000
  C   C832      1.0  0.56772  0.16941  0.20595  1.0000
  S   S279      1.0  0.60768  0.36603  0.19908  1.0000
  Fe  Fe135     1.0  0.60334  0.29945  0.21070  1.0000
  H   H813      1.0  0.38306  0.39528  0.16884  1.0000
  H   H814      1.0  0.57797  0.16324  0.21466  1.0000
  C   C833      1.0  0.52792  0.09636  0.19507  1.0000
  H   H815      1.0  0.43736  0.15655  0.02491  1.0000
  H   H816      1.0  0.47328  0.12717  0.07461  1.0000
  H   H817      1.0  0.47537  0.29708  0.22020  1.0000
  H   H818      1.0  0.48396  0.09626  0.22046  1.0000
  H   H819      1.0  0.41059  0.15431  0.18878  1.0000
  H   H820      1.0  0.65442  0.24650  0.19333  1.0000
  C   C834      1.0  0.64204  0.23591  0.17662  1.0000
  H   H821      1.0  0.64518  0.40455  0.21032  1.0000
  H   H822      1.0  0.42615  0.18032  0.06380  1.0000
  C   C835      1.0  0.47034  0.99388  0.18432  1.0000
  C   C836      1.0  0.54613  0.19590  0.19308  1.0000
  Fe  Fe136     1.0  0.43910  0.07977  0.19425  1.0000
  H   H823      1.0  0.42114  0.18049  0.04210  1.0000
  H   H824      1.0  0.39142  0.34427  0.15455  1.0000
  C   C837      1.0  0.46544  0.13349  0.06362  1.0000
  H   H825      1.0  0.48285  0.11624  0.04450  1.0000
  C   C838      1.0  0.47634  0.14245  0.18416  1.0000
  H   H826      1.0  0.57707  0.06057  0.22439  1.0000
  H   H827      1.0  0.44596  0.15259  0.07944  1.0000
  S   S280      1.0  0.62828  0.22391  0.15317  1.0000
  H   H828      1.0  0.62906  0.39422  0.19114  1.0000
  C   C839      1.0  0.62600  0.23682  0.17026  1.0000
  C   C840      1.0  0.50670  0.27806  0.20299  1.0000
  C   C841      1.0  0.47074  0.12732  0.04678  1.0000
  Fe  Fe137     1.0  0.44237  0.28826  0.20777  1.0000
  C   C842      1.0  0.44996  0.14797  0.06625  1.0000
  C   C843      1.0  0.53353  0.00318  0.23604  1.0000
  H   H829      1.0  0.46462  0.13114  0.01953  1.0000
  H   H830      1.0  0.43680  0.14577  0.21742  1.0000
  H   H831      1.0  0.53268  0.19104  0.17349  1.0000
  N   N68       1.0  0.36198  0.34867  0.16475  1.0000
  C   C844      1.0  0.61741  0.37412  0.21375  1.0000
  C   C845      1.0  0.56324  0.15863  0.19584  1.0000
  C   C846      1.0  0.44503  0.14998  0.03597  1.0000
  C   C847      1.0  0.62562  0.25984  0.19440  1.0000
  N   N69       1.0  0.61967  0.04836  0.23365  1.0000
  H   H832      1.0  0.36926  0.37167  0.14358  1.0000
  C   C848      1.0  0.42516  0.38439  0.19767  1.0000
  H   H833      1.0  0.55802  0.14258  0.17157  1.0000
  N   N70       1.0  0.44016  0.15621  0.05239  1.0000
  C   C849      1.0  0.62786  0.38808  0.20581  1.0000
  H   H834      1.0  0.41139  0.16530  0.06291  1.0000
  H   H835      1.0  0.53000  0.05641  0.22392  1.0000
  H   H836      1.0  0.54598  0.16319  0.15882  1.0000
  H   H837      1.0  0.38376  0.32603  0.17258  1.0000
  C   C850      1.0  0.62673  0.03639  0.22149  1.0000
  C   C851      1.0  0.51068  0.09112  0.20197  1.0000
  H   H838      1.0  0.53441  0.28879  0.21100  1.0000
  C   C852      1.0  0.55903  0.18815  0.20461  1.0000
  Fe  Fe138     1.0  0.47624  0.07142  0.20592  1.0000
  H   H839      1.0  0.53353  0.15073  0.18019  1.0000
  C   C853      1.0  0.48159  0.22643  0.99591  1.0000
  S   S281      1.0  0.45493  0.09738  0.20097  1.0000
  Fe  Fe139     1.0  0.44094  0.08892  0.23064  1.0000
  H   H840      1.0  0.44649  0.23807  0.20681  1.0000
  N   N71       1.0  0.55111  0.16650  0.18403  1.0000
  H   H841      1.0  0.63199  0.07066  0.21566  1.0000
  C   C854      1.0  0.54687  0.15518  0.17313  1.0000
  H   H842      1.0  0.56966  0.14397  0.19736  1.0000
  C   C855      1.0  0.54239  0.18481  0.18276  1.0000
  N   N72       1.0  0.48415  0.23049  0.01295  1.0000
  S   S282      1.0  0.57400  0.22186  0.99148  1.0000
  C   C856      1.0  0.47843  0.99551  0.19838  1.0000
  C   C857      1.0  0.53165  0.11088  0.20102  1.0000
  C   C858      1.0  0.52066  0.29509  0.21778  1.0000
  H   H843      1.0  0.65485  0.22658  0.17189  1.0000
  Fe  Fe140     1.0  0.44778  0.04849  0.22659  1.0000
  N   N73       1.0  0.54002  0.03088  0.21404  1.0000
  C   C859      1.0  0.49794  0.21941  0.02176  1.0000
  H   H844      1.0  0.50623  0.20693  0.01696  1.0000
  C   C860      1.0  0.45414  0.18969  0.99259  1.0000
  H   H845      1.0  0.63257  0.04150  0.20701  1.0000
  H   H846      1.0  0.56121  0.03099  0.18937  1.0000
  H   H847      1.0  0.42006  0.00145  0.19848  1.0000
  C   C861      1.0  0.44573  0.14446  0.20393  1.0000
  H   H848      1.0  0.41390  0.13503  0.20825  1.0000
  C   C862      1.0  0.46460  0.14467  0.20129  1.0000
  C   C863      1.0  0.44151  0.00344  0.23222  1.0000
  C   C864      1.0  0.48773  0.29992  0.22274  1.0000
  H   H849      1.0  0.41773  0.13040  0.18549  1.0000
  S   S283      1.0  0.46391  0.06421  0.23631  1.0000
  H   H850      1.0  0.64517  0.33383  0.20714  1.0000
  H   H851      1.0  0.47822  0.00930  0.20032  1.0000
  C   C865      1.0  0.63557  0.38610  0.23563  1.0000
  H   H852      1.0  0.65447  0.19087  0.99570  1.0000
  H   H853      1.0  0.36728  0.42051  0.20916  1.0000
  H   H854      1.0  0.60692  0.07548  0.22157  1.0000
  H   H855      1.0  0.65474  0.33115  0.23698  1.0000
  H   H856      1.0  0.62697  0.29935  0.16193  1.0000
  C   C866      1.0  0.53107  0.04144  0.22722  1.0000
  H   H857      1.0  0.41716  0.41312  0.18494  1.0000
  H   H858      1.0  0.38602  0.43169  0.20802  1.0000
  C   C867      1.0  0.61576  0.36641  0.23278  1.0000
  H   H859      1.0  0.41728  0.26604  0.23646  1.0000
  H   H860      1.0  0.53151  0.31090  0.23124  1.0000
  H   H861      1.0  0.61855  0.24846  0.00836  1.0000
  C   C868      1.0  0.62599  0.01750  0.22740  1.0000
  H   H862      1.0  0.35124  0.32812  0.18694  1.0000
  H   H863      1.0  0.48721  0.99499  0.22990  1.0000
  H   H864      1.0  0.62038  0.07488  0.23830  1.0000
  C   C869      1.0  0.57804  0.15945  0.31406  1.0000
  H   H865      1.0  0.61137  0.14849  0.27665  1.0000
  H   H866      1.0  0.51718  0.15732  0.25768  1.0000
  H   H867      1.0  0.61660  0.99645  0.25040  1.0000
  C   C870      1.0  0.56926  0.03818  0.24656  1.0000
  C   C871      1.0  0.56957  0.13789  0.30026  1.0000
  H   H868      1.0  0.56324  0.01310  0.26560  1.0000
  H   H869      1.0  0.62332  0.36654  0.25842  1.0000
  C   C872      1.0  0.61660  0.13320  0.33727  1.0000
  H   H870      1.0  0.63946  0.15651  0.32720  1.0000
  H   H871      1.0  0.40655  0.22076  0.35861  1.0000
  H   H872      1.0  0.51568  0.12322  0.32665  1.0000
  S   S284      1.0  0.53850  0.10312  0.26678  1.0000
  S   S285      1.0  0.58380  0.09157  0.26518  1.0000
  C   C873      1.0  0.56560  0.14864  0.31392  1.0000
  Fe  Fe141     1.0  0.56682  0.20220  0.35285  1.0000
  S   S286      1.0  0.53621  0.20300  0.36459  1.0000
  S   S287      1.0  0.56461  0.13415  0.24620  1.0000
  H   H873      1.0  0.58917  0.12966  0.27616  1.0000
  H   H874      1.0  0.57623  0.31505  0.28253  1.0000
  C   C874      1.0  0.49636  0.14055  0.26908  1.0000
  H   H875      1.0  0.39728  0.00011  0.24435  1.0000
  H   H876      1.0  0.59513  0.29423  0.30489  1.0000
  C   C875      1.0  0.60082  0.12530  0.34426  1.0000
  C   C876      1.0  0.63153  0.20631  0.39001  1.0000
  H   H877      1.0  0.62088  0.20797  0.29048  1.0000
  S   S288      1.0  0.55407  0.12416  0.30049  1.0000
  Fe  Fe142     1.0  0.43970  0.15274  0.32229  1.0000
  S   S289      1.0  0.45241  0.15727  0.34413  1.0000
  S   S290      1.0  0.44311  0.12308  0.31944  1.0000
  Fe  Fe143     1.0  0.42541  0.19412  0.30979  1.0000
  S   S291      1.0  0.43694  0.20201  0.33055  1.0000
  S   S292      1.0  0.40826  0.21640  0.29164  1.0000
  Fe  Fe144     1.0  0.46233  0.18062  0.32221  1.0000
  S   S293      1.0  0.49219  0.18409  0.31304  1.0000
  Fe  Fe145     1.0  0.42573  0.17803  0.35052  1.0000
  S   S294      1.0  0.41101  0.18041  0.38019  1.0000
  S   S295      1.0  0.45156  0.17447  0.29979  1.0000
  S   S296      1.0  0.41229  0.17169  0.33031  1.0000
  Fe  Fe146     1.0  0.59989  0.18812  0.32442  1.0000
  H   H878      1.0  0.57608  0.24752  0.29935  1.0000
  C   C877      1.0  0.52334  0.03307  0.24523  1.0000
  H   H879      1.0  0.59590  0.12597  0.39004  1.0000
  C   C878      1.0  0.38772  0.17770  0.38850  1.0000
  C   C879      1.0  0.37808  0.17315  0.37736  1.0000
  C   C880      1.0  0.35970  0.17070  0.38441  1.0000
  C   C881      1.0  0.35072  0.17282  0.40263  1.0000
  C   C882      1.0  0.36027  0.17749  0.41380  1.0000
  C   C883      1.0  0.37874  0.17992  0.40673  1.0000
  H   H880      1.0  0.38478  0.17136  0.36337  1.0000
  H   H881      1.0  0.35240  0.16705  0.37570  1.0000
  H   H882      1.0  0.35350  0.17904  0.42791  1.0000
  H   H883      1.0  0.38614  0.18338  0.41547  1.0000
  C   C884      1.0  0.64054  0.14756  0.34116  1.0000
  S   S297      1.0  0.42827  0.11430  0.24363  1.0000
  C   C885      1.0  0.41324  0.24419  0.26077  1.0000
  C   C886      1.0  0.42185  0.22954  0.27323  1.0000
  C   C887      1.0  0.44124  0.22549  0.27088  1.0000
  C   C888      1.0  0.45199  0.23590  0.25604  1.0000
  C   C889      1.0  0.62466  0.37253  0.24370  1.0000
  H   H884      1.0  0.39824  0.24738  0.26256  1.0000
  H   H885      1.0  0.44800  0.21433  0.28049  1.0000
  C   C890      1.0  0.64012  0.21494  0.39903  1.0000
  Fe  Fe147     1.0  0.60601  0.19181  0.36136  1.0000
  C   C891      1.0  0.56539  0.27395  0.28324  1.0000
  H   H886      1.0  0.49345  0.14096  0.25566  1.0000
  C   C892      1.0  0.60627  0.24588  0.24930  1.0000
  S   S298      1.0  0.58851  0.17586  0.35395  1.0000
  H   H887      1.0  0.64136  0.15683  0.35014  1.0000
  S   S299      1.0  0.57682  0.21321  0.32255  1.0000
  C   C893      1.0  0.52408  0.19681  0.35075  1.0000
  C   C894      1.0  0.53312  0.19262  0.33331  1.0000
  C   C895      1.0  0.52316  0.18860  0.32200  1.0000
  C   C896      1.0  0.50409  0.18868  0.32806  1.0000
  C   C897      1.0  0.49501  0.19265  0.34561  1.0000
  C   C898      1.0  0.50500  0.19678  0.35690  1.0000
  H   H888      1.0  0.54778  0.19254  0.32844  1.0000
  H   H889      1.0  0.53030  0.18545  0.30849  1.0000
  H   H890      1.0  0.48029  0.19273  0.35038  1.0000
  H   H891      1.0  0.49791  0.20003  0.37038  1.0000
  H   H892      1.0  0.46699  0.23262  0.25429  1.0000
  H   H893      1.0  0.39582  0.22154  0.33060  1.0000
  C   C899      1.0  0.43324  0.11635  0.26445  1.0000
  C   C900      1.0  0.44179  0.10100  0.27621  1.0000
  C   C901      1.0  0.44467  0.10312  0.29316  1.0000
  C   C902      1.0  0.43932  0.12063  0.29822  1.0000
  C   C903      1.0  0.43119  0.13603  0.28625  1.0000
  C   C904      1.0  0.42801  0.13385  0.26951  1.0000
  H   H894      1.0  0.44583  0.08746  0.27242  1.0000
  H   H895      1.0  0.45106  0.09117  0.30234  1.0000
  H   H896      1.0  0.42706  0.14959  0.29002  1.0000
  H   H897      1.0  0.42134  0.14576  0.26050  1.0000
  H   H898      1.0  0.47665  0.12338  0.28454  1.0000
  C   C905      1.0  0.57619  0.30029  0.28622  1.0000
  C   C906      1.0  0.56909  0.01915  0.25145  1.0000
  C   C907      1.0  0.61858  0.23691  0.27686  1.0000
  H   H899      1.0  0.34306  0.20689  0.33798  1.0000
  C   C908      1.0  0.60424  0.22767  0.25090  1.0000
  Fe  Fe148     1.0  0.56004  0.11437  0.27358  1.0000
  S   S300      1.0  0.58316  0.21729  0.36302  1.0000
  H   H900      1.0  0.63660  0.22992  0.39765  1.0000
  H   H901      1.0  0.38966  0.24173  0.36287  1.0000
  C   C909      1.0  0.59855  0.14865  0.28699  1.0000
  H   H902      1.0  0.62748  0.27212  0.24774  1.0000
  S   S301      1.0  0.62471  0.17546  0.38150  1.0000
  H   H903      1.0  0.60798  0.19973  0.26730  1.0000
  H   H904      1.0  0.60487  0.05170  0.26106  1.0000
  H   H905      1.0  0.62150  0.21463  0.38173  1.0000
  H   H906      1.0  0.62413  0.24036  0.28717  1.0000
  C   C910      1.0  0.58662  0.26948  0.30394  1.0000
  C   C911      1.0  0.57606  0.26218  0.29591  1.0000
  C   C912      1.0  0.63568  0.18692  0.39205  1.0000
  C   C913      1.0  0.61669  0.21858  0.27890  1.0000
  S   S302      1.0  0.56068  0.05160  0.26388  1.0000
  C   C914      1.0  0.58599  0.13800  0.28670  1.0000
  H   H907      1.0  0.49566  0.14179  0.33183  1.0000
  C   C915      1.0  0.61749  0.13562  0.36771  1.0000
  H   H908      1.0  0.39086  0.22043  0.38046  1.0000
  H   H909      1.0  0.59431  0.12156  0.33485  1.0000
  C   C916      1.0  0.59324  0.12276  0.36333  1.0000
  S   S303      1.0  0.61903  0.20205  0.33168  1.0000
  H   H910      1.0  0.35864  0.21941  0.38346  1.0000
  Fe  Fe149     1.0  0.59485  0.22627  0.33252  1.0000
  H   H911      1.0  0.55709  0.26829  0.27720  1.0000
  H   H912      1.0  0.57488  0.16768  0.32464  1.0000
  H   H913      1.0  0.51798  0.14708  0.32073  1.0000
  H   H914      1.0  0.37340  0.21246  0.31774  1.0000
  C   C917      1.0  0.59459  0.15935  0.30068  1.0000
  S   S304      1.0  0.61079  0.17185  0.30156  1.0000
  Fe  Fe150     1.0  0.56263  0.08181  0.25596  1.0000
  C   C918      1.0  0.58683  0.28852  0.29888  1.0000
  H   H915      1.0  0.62383  0.13973  0.37700  1.0000
  C   C919      1.0  0.50967  0.14976  0.27023  1.0000
  S   S305      1.0  0.64735  0.39270  0.24960  1.0000
  S   S306      1.0  0.59972  0.25534  0.32026  1.0000
  S   S307      1.0  0.55102  0.30793  0.26376  1.0000
  N   N74       1.0  0.62439  0.13873  0.34890  1.0000
  N   N75       1.0  0.38226  0.12641  0.39183  1.0000
  C   C920      1.0  0.39604  0.13136  0.39706  1.0000
  C   C921      1.0  0.38525  0.12192  0.37472  1.0000
  C   C922      1.0  0.41326  0.13216  0.38492  1.0000
  C   C923      1.0  0.40236  0.12246  0.36228  1.0000
  C   C924      1.0  0.41643  0.12757  0.36748  1.0000
  C   C925      1.0  0.36435  0.12528  0.40477  1.0000
  H   H916      1.0  0.39364  0.13524  0.41047  1.0000
  H   H917      1.0  0.37435  0.11795  0.37058  1.0000
  H   H918      1.0  0.42394  0.13672  0.38885  1.0000
  H   H919      1.0  0.40480  0.11901  0.34862  1.0000
  H   H920      1.0  0.42973  0.12801  0.35795  1.0000
  H   H921      1.0  0.36213  0.13302  0.41612  1.0000
  H   H922      1.0  0.35258  0.13173  0.39743  1.0000
  H   H923      1.0  0.36367  0.11052  0.41113  1.0000
  N   N76       1.0  0.37864  0.22079  0.35784  1.0000
  C   C926      1.0  0.38267  0.21910  0.33958  1.0000
  C   C927      1.0  0.36183  0.21817  0.36895  1.0000
  C   C928      1.0  0.36997  0.21404  0.33218  1.0000
  C   C929      1.0  0.34876  0.21318  0.36199  1.0000
  C   C930      1.0  0.35295  0.21100  0.34350  1.0000
  H   H924      1.0  0.62230  0.13530  0.32240  1.0000
  C   C931      1.0  0.65303  0.20430  0.41000  1.0000
  C   C932      1.0  0.39202  0.22633  0.36529  1.0000
  H   H925      1.0  0.65197  0.16129  0.40457  1.0000
  H   H926      1.0  0.51886  0.00715  0.26362  1.0000
  H   H927      1.0  0.58075  0.11703  0.36886  1.0000
  C   C933      1.0  0.61138  0.04208  0.25166  1.0000
  C   C934      1.0  0.60945  0.21395  0.26584  1.0000
  H   H928      1.0  0.60334  0.01852  0.27218  1.0000
  N   N77       1.0  0.61335  0.25029  0.26220  1.0000
  C   C935      1.0  0.56524  0.29306  0.27862  1.0000
  C   C936      1.0  0.64870  0.17629  0.40290  1.0000
  H   H929      1.0  0.50024  0.32682  0.24548  1.0000
  N   N78       1.0  0.54581  0.26801  0.33889  1.0000
  C   C937      1.0  0.53975  0.28202  0.32507  1.0000
  C   C938      1.0  0.54006  0.25145  0.34313  1.0000
  C   C939      1.0  0.52810  0.27942  0.31466  1.0000
  C   C940      1.0  0.52845  0.24837  0.33298  1.0000
  C   C941      1.0  0.52254  0.26241  0.31859  1.0000
  C   C942      1.0  0.55781  0.27107  0.34981  1.0000
  H   H930      1.0  0.54432  0.29515  0.32164  1.0000
  H   H931      1.0  0.54448  0.24046  0.35437  1.0000
  H   H932      1.0  0.52388  0.29037  0.30328  1.0000
  H   H933      1.0  0.52411  0.23513  0.33626  1.0000
  H   H934      1.0  0.51371  0.26006  0.31050  1.0000
  H   H935      1.0  0.56655  0.28124  0.34144  1.0000
  H   H936      1.0  0.54923  0.27619  0.36246  1.0000
  H   H937      1.0  0.56772  0.25798  0.35405  1.0000
  N   N79       1.0  0.50411  0.13912  0.30347  1.0000
  C   C943      1.0  0.49103  0.13007  0.30246  1.0000
  C   C944      1.0  0.51338  0.14892  0.28765  1.0000
  C   C945      1.0  0.48697  0.13064  0.28528  1.0000
  C   C946      1.0  0.60171  0.12777  0.37519  1.0000
  H   H938      1.0  0.55285  0.14868  0.32437  1.0000
  C   C947      1.0  0.50854  0.13767  0.32161  1.0000
  H   H939      1.0  0.48367  0.12231  0.31499  1.0000
  H   H940      1.0  0.52378  0.15606  0.28847  1.0000
  C   C948      1.0  0.61590  0.26934  0.25975  1.0000
  H   H941      1.0  0.57674  0.99316  0.24220  1.0000
  H   H942      1.0  0.60298  0.27946  0.25702  1.0000
  C   C949      1.0  0.61048  0.02328  0.25806  1.0000
  C   C950      1.0  0.42400  0.25474  0.24600  1.0000
  H   H943      1.0  0.33569  0.21054  0.37104  1.0000
  H   H944      1.0  0.65353  0.13677  0.33991  1.0000
  H   H945      1.0  0.51661  0.04150  0.25570  1.0000
  C   C951      1.0  0.65743  0.18494  0.41177  1.0000
  H   H946      1.0  0.61908  0.27183  0.27237  1.0000
  C   C952      1.0  0.61785  0.01093  0.24583  1.0000
  H   H947      1.0  0.66000  0.45430  0.27780  1.0000
  S   S308      1.0  0.32798  0.16856  0.41081  1.0000
  S   S309      1.0  0.44760  0.01894  0.24231  1.0000
  C   C953      1.0  0.44340  0.25055  0.24363  1.0000
  C   C954      1.0  0.52462  0.01382  0.24964  1.0000
  H   H948      1.0  0.59882  0.22420  0.24052  1.0000
  H   H949      1.0  0.47195  0.32009  0.23956  1.0000
  H   H950      1.0  0.66092  0.47809  0.27608  1.0000
  H   H951      1.0  0.60766  0.35574  0.23908  1.0000
  Fe  Fe151     1.0  0.60249  0.22194  0.71156  1.0000
  C   C955      1.0  0.50021  0.18950  0.71305  1.0000
  S   S310      1.0  0.62055  0.23712  0.68674  1.0000
  N   N80       1.0  0.64428  0.21512  0.62306  1.0000
  H   H952      1.0  0.40936  0.15877  0.66134  1.0000
  S   S311      1.0  0.57719  0.24143  0.72391  1.0000
  S   S312      1.0  0.58631  0.20119  0.71045  1.0000
  C   C956      1.0  0.64192  0.22687  0.67385  1.0000
  C   C957      1.0  0.61687  0.22083  0.64684  1.0000
  Fe  Fe152     1.0  0.33566  0.19304  0.58039  1.0000
  H   H953      1.0  0.50229  0.26091  0.73207  1.0000
  C   C958      1.0  0.39279  0.15428  0.64414  1.0000
  C   C959      1.0  0.63485  0.18960  0.64672  1.0000
  H   H954      1.0  0.61052  0.19691  0.66767  1.0000
  S   S313      1.0  0.35030  0.18958  0.55110  1.0000
  H   H955      1.0  0.38267  0.16315  0.68784  1.0000
  H   H956      1.0  0.33373  0.13324  0.56308  1.0000
  S   S314      1.0  0.42289  0.20057  0.65758  1.0000
  H   H957      1.0  0.65917  0.18695  0.62484  1.0000
  H   H958      1.0  0.34169  0.14853  0.64470  1.0000
  S   S315      1.0  0.34254  0.20660  0.64300  1.0000
  S   S316      1.0  0.44926  0.21385  0.68900  1.0000
  Fe  Fe153     1.0  0.56153  0.21977  0.72464  1.0000
  S   S317      1.0  0.34639  0.17478  0.60554  1.0000
  C   C960      1.0  0.40052  0.20224  0.65362  1.0000
  C   C961      1.0  0.38464  0.20506  0.66760  1.0000
  C   C962      1.0  0.36698  0.20659  0.66396  1.0000
  C   C963      1.0  0.36508  0.20495  0.64648  1.0000
  C   C964      1.0  0.38096  0.20208  0.63250  1.0000
  C   C965      1.0  0.39862  0.20090  0.63603  1.0000
  C   C966      1.0  0.38492  0.25585  0.67671  1.0000
  C   C967      1.0  0.39910  0.25881  0.68362  1.0000
  H   H959      1.0  0.37961  0.20094  0.61895  1.0000
  H   H960      1.0  0.41087  0.19880  0.62512  1.0000
  S   S318      1.0  0.42303  0.25086  0.72107  1.0000
  S   S319      1.0  0.43785  0.17268  0.70422  1.0000
  Fe  Fe154     1.0  0.45791  0.18750  0.70891  1.0000
  C   C968      1.0  0.61972  0.20190  0.65486  1.0000
  C   C969      1.0  0.34123  0.18553  0.51947  1.0000
  H   H961      1.0  0.52530  0.16867  0.71539  1.0000
  H   H962      1.0  0.33387  0.18223  0.49478  1.0000
  H   H963      1.0  0.35537  0.17781  0.51630  1.0000
  Fe  Fe155     1.0  0.33424  0.19979  0.61901  1.0000
  H   H964      1.0  0.49539  0.23514  0.71422  1.0000
  C   C970      1.0  0.51871  0.18312  0.71534  1.0000
  H   H965      1.0  0.39597  0.26351  0.69672  1.0000
  C   C971      1.0  0.32907  0.18797  0.50731  1.0000
  H   H966      1.0  0.38593  0.20615  0.68117  1.0000
  Fe  Fe156     1.0  0.42883  0.22244  0.71406  1.0000
  H   H967      1.0  0.64218  0.19893  0.68957  1.0000
  C   C972      1.0  0.34151  0.15518  0.65633  1.0000
  C   C973      1.0  0.62930  0.22722  0.63077  1.0000
  H   H968      1.0  0.54316  0.19060  0.71878  1.0000
  C   C974      1.0  0.39566  0.15756  0.66045  1.0000
  H   H969      1.0  0.33317  0.16959  0.65394  1.0000
  H   H970      1.0  0.62722  0.24201  0.62490  1.0000
  S   S320      1.0  0.48767  0.17397  0.71051  1.0000
  C   C975      1.0  0.64920  0.20774  0.67776  1.0000
  C   C976      1.0  0.64706  0.19649  0.63071  1.0000
  C   C977      1.0  0.49180  0.20823  0.71289  1.0000
  C   C978      1.0  0.37490  0.15342  0.64301  1.0000
  H   H971      1.0  0.64571  0.25301  0.65551  1.0000
  N   N81       1.0  0.42162  0.24899  0.65741  1.0000
  C   C979      1.0  0.41749  0.25526  0.67376  1.0000
  C   C980      1.0  0.40778  0.24623  0.65045  1.0000
  C   C981      1.0  0.38925  0.24957  0.65998  1.0000
  C   C982      1.0  0.44094  0.24484  0.64728  1.0000
  H   H972      1.0  0.42842  0.25730  0.67949  1.0000
  H   H973      1.0  0.41112  0.24078  0.63775  1.0000
  H   H974      1.0  0.37841  0.24687  0.65460  1.0000
  H   H975      1.0  0.44238  0.25321  0.63286  1.0000
  H   H976      1.0  0.45082  0.24793  0.65417  1.0000
  H   H977      1.0  0.44510  0.22979  0.64660  1.0000
  C   C983      1.0  0.33513  0.19306  0.53571  1.0000
  S   S321      1.0  0.40594  0.21120  0.70955  1.0000
  N   N82       1.0  0.36030  0.15568  0.65775  1.0000
  H   H978      1.0  0.35122  0.16178  0.68504  1.0000
  H   H979      1.0  0.63746  0.17494  0.65311  1.0000
  H   H980      1.0  0.47758  0.21326  0.71114  1.0000
  H   H981      1.0  0.40428  0.15282  0.63232  1.0000
  C   C984      1.0  0.38066  0.16004  0.67533  1.0000
  H   H982      1.0  0.60556  0.23058  0.65350  1.0000
  C   C985      1.0  0.50193  0.22061  0.71464  1.0000
  S   S322      1.0  0.53281  0.23048  0.71827  1.0000
  H   H983      1.0  0.35473  0.20887  0.67482  1.0000
  Fe  Fe157     1.0  0.41799  0.18490  0.72764  1.0000
  C   C986      1.0  0.52883  0.19552  0.71723  1.0000
  C   C987      1.0  0.52048  0.21433  0.71669  1.0000
  H   H984      1.0  0.41921  0.14304  0.72946  1.0000
  C   C988      1.0  0.36293  0.15924  0.67366  1.0000
  H   H985      1.0  0.33443  0.14703  0.66932  1.0000
  S   S323      1.0  0.43897  0.19700  0.73412  1.0000
  Fe  Fe158     1.0  0.42733  0.19997  0.68629  1.0000
  H   H986      1.0  0.37277  0.15111  0.63019  1.0000
  C   C989      1.0  0.65122  0.23818  0.65852  1.0000
  H   H987      1.0  0.37065  0.25823  0.68439  1.0000
  H   H988      1.0  0.65175  0.22289  0.59361  1.0000
  H   H989      1.0  0.33240  0.15750  0.56268  1.0000
  H   H990      1.0  0.45377  0.22597  0.73653  1.0000
  H   H991      1.0  0.46468  0.14302  0.73187  1.0000
  H   H992      1.0  0.53328  0.26063  0.73394  1.0000
  C   C990      1.0  0.43380  0.25155  0.73894  1.0000
  H   H993      1.0  0.43594  0.11029  0.73698  1.0000
  C   C991      1.0  0.65711  0.22212  0.60620  1.0000
  H   H994      1.0  0.65895  0.23613  0.60648  1.0000
  C   C992      1.0  0.40506  0.00351  0.84949  1.0000
  Fe  Fe159     1.0  0.48740  0.07647  0.81317  1.0000
  S   S324      1.0  0.47255  0.06988  0.84296  1.0000
  S   S325      1.0  0.51732  0.07897  0.80498  1.0000
  Fe  Fe160     1.0  0.45284  0.08143  0.79838  1.0000
  S   S326      1.0  0.43477  0.07563  0.82676  1.0000
  S   S327      1.0  0.44366  0.08694  0.77136  1.0000
  Fe  Fe161     1.0  0.45008  0.09372  0.83433  1.0000
  S   S328      1.0  0.43645  0.11620  0.85116  1.0000
  Fe  Fe162     1.0  0.45902  0.05243  0.83257  1.0000
  S   S329      1.0  0.45640  0.02350  0.84849  1.0000
  S   S330      1.0  0.46588  0.10161  0.80524  1.0000
  S   S331      1.0  0.47600  0.05692  0.80356  1.0000
  Fe  Fe163     1.0  0.59937  0.07517  0.86984  1.0000
  S   S332      1.0  0.57919  0.09171  0.85172  1.0000
  Fe  Fe164     1.0  0.58344  0.09957  0.89929  1.0000
  S   S333      1.0  0.56143  0.11712  0.88391  1.0000
  S   S334      1.0  0.58185  0.10518  0.92763  1.0000
  Fe  Fe165     1.0  0.55842  0.09043  0.87871  1.0000
  S   S335      1.0  0.53197  0.08095  0.88234  1.0000
  Fe  Fe166     1.0  0.58445  0.11684  0.85854  1.0000
  S   S336      1.0  0.58509  0.14538  0.84037  1.0000
  S   S337      1.0  0.57819  0.07264  0.89647  1.0000
  S   S338      1.0  0.60695  0.10058  0.87425  1.0000
  H   H995      1.0  0.44522  0.00912  0.79298  1.0000
  S   S339      1.0  0.42104  0.21450  0.91708  1.0000
  H   H996      1.0  0.55583  0.02027  0.81501  1.0000
  Fe  Fe167     1.0  0.59205  0.22905  0.96347  1.0000
  S   S340      1.0  0.61417  0.20324  0.96687  1.0000
  S   S341      1.0  0.59691  0.25817  0.95358  1.0000
  Fe  Fe168     1.0  0.59736  0.19074  0.95453  1.0000
  S   S342      1.0  0.60901  0.17705  0.92961  1.0000
  H   H997      1.0  0.61743  0.28185  0.75279  1.0000
  S   S343      1.0  0.57702  0.21751  0.94862  1.0000
  N   N83       1.0  0.57420  0.03736  0.81570  1.0000
  H   H998      1.0  0.42360  0.11326  0.79494  1.0000
  S   S344      1.0  0.58006  0.18009  0.98210  1.0000
  S   S345      1.0  0.57769  0.23547  0.77832  1.0000
  S   S346      1.0  0.45207  0.16514  0.93305  1.0000
  H   H999      1.0  0.50218  0.08039  0.92560  1.0000
  Fe  Fe169     1.0  0.61509  0.29712  0.84978  1.0000
  S   S347      1.0  0.63076  0.31124  0.82291  1.0000
  S   S348      1.0  0.62961  0.27164  0.86709  1.0000
  Fe  Fe170     1.0  0.57762  0.32022  0.84279  1.0000
  S   S349      1.0  0.59037  0.33671  0.81573  1.0000
  S   S350      1.0  0.54637  0.32388  0.85286  1.0000
  Fe  Fe171     1.0  0.60773  0.30911  0.81036  1.0000
  S   S351      1.0  0.61228  0.30189  0.78207  1.0000
  Fe  Fe172     1.0  0.61217  0.33755  0.83080  1.0000
  S   S352      1.0  0.62457  0.36341  0.82375  1.0000
  S   S353      1.0  0.59381  0.29260  0.83659  1.0000
  S   S354      1.0  0.59773  0.32348  0.85865  1.0000
  H   H1000     1.0  0.64388  0.39284  0.81825  1.0000
  C   C993      1.0  0.61304  0.01547  0.85591  1.0000
  H   H1001     1.0  0.51962  0.33856  0.78390  1.0000
  S   S355      1.0  0.36681  0.40508  0.82180  1.0000
  Fe  Fe173     1.0  0.47470  0.30093  0.80675  1.0000
  S   S356      1.0  0.46601  0.27469  0.82396  1.0000
  S   S357      1.0  0.50529  0.30165  0.80106  1.0000
  Fe  Fe174     1.0  0.43642  0.31735  0.79675  1.0000
  S   S358      1.0  0.42504  0.29211  0.81282  1.0000
  S   S359      1.0  0.41638  0.33966  0.78159  1.0000
  Fe  Fe175     1.0  0.43957  0.29366  0.83453  1.0000
  S   S360      1.0  0.42341  0.29311  0.86385  1.0000
  Fe  Fe176     1.0  0.45235  0.27569  0.80051  1.0000
  S   S361      1.0  0.45672  0.24925  0.78997  1.0000
  S   S362      1.0  0.44930  0.32006  0.81935  1.0000
  S   S363      1.0  0.46280  0.30067  0.78244  1.0000
  H   H1002     1.0  0.44087  0.18349  0.81899  1.0000
  N   N84       1.0  0.47969  0.08987  0.91119  1.0000
  N   N85       1.0  0.53167  0.15509  0.84763  1.0000
  C   C994      1.0  0.64168  0.36685  0.86951  1.0000
  H   H1003     1.0  0.60718  0.22058  0.80578  1.0000
  H   H1004     1.0  0.39872  0.99750  0.80917  1.0000
  H   H1005     1.0  0.54811  0.03371  0.83291  1.0000
  H   H1006     1.0  0.60079  0.13108  0.89857  1.0000
  H   H1007     1.0  0.55938  0.03065  0.86274  1.0000
  S   S364      1.0  0.47689  0.16012  0.97732  1.0000
  C   C995      1.0  0.44863  0.25114  0.76963  1.0000
  C   C996      1.0  0.43490  0.26621  0.76381  1.0000
  C   C997      1.0  0.55547  0.03393  0.81818  1.0000
  H   H1008     1.0  0.54734  0.16722  0.80111  1.0000
  H   H1009     1.0  0.46434  0.15918  0.74586  1.0000
  C   C998      1.0  0.45539  0.23667  0.75969  1.0000
  H   H1010     1.0  0.42967  0.27749  0.77137  1.0000
  C   C999      1.0  0.65780  0.20813  0.96812  1.0000
  C   C1000     1.0  0.37647  0.32916  0.82229  1.0000
  H   H1011     1.0  0.46621  0.22511  0.76394  1.0000
  C   C1001     1.0  0.38102  0.38786  0.80954  1.0000
  C   C1002     1.0  0.37562  0.38338  0.79513  1.0000
  C   C1003     1.0  0.38682  0.36884  0.78634  1.0000
  C   C1004     1.0  0.40325  0.35849  0.79217  1.0000
  C   C1005     1.0  0.40871  0.36310  0.80647  1.0000
  C   C1006     1.0  0.39773  0.37788  0.81498  1.0000
  H   H1012     1.0  0.36285  0.39111  0.79073  1.0000
  H   H1013     1.0  0.38262  0.36543  0.77517  1.0000
  H   H1014     1.0  0.42149  0.35543  0.81082  1.0000
  H   H1015     1.0  0.40205  0.38143  0.82599  1.0000
  H   H1016     1.0  0.61959  0.01613  0.80654  1.0000
  C   C1007     1.0  0.53975  0.16043  0.81416  1.0000
  C   C1008     1.0  0.53476  0.31601  0.83978  1.0000
  C   C1009     1.0  0.54485  0.30678  0.82535  1.0000
  C   C1010     1.0  0.53554  0.30155  0.81428  1.0000
  C   C1011     1.0  0.51605  0.30579  0.81730  1.0000
  C   C1012     1.0  0.50585  0.31455  0.83206  1.0000
  C   C1013     1.0  0.51522  0.31960  0.84333  1.0000
  H   H1017     1.0  0.55985  0.30414  0.82235  1.0000
  H   H1018     1.0  0.54355  0.29475  0.80291  1.0000
  H   H1019     1.0  0.49081  0.31808  0.83434  1.0000
  H   H1020     1.0  0.50733  0.32683  0.85442  1.0000
  H   H1021     1.0  0.52709  0.10103  0.76615  1.0000
  H   H1022     1.0  0.40024  0.31814  0.83513  1.0000
  C   C1014     1.0  0.61454  0.19133  0.81787  1.0000
  S   S365      1.0  0.61737  0.04833  0.86206  1.0000
  C   C1015     1.0  0.54074  0.16401  0.83112  1.0000
  C   C1016     1.0  0.58723  0.25417  0.77866  1.0000
  C   C1017     1.0  0.59981  0.26161  0.76338  1.0000
  C   C1018     1.0  0.60753  0.27623  0.76454  1.0000
  C   C1019     1.0  0.60267  0.28341  0.78093  1.0000
  C   C1020     1.0  0.58972  0.27619  0.79593  1.0000
  C   C1021     1.0  0.58213  0.26156  0.79486  1.0000
  H   H1023     1.0  0.51223  0.26154  0.80111  1.0000
  H   H1024     1.0  0.54737  0.04505  0.80894  1.0000
  H   H1025     1.0  0.58540  0.28194  0.80832  1.0000
  H   H1026     1.0  0.57224  0.25598  0.80665  1.0000
  C   C1022     1.0  0.60681  0.26206  0.92975  1.0000
  C   C1023     1.0  0.61596  0.24701  0.92106  1.0000
  C   C1024     1.0  0.62321  0.25015  0.90184  1.0000
  C   C1025     1.0  0.62089  0.26827  0.89119  1.0000
  C   C1026     1.0  0.61161  0.28331  0.89986  1.0000
  C   C1027     1.0  0.60483  0.28022  0.91920  1.0000
  H   H1027     1.0  0.60998  0.29734  0.89175  1.0000
  H   H1028     1.0  0.59772  0.29189  0.92591  1.0000
  C   C1028     1.0  0.42142  0.23578  0.90115  1.0000
  C   C1029     1.0  0.40769  0.25136  0.90505  1.0000
  C   C1030     1.0  0.40827  0.26882  0.89333  1.0000
  C   C1031     1.0  0.42225  0.27073  0.87730  1.0000
  C   C1032     1.0  0.43568  0.25505  0.87299  1.0000
  C   C1033     1.0  0.43543  0.23762  0.88507  1.0000
  H   H1029     1.0  0.39681  0.24998  0.91742  1.0000
  H   H1030     1.0  0.39784  0.28086  0.89673  1.0000
  H   H1031     1.0  0.44653  0.25641  0.86065  1.0000
  H   H1032     1.0  0.44592  0.22561  0.88184  1.0000
  C   C1034     1.0  0.58756  0.14823  0.81616  1.0000
  C   C1035     1.0  0.58570  0.16632  0.80546  1.0000
  C   C1036     1.0  0.58869  0.16927  0.78602  1.0000
  C   C1037     1.0  0.59327  0.15416  0.77709  1.0000
  C   C1038     1.0  0.59481  0.13601  0.78780  1.0000
  C   C1039     1.0  0.59193  0.13303  0.80735  1.0000
  H   H1033     1.0  0.58232  0.17815  0.81217  1.0000
  H   H1034     1.0  0.58793  0.18327  0.77796  1.0000
  H   H1035     1.0  0.59844  0.12427  0.78093  1.0000
  H   H1036     1.0  0.59344  0.11901  0.81552  1.0000
  C   C1040     1.0  0.59003  0.12479  0.92812  1.0000
  C   C1041     1.0  0.59870  0.13523  0.91175  1.0000
  C   C1042     1.0  0.60481  0.15102  0.91245  1.0000
  C   C1043     1.0  0.60202  0.15663  0.92945  1.0000
  C   C1044     1.0  0.59332  0.14619  0.94582  1.0000
  C   C1045     1.0  0.58743  0.13026  0.94516  1.0000
  S   S366      1.0  0.49633  0.16492  0.92541  1.0000
  C   C1046     1.0  0.41276  0.13810  0.77646  1.0000
  H   H1037     1.0  0.59131  0.15028  0.95900  1.0000
  H   H1038     1.0  0.58084  0.12214  0.95786  1.0000
  C   C1047     1.0  0.43088  0.10967  0.76643  1.0000
  H   H1039     1.0  0.33187  0.46966  0.83282  1.0000
  S   S367      1.0  0.60949  0.20749  0.73952  1.0000
  C   C1048     1.0  0.41175  0.14662  0.75796  1.0000
  H   H1040     1.0  0.43521  0.10702  0.90570  1.0000
  C   C1049     1.0  0.42261  0.11972  0.78067  1.0000
  H   H1041     1.0  0.58579  0.31565  0.75752  1.0000
  C   C1050     1.0  0.49715  0.14019  0.75030  1.0000
  S   S368      1.0  0.56943  0.99501  0.85283  1.0000
  H   H1042     1.0  0.54924  0.29503  0.92624  1.0000
  C   C1051     1.0  0.45121  0.12397  0.86088  1.0000
  C   C1052     1.0  0.47004  0.11546  0.85940  1.0000
  C   C1053     1.0  0.48107  0.12036  0.86902  1.0000
  C   C1054     1.0  0.44374  0.13810  0.87130  1.0000
  H   H1043     1.0  0.47597  0.10458  0.85142  1.0000
  H   H1044     1.0  0.49532  0.11289  0.86863  1.0000
  H   H1045     1.0  0.42917  0.14474  0.87250  1.0000
  C   C1055     1.0  0.52329  0.07842  0.82592  1.0000
  C   C1056     1.0  0.53247  0.09171  0.82726  1.0000
  C   C1057     1.0  0.53541  0.09233  0.84462  1.0000
  C   C1058     1.0  0.52920  0.07967  0.86053  1.0000
  C   C1059     1.0  0.52063  0.06599  0.85902  1.0000
  C   C1060     1.0  0.51779  0.06530  0.84168  1.0000
  H   H1046     1.0  0.53677  0.10182  0.81503  1.0000
  H   H1047     1.0  0.54189  0.10301  0.84582  1.0000
  H   H1048     1.0  0.51629  0.05584  0.87118  1.0000
  H   H1049     1.0  0.51130  0.05459  0.84052  1.0000
  H   H1050     1.0  0.50662  0.19239  0.97240  1.0000
  H   H1051     1.0  0.49064  0.00439  0.79816  1.0000
  H   H1052     1.0  0.64098  0.35962  0.88386  1.0000
  C   C1061     1.0  0.45278  0.00894  0.83553  1.0000
  C   C1062     1.0  0.45059  0.01560  0.81708  1.0000
  C   C1063     1.0  0.44716  0.00383  0.80718  1.0000
  C   C1064     1.0  0.57379  0.25723  0.90789  1.0000
  H   H1053     1.0  0.52867  0.34962  0.80632  1.0000
  H   H1054     1.0  0.45118  0.02991  0.81051  1.0000
  H   H1055     1.0  0.39352  0.32991  0.87012  1.0000
  C   C1065     1.0  0.50507  0.25890  0.77618  1.0000
  C   C1066     1.0  0.49956  0.10214  0.76252  1.0000
  C   C1067     1.0  0.51694  0.26139  0.78636  1.0000
  C   C1068     1.0  0.55737  0.31549  0.75770  1.0000
  C   C1069     1.0  0.53479  0.26401  0.77736  1.0000
  C   C1070     1.0  0.40181  0.02326  0.81390  1.0000
  H   H1056     1.0  0.41018  0.33863  0.85031  1.0000
  C   C1071     1.0  0.58479  0.03829  0.86282  1.0000
  H   H1057     1.0  0.54412  0.26597  0.78513  1.0000
  C   C1072     1.0  0.56492  0.28251  0.88398  1.0000
  C   C1073     1.0  0.65161  0.38133  0.86253  1.0000
  C   C1074     1.0  0.58317  0.00883  0.85646  1.0000
  C   C1075     1.0  0.48446  0.07611  0.90106  1.0000
  Fe  Fe177     1.0  0.48963  0.19519  0.91306  1.0000
  H   H1058     1.0  0.58133  0.24319  0.91217  1.0000
  C   C1076     1.0  0.38762  0.32873  0.83460  1.0000
  C   C1077     1.0  0.54294  0.34994  0.79785  1.0000
  C   C1078     1.0  0.61341  0.20665  0.80313  1.0000
  H   H1059     1.0  0.63041  0.23849  0.89514  1.0000
  Fe  Fe178     1.0  0.58283  0.22519  0.75161  1.0000
  C   C1079     1.0  0.52849  0.26110  0.74862  1.0000
  C   C1080     1.0  0.55587  0.28640  0.91593  1.0000
  C   C1081     1.0  0.62766  0.18595  0.78152  1.0000
  C   C1082     1.0  0.36706  0.35520  0.84494  1.0000
  C   C1083     1.0  0.48349  0.11371  0.75706  1.0000
  H   H1060     1.0  0.56490  0.28835  0.86939  1.0000
  H   H1061     1.0  0.61159  0.15900  0.89976  1.0000
  C   C1084     1.0  0.43075  0.20926  0.80126  1.0000
  C   C1085     1.0  0.43265  0.19016  0.80838  1.0000
  H   H1062     1.0  0.43754  0.21759  0.80617  1.0000
  H   H1063     1.0  0.61625  0.01494  0.90280  1.0000
  C   C1086     1.0  0.53418  0.33371  0.77806  1.0000
  C   C1087     1.0  0.63285  0.36151  0.85797  1.0000
  C   C1088     1.0  0.62218  0.17347  0.81404  1.0000
  H   H1064     1.0  0.54595  0.14397  0.97652  1.0000
  C   C1089     1.0  0.56623  0.33181  0.77663  1.0000
  H   H1065     1.0  0.62257  0.16158  0.82556  1.0000
  C   C1090     1.0  0.58959  0.02399  0.81122  1.0000
  H   H1066     1.0  0.39268  0.35476  0.86234  1.0000
  C   C1091     1.0  0.44886  0.09790  0.90480  1.0000
  H   H1067     1.0  0.40667  0.22731  0.75669  1.0000
  H   H1068     1.0  0.56389  0.06421  0.82263  1.0000
  H   H1069     1.0  0.52265  0.15623  0.97348  1.0000
  C   C1092     1.0  0.39538  0.34132  0.85774  1.0000
  H   H1070     1.0  0.40098  0.03071  0.79979  1.0000
  H   H1071     1.0  0.63249  0.15092  0.77913  1.0000
  N   N86       1.0  0.54438  0.16136  0.95008  1.0000
  C   C1093     1.0  0.54201  0.15026  0.93946  1.0000
  C   C1094     1.0  0.55359  0.17565  0.94201  1.0000
  C   C1095     1.0  0.54870  0.15353  0.92019  1.0000
  C   C1096     1.0  0.56030  0.17943  0.92276  1.0000
  C   C1097     1.0  0.55783  0.16827  0.91180  1.0000
  C   C1098     1.0  0.53755  0.15729  0.97030  1.0000
  H   H1072     1.0  0.53518  0.13861  0.94592  1.0000
  H   H1073     1.0  0.55596  0.18414  0.95043  1.0000
  C   C1099     1.0  0.60949  0.04370  0.81263  1.0000
  H   H1074     1.0  0.49642  0.15504  0.74538  1.0000
  H   H1075     1.0  0.52457  0.17360  0.86640  1.0000
  H   H1076     1.0  0.45276  0.14013  0.75609  1.0000
  N   N87       1.0  0.51082  0.25896  0.75751  1.0000
  H   H1077     1.0  0.38070  0.31929  0.81303  1.0000
  C   C1100     1.0  0.59373  0.05728  0.81708  1.0000
  N   N88       1.0  0.54789  0.33805  0.78399  1.0000
  C   C1101     1.0  0.51353  0.12900  0.75545  1.0000
  H   H1078     1.0  0.49123  0.25695  0.78330  1.0000
  C   C1102     1.0  0.44813  0.23698  0.74430  1.0000
  H   H1079     1.0  0.52773  0.31810  0.76110  1.0000
  H   H1080     1.0  0.40662  0.04651  0.82238  1.0000
  H   H1081     1.0  0.48986  0.23421  0.98354  1.0000
  C   C1103     1.0  0.57121  0.32057  0.76329  1.0000
  H   H1082     1.0  0.50023  0.08729  0.76751  1.0000
  H   H1083     1.0  0.54382  0.36451  0.79083  1.0000
  C   C1104     1.0  0.35541  0.35588  0.83300  1.0000
  C   C1105     1.0  0.62014  0.20399  0.78485  1.0000
  C   C1106     1.0  0.46518  0.14429  0.74605  1.0000
  N   N89       1.0  0.46111  0.26215  0.89838  1.0000
  C   C1107     1.0  0.47553  0.24829  0.89298  1.0000
  C   C1108     1.0  0.45905  0.27962  0.88747  1.0000
  C   C1109     1.0  0.48823  0.25166  0.87614  1.0000
  C   C1110     1.0  0.47137  0.28345  0.87043  1.0000
  C   C1111     1.0  0.48609  0.26937  0.86479  1.0000
  C   C1112     1.0  0.44835  0.25839  0.91637  1.0000
  H   H1084     1.0  0.47718  0.23448  0.90167  1.0000
  H   H1085     1.0  0.44748  0.29058  0.89160  1.0000
  H   H1086     1.0  0.49964  0.24054  0.87202  1.0000
  H   H1087     1.0  0.46933  0.29717  0.86157  1.0000
  H   H1088     1.0  0.49574  0.27219  0.85159  1.0000
  H   H1089     1.0  0.44605  0.24389  0.91956  1.0000
  H   H1090     1.0  0.45418  0.26032  0.92765  1.0000
  H   H1091     1.0  0.43443  0.26771  0.91626  1.0000
  N   N90       1.0  0.63234  0.23575  0.98487  1.0000
  C   C1113     1.0  0.56469  0.26797  0.92142  1.0000
  H   H1092     1.0  0.63457  0.25276  0.95757  1.0000
  H   H1093     1.0  0.56100  0.00861  0.90512  1.0000
  C   C1114     1.0  0.60418  0.03303  0.86017  1.0000
  C   C1115     1.0  0.46217  0.10077  0.91308  1.0000
  N   N91       1.0  0.57366  0.26449  0.88946  1.0000
  H   H1094     1.0  0.54930  0.30813  0.89253  1.0000
  H   H1095     1.0  0.58811  0.01065  0.80956  1.0000
  H   H1096     1.0  0.56787  0.19057  0.91650  1.0000
  H   H1097     1.0  0.56506  0.26223  0.93601  1.0000
  H   H1098     1.0  0.40962  0.02884  0.85426  1.0000
  S   S369      1.0  0.47228  0.19180  0.89468  1.0000
  H   H1099     1.0  0.41837  0.23254  0.78240  1.0000
  H   H1100     1.0  0.52822  0.14495  0.80114  1.0000
  Fe  Fe179     1.0  0.47137  0.17147  0.94795  1.0000
  H   H1101     1.0  0.50354  0.10097  0.90765  1.0000
  C   C1116     1.0  0.51960  0.13911  0.83106  1.0000
  C   C1117     1.0  0.52907  0.14790  0.81417  1.0000
  H   H1102     1.0  0.53846  0.16845  0.97700  1.0000
  H   H1103     1.0  0.40618  0.14575  0.78752  1.0000
  Fe  Fe180     1.0  0.56093  0.20793  0.97700  1.0000
  S   S370      1.0  0.59778  0.15789  0.75261  1.0000
  C   C1118     1.0  0.41997  0.21765  0.78772  1.0000
  H   H1104     1.0  0.54723  0.14437  0.91194  1.0000
  H   H1105     1.0  0.35177  0.34372  0.81163  1.0000
  H   H1106     1.0  0.47187  0.10760  0.75754  1.0000
  H   H1107     1.0  0.65963  0.40203  0.83856  1.0000
  H   H1108     1.0  0.62548  0.35017  0.86341  1.0000
  H   H1109     1.0  0.60377  0.25599  0.75079  1.0000
  C   C1119     1.0  0.42378  0.17971  0.80193  1.0000
  H   H1110     1.0  0.42500  0.16487  0.80751  1.0000
  H   H1111     1.0  0.57775  0.05169  0.86624  1.0000
  C   C1120     1.0  0.60746  0.02697  0.80956  1.0000
  H   H1112     1.0  0.63262  0.18396  0.76724  1.0000
  C   C1121     1.0  0.51240  0.20147  0.95996  1.0000
  C   C1122     1.0  0.52392  0.21274  0.96089  1.0000
  C   C1123     1.0  0.36028  0.34288  0.82148  1.0000
  H   H1113     1.0  0.60926  0.19320  0.83214  1.0000
  H   H1114     1.0  0.57718  0.33530  0.78115  1.0000
  H   H1115     1.0  0.38611  0.22315  0.77417  1.0000
  C   C1124     1.0  0.54069  0.26377  0.75839  1.0000
  H   H1116     1.0  0.58445  0.23817  0.88118  1.0000
  C   C1125     1.0  0.45364  0.08396  0.89437  1.0000
  C   C1126     1.0  0.64323  0.38555  0.83258  1.0000
  H   H1117     1.0  0.61919  0.21586  0.77335  1.0000
  Fe  Fe181     1.0  0.44876  0.19555  0.91922  1.0000
  C   C1127     1.0  0.50919  0.20101  0.94276  1.0000
  C   C1128     1.0  0.53145  0.22432  0.94467  1.0000
  H   H1118     1.0  0.50118  0.19140  0.94228  1.0000
  H   H1119     1.0  0.53982  0.23357  0.94547  1.0000
  C   C1129     1.0  0.47352  0.13422  0.87975  1.0000
  H   H1120     1.0  0.56344  0.17071  0.89694  1.0000
  C   C1130     1.0  0.53870  0.32213  0.76508  1.0000
  C   C1131     1.0  0.52789  0.22412  0.92739  1.0000
  H   H1121     1.0  0.54913  0.17369  0.83105  1.0000
  H   H1122     1.0  0.54743  0.15847  0.86563  1.0000
  H   H1123     1.0  0.52689  0.14944  0.87749  1.0000
  H   H1124     1.0  0.59517  0.07012  0.81995  1.0000
  C   C1132     1.0  0.49390  0.09358  0.91900  1.0000
  H   H1125     1.0  0.59831  0.25563  0.87057  1.0000
  Fe  Fe182     1.0  0.33735  0.41722  0.81762  1.0000
  C   C1133     1.0  0.58772  0.01358  0.90518  1.0000
  C   C1134     1.0  0.51681  0.21232  0.92644  1.0000
  H   H1126     1.0  0.53369  0.23303  0.91485  1.0000
  C   C1135     1.0  0.45489  0.14329  0.88064  1.0000
  H   H1127     1.0  0.45864  0.11227  0.92033  1.0000
  H   H1128     1.0  0.51432  0.13544  0.86080  1.0000
  N   N92       1.0  0.41162  0.20726  0.78119  1.0000
  C   C1136     1.0  0.41318  0.18857  0.78830  1.0000
  H   H1129     1.0  0.47555  0.06231  0.88411  1.0000
  H   H1130     1.0  0.51119  0.12935  0.83133  1.0000
  H   H1131     1.0  0.57708  0.25706  0.86318  1.0000
  S   S371      1.0  0.51218  0.21159  0.90511  1.0000
  H   H1132     1.0  0.36355  0.36589  0.85321  1.0000
  C   C1137     1.0  0.57437  0.02629  0.86086  1.0000
  H   H1133     1.0  0.61749  0.23293  0.92912  1.0000
  C   C1138     1.0  0.63925  0.23933  0.96607  1.0000
  N   N93       1.0  0.38306  0.34187  0.84542  1.0000
  H   H1134     1.0  0.48769  0.10251  0.92956  1.0000
  S   S372      1.0  0.56486  0.20526  0.75345  1.0000
  C   C1139     1.0  0.47154  0.07293  0.89251  1.0000
  H   H1135     1.0  0.49847  0.06778  0.89926  1.0000
  H   H1136     1.0  0.44370  0.08218  0.88717  1.0000
  C   C1140     1.0  0.42953  0.11806  0.74799  1.0000
  Fe  Fe183     1.0  0.47666  0.16183  0.90927  1.0000
  S   S373      1.0  0.48738  0.13867  0.89300  1.0000
  H   H1137     1.0  0.44892  0.15393  0.88894  1.0000
  C   C1141     1.0  0.63377  0.37072  0.83937  1.0000
  H   H1138     1.0  0.62804  0.01134  0.85384  1.0000
  C   C1142     1.0  0.58384  0.25327  0.87541  1.0000
  C   C1143     1.0  0.55595  0.29375  0.89708  1.0000
  C   C1144     1.0  0.53269  0.15937  0.86516  1.0000
  C   C1145     1.0  0.40010  0.21650  0.76727  1.0000
  H   H1139     1.0  0.40618  0.18040  0.78350  1.0000
  H   H1140     1.0  0.39843  0.20648  0.75959  1.0000
  C   C1146     1.0  0.52126  0.14272  0.84775  1.0000
  S   S374      1.0  0.46560  0.20209  0.93620  1.0000
  H   H1141     1.0  0.62005  0.26421  0.98620  1.0000
  S   S375      1.0  0.53019  0.21068  0.98208  1.0000
  C   C1147     1.0  0.57609  0.05385  0.81859  1.0000
  H   H1142     1.0  0.34311  0.36690  0.83217  1.0000
  H   H1143     1.0  0.62320  0.04595  0.81210  1.0000
  C   C1148     1.0  0.60255  0.00331  0.85417  1.0000
  H   H1144     1.0  0.49727  0.99839  0.82973  1.0000
  N   N94       1.0  0.48230  0.13251  0.75143  1.0000
  C   C1149     1.0  0.65223  0.39074  0.84404  1.0000
  C   C1150     1.0  0.57577  0.00279  0.90406  1.0000
  C   C1151     1.0  0.42743  0.26635  0.74853  1.0000
  C   C1152     1.0  0.65058  0.20456  0.98727  1.0000
  H   H1145     1.0  0.35221  0.48943  0.83552  1.0000
  N   N95       1.0  0.62827  0.17096  0.79601  1.0000
  C   C1153     1.0  0.42017  0.13660  0.74373  1.0000
  S   S376      1.0  0.40067  0.17000  0.75262  1.0000
  H   H1146     1.0  0.48370  0.26311  0.75198  1.0000
  C   C1154     1.0  0.63596  0.15216  0.79217  1.0000
  C   C1155     1.0  0.51462  0.10988  0.76178  1.0000
  H   H1147     1.0  0.65464  0.33152  0.83675  1.0000
  C   C1156     1.0  0.40494  0.03214  0.82658  1.0000
  C   C1157     1.0  0.40050  0.00448  0.81931  1.0000
  H   H1148     1.0  0.55245  0.34493  0.80789  1.0000
  H   H1149     1.0  0.62990  0.14154  0.80350  1.0000
  H   H1150     1.0  0.58230  0.02783  0.90716  1.0000
  C   C1158     1.0  0.40655  0.02224  0.84451  1.0000
  C   C1159     1.0  0.60681  0.00630  0.90279  1.0000
  H   H1151     1.0  0.49859  0.24061  0.74970  1.0000
  H   H1152     1.0  0.55476  0.26526  0.75144  1.0000
  H   H1153     1.0  0.65723  0.22845  0.94244  1.0000
  H   H1154     1.0  0.65131  0.14893  0.79070  1.0000
  H   H1155     1.0  0.56114  0.30639  0.74772  1.0000
  C   C1160     1.0  0.49822  0.25578  0.74733  1.0000
  H   H1156     1.0  0.44721  0.19281  0.98098  1.0000
  H   H1157     1.0  0.52527  0.13515  0.75448  1.0000
  H   H1158     1.0  0.41647  0.27778  0.74436  1.0000
  C   C1161     1.0  0.65211  0.22563  0.95742  1.0000
  H   H1159     1.0  0.65747  0.48817  0.89800  1.0000
  N   N96       1.0  0.40234  0.99482  0.83685  1.0000
  H   H1160     1.0  0.40673  0.99581  0.86332  1.0000
  Fe  Fe184     1.0  0.59110  0.18841  0.73965  1.0000
  Fe  Fe185     1.0  0.58122  0.82875  0.12644  1.0000
  S   S377      1.0  0.56825  0.80421  0.14082  1.0000
  S   S378      1.0  0.57588  0.84246  0.09762  1.0000
  Fe  Fe186     1.0  0.59299  0.83081  0.16141  1.0000
  S   S379      1.0  0.58062  0.80658  0.17864  1.0000
  S   S380      1.0  0.60600  0.84289  0.17798  1.0000
  Fe  Fe187     1.0  0.59348  0.79353  0.15367  1.0000
  S   S381      1.0  0.60901  0.76385  0.15880  1.0000
  Fe  Fe188     1.0  0.55668  0.81955  0.16448  1.0000
  S   S382      1.0  0.52661  0.82340  0.17892  1.0000
  S   S383      1.0  0.60781  0.81687  0.13718  1.0000
  S   S384      1.0  0.56778  0.84504  0.14925  1.0000
  H   H1161     1.0  0.56316  0.87762  0.19302  1.0000
  H   H1162     1.0  0.49787  0.88178  0.16886  1.0000
  C   C1162     1.0  0.55471  0.87525  0.20695  1.0000
  C   C1163     1.0  0.61512  0.74116  0.22191  1.0000
  S   S385      1.0  0.45203  0.91357  0.19503  1.0000
  Fe  Fe189     1.0  0.44837  0.83499  0.11652  1.0000
  S   S386      1.0  0.45339  0.80782  0.13651  1.0000
  S   S387      1.0  0.44075  0.86348  0.12374  1.0000
  Fe  Fe190     1.0  0.46124  0.81676  0.08263  1.0000
  S   S388      1.0  0.46738  0.78797  0.09959  1.0000
  S   S389      1.0  0.47063  0.82175  0.05140  1.0000
  Fe  Fe191     1.0  0.44060  0.79698  0.11889  1.0000
  S   S390      1.0  0.42209  0.77683  0.13457  1.0000
  Fe  Fe192     1.0  0.47959  0.80078  0.11595  1.0000
  S   S391      1.0  0.50609  0.78552  0.12500  1.0000
  S   S392      1.0  0.43299  0.82495  0.10035  1.0000
  S   S393      1.0  0.47606  0.82884  0.09744  1.0000
  H   H1163     1.0  0.50154  0.77692  0.05126  1.0000
  Fe  Fe193     1.0  0.43790  0.89112  0.21420  1.0000
  N   N97       1.0  0.62232  0.73794  0.23755  1.0000
  S   S394      1.0  0.42721  0.86852  0.20846  1.0000
  H   H1164     1.0  0.41479  0.75442  0.22267  1.0000
  Fe  Fe194     1.0  0.47335  0.90300  0.21298  1.0000
  Fe  Fe195     1.0  0.59479  0.80827  0.00515  1.0000
  H   H1165     1.0  0.34872  0.49827  0.21242  1.0000
  Fe  Fe196     1.0  0.58896  0.94061  0.19293  1.0000
  S   S395      1.0  0.57981  0.92274  0.22041  1.0000
  S   S396      1.0  0.59290  0.93029  0.16649  1.0000
  Fe  Fe197     1.0  0.58986  0.97209  0.21096  1.0000
  C   C1164     1.0  0.51304  0.91124  0.21256  1.0000
  C   C1165     1.0  0.64574  0.87887  0.17059  1.0000
  H   H1166     1.0  0.54711  0.84535  0.19430  1.0000
  H   H1167     1.0  0.62271  0.83641  0.05631  1.0000
  H   H1168     1.0  0.39143  0.98414  0.23411  1.0000
  H   H1169     1.0  0.49631  0.79381  0.03097  1.0000
  S   S397      1.0  0.61174  0.94813  0.20169  1.0000
  S   S398      1.0  0.56800  0.96619  0.19935  1.0000
  H   H1170     1.0  0.60279  0.80773  0.09418  1.0000
  S   S399      1.0  0.45948  0.92188  0.23323  1.0000
  Fe  Fe198     1.0  0.34747  0.60017  0.22101  1.0000
  C   C1166     1.0  0.47890  0.76841  0.02227  1.0000
  C   C1167     1.0  0.34169  0.62489  0.16499  1.0000
  C   C1168     1.0  0.52505  0.93263  0.23078  1.0000
  H   H1171     1.0  0.65404  0.65038  0.20785  1.0000
  H   H1172     1.0  0.64687  0.87025  0.16068  1.0000
  C   C1169     1.0  0.36505  0.65429  0.23747  1.0000
  S   S400      1.0  0.55534  0.71150  0.20975  1.0000
  Fe  Fe199     1.0  0.43703  0.93092  0.21672  1.0000
  C   C1170     1.0  0.64290  0.89821  0.16498  1.0000
  S   S401      1.0  0.44190  0.66824  0.22369  1.0000
  H   H1173     1.0  0.61519  0.79135  0.06753  1.0000
  Fe  Fe200     1.0  0.44806  0.69687  0.21178  1.0000
  S   S402      1.0  0.46499  0.70657  0.18356  1.0000
  C   C1171     1.0  0.36192  0.64020  0.23027  1.0000
  S   S403      1.0  0.37320  0.61268  0.20936  1.0000
  S   S404      1.0  0.53355  0.79735  0.00290  1.0000
  C   C1172     1.0  0.53334  0.93143  0.21223  1.0000
  C   C1173     1.0  0.60566  0.77394  0.22261  1.0000
  C   C1174     1.0  0.46933  0.76906  0.05454  1.0000
  N   N98       1.0  0.48581  0.97997  0.21001  1.0000
  H   H1174     1.0  0.34857  0.63613  0.23460  1.0000
  S   S405      1.0  0.58734  0.78666  0.99425  1.0000
  C   C1175     1.0  0.50546  0.91164  0.23139  1.0000
  H   H1175     1.0  0.56490  0.84772  0.06302  1.0000
  C   C1176     1.0  0.47000  0.97621  0.18213  1.0000
  S   S406      1.0  0.60790  0.79997  0.03055  1.0000
  Fe  Fe201     1.0  0.60106  0.93186  0.22984  1.0000
  H   H1176     1.0  0.59930  0.78800  0.21665  1.0000
  C   C1177     1.0  0.39659  0.65071  0.21955  1.0000
  C   C1178     1.0  0.39342  0.63671  0.21224  1.0000
  C   C1179     1.0  0.37619  0.63120  0.21781  1.0000
  C   C1180     1.0  0.48598  0.96261  0.20762  1.0000
  H   H1177     1.0  0.47782  0.73470  0.19612  1.0000
  H   H1178     1.0  0.41000  0.65467  0.21538  1.0000
  H   H1179     1.0  0.40446  0.62991  0.20246  1.0000
  H   H1180     1.0  0.49194  0.95032  0.21670  1.0000
  N   N99       1.0  0.51874  0.67987  0.20642  1.0000
  H   H1181     1.0  0.44291  0.76147  0.06835  1.0000
  H   H1182     1.0  0.63223  0.82397  0.03776  1.0000
  C   C1181     1.0  0.63841  0.61139  0.23219  1.0000
  C   C1182     1.0  0.53315  0.65245  0.22571  1.0000
  H   H1183     1.0  0.54447  0.67713  0.21444  1.0000
  H   H1184     1.0  0.62473  0.83690  0.00715  1.0000
  H   H1185     1.0  0.57702  0.88590  0.03473  1.0000
  C   C1183     1.0  0.50406  0.67177  0.20796  1.0000
  C   C1184     1.0  0.51835  0.64402  0.22719  1.0000
  C   C1185     1.0  0.60109  0.86382  0.03824  1.0000
  N   N100      1.0  0.64349  0.88165  0.20210  1.0000
  S   S407      1.0  0.42708  0.79580  0.00482  1.0000
  H   H1186     1.0  0.62745  0.87423  0.22910  1.0000
  C   C1186     1.0  0.57569  0.83525  0.06416  1.0000
  H   H1187     1.0  0.57732  0.83155  0.03654  1.0000
  C   C1187     1.0  0.33432  0.50539  0.21330  1.0000
  C   C1188     1.0  0.43171  0.97751  0.21741  1.0000
  C   C1189     1.0  0.53717  0.85873  0.19585  1.0000
  H   H1188     1.0  0.36653  0.62872  0.17138  1.0000
  S   S408      1.0  0.41988  0.71176  0.22429  1.0000
  C   C1190     1.0  0.59712  0.81033  0.05011  1.0000
  Fe  Fe202     1.0  0.56087  0.94879  0.22769  1.0000
  N   N101      1.0  0.61411  0.85010  0.03064  1.0000
  C   C1191     1.0  0.46285  0.76234  0.02262  1.0000
  C   C1192     1.0  0.58763  0.87538  0.02847  1.0000
  H   H1189     1.0  0.45843  0.81431  0.99359  1.0000
  Fe  Fe203     1.0  0.41462  0.68311  0.23832  1.0000
  H   H1190     1.0  0.34942  0.61513  0.15604  1.0000
  C   C1193     1.0  0.34162  0.64454  0.18568  1.0000
  H   H1191     1.0  0.48201  0.75683  0.19756  1.0000
  C   C1194     1.0  0.52730  0.92077  0.20311  1.0000
  H   H1192     1.0  0.64891  0.88044  0.22874  1.0000
  H   H1193     1.0  0.49655  0.80202  0.99757  1.0000
  H   H1194     1.0  0.43702  0.75575  0.03953  1.0000
  H   H1195     1.0  0.53893  0.86885  0.18240  1.0000
  H   H1196     1.0  0.53333  0.92039  0.18858  1.0000
  H   H1197     1.0  0.54402  0.93916  0.20466  1.0000
  N   N102      1.0  0.54044  0.86605  0.21068  1.0000
  H   H1198     1.0  0.44684  0.84266  0.23548  1.0000
  C   C1195     1.0  0.43402  0.75657  0.14733  1.0000
  C   C1196     1.0  0.45349  0.75206  0.14369  1.0000
  C   C1197     1.0  0.46286  0.73634  0.15449  1.0000
  C   C1198     1.0  0.45283  0.72531  0.16933  1.0000
  C   C1199     1.0  0.43336  0.72971  0.17294  1.0000
  C   C1200     1.0  0.42398  0.74522  0.16185  1.0000
  H   H1199     1.0  0.46139  0.76070  0.13260  1.0000
  H   H1200     1.0  0.47792  0.73295  0.15153  1.0000
  H   H1201     1.0  0.42550  0.72105  0.18407  1.0000
  H   H1202     1.0  0.40892  0.74858  0.16470  1.0000
  C   C1201     1.0  0.43631  0.86475  0.14742  1.0000
  C   C1202     1.0  0.43537  0.84883  0.16146  1.0000
  C   C1203     1.0  0.43242  0.85014  0.18019  1.0000
  C   C1204     1.0  0.43081  0.86730  0.18493  1.0000
  C   C1205     1.0  0.43176  0.88325  0.17094  1.0000
  C   C1206     1.0  0.43419  0.88201  0.15223  1.0000
  H   H1203     1.0  0.43661  0.83558  0.15794  1.0000
  H   H1204     1.0  0.43149  0.83782  0.19102  1.0000
  H   H1205     1.0  0.43012  0.89659  0.17456  1.0000
  H   H1206     1.0  0.43453  0.89443  0.14145  1.0000
  C   C1207     1.0  0.43774  0.80548  0.01722  1.0000
  C   C1208     1.0  0.45344  0.81312  0.00845  1.0000
  C   C1209     1.0  0.46283  0.81903  0.01900  1.0000
  C   C1210     1.0  0.45681  0.81698  0.03837  1.0000
  C   C1211     1.0  0.44069  0.81002  0.04706  1.0000
  C   C1212     1.0  0.43109  0.80442  0.03646  1.0000
  H   H1207     1.0  0.63838  0.90925  0.20691  1.0000
  H   H1208     1.0  0.47500  0.82492  0.01220  1.0000
  H   H1209     1.0  0.43582  0.80861  0.06198  1.0000
  H   H1210     1.0  0.41882  0.79871  0.04328  1.0000
  C   C1213     1.0  0.59419  0.74879  0.17195  1.0000
  C   C1214     1.0  0.57502  0.75408  0.17267  1.0000
  C   C1215     1.0  0.56313  0.74235  0.18389  1.0000
  C   C1216     1.0  0.57038  0.72555  0.19486  1.0000
  C   C1217     1.0  0.58957  0.72021  0.19415  1.0000
  C   C1218     1.0  0.60151  0.73168  0.18242  1.0000
  H   H1211     1.0  0.56940  0.76714  0.16443  1.0000
  H   H1212     1.0  0.54830  0.74653  0.18439  1.0000
  H   H1213     1.0  0.59524  0.70713  0.20243  1.0000
  H   H1214     1.0  0.61637  0.72747  0.18169  1.0000
  C   C1219     1.0  0.60093  0.86717  0.17488  1.0000
  C   C1220     1.0  0.60261  0.87523  0.18893  1.0000
  C   C1221     1.0  0.59981  0.89460  0.18649  1.0000
  C   C1222     1.0  0.59520  0.90605  0.17004  1.0000
  C   C1223     1.0  0.59318  0.89799  0.15607  1.0000
  C   C1224     1.0  0.59592  0.87853  0.15854  1.0000
  H   H1215     1.0  0.60641  0.86646  0.20162  1.0000
  H   H1216     1.0  0.60212  0.90055  0.19699  1.0000
  H   H1217     1.0  0.58968  0.90680  0.14327  1.0000
  H   H1218     1.0  0.59467  0.87233  0.14759  1.0000
  C   C1225     1.0  0.51751  0.81056  0.16847  1.0000
  C   C1226     1.0  0.50159  0.81869  0.16095  1.0000
  C   C1227     1.0  0.49755  0.81065  0.14800  1.0000
  C   C1228     1.0  0.50920  0.79430  0.14301  1.0000
  C   C1229     1.0  0.52422  0.78548  0.15169  1.0000
  C   C1230     1.0  0.52830  0.79359  0.16446  1.0000
  H   H1219     1.0  0.49312  0.83178  0.16413  1.0000
  H   H1220     1.0  0.48597  0.81761  0.14128  1.0000
  H   H1221     1.0  0.53314  0.77273  0.14804  1.0000
  H   H1222     1.0  0.54033  0.78713  0.17065  1.0000
  C   C1231     1.0  0.58316  0.82894  0.08029  1.0000
  C   C1232     1.0  0.59700  0.81274  0.08172  1.0000
  C   C1233     1.0  0.60400  0.80350  0.06662  1.0000
  S   S409      1.0  0.42450  0.96155  0.20872  1.0000
  Fe  Fe204     1.0  0.56648  0.69764  0.23565  1.0000
  H   H1223     1.0  0.46940  0.89249  0.15528  1.0000
  H   H1224     1.0  0.63763  0.92424  0.17393  1.0000
  H   H1225     1.0  0.49248  0.67926  0.20129  1.0000
  S   S410      1.0  0.46072  0.87912  0.23021  1.0000
  H   H1226     1.0  0.48268  0.75157  0.17536  1.0000
  C   C1234     1.0  0.45318  0.76291  0.05543  1.0000
  H   H1227     1.0  0.34907  0.65015  0.19279  1.0000
  H   H1228     1.0  0.44842  0.74081  0.21890  1.0000
  N   N103      1.0  0.54532  0.79909  0.07926  1.0000
  C   C1235     1.0  0.52731  0.80869  0.08015  1.0000
  C   C1236     1.0  0.55548  0.79351  0.06313  1.0000
  C   C1237     1.0  0.51912  0.81326  0.06453  1.0000
  C   C1238     1.0  0.54766  0.79774  0.04731  1.0000
  C   C1239     1.0  0.52941  0.80782  0.04803  1.0000
  C   C1240     1.0  0.55346  0.79462  0.09588  1.0000
  H   H1229     1.0  0.51916  0.81279  0.09303  1.0000
  H   H1230     1.0  0.56976  0.78586  0.06233  1.0000
  H   H1231     1.0  0.50487  0.82094  0.06512  1.0000
  H   H1232     1.0  0.55569  0.79331  0.03452  1.0000
  H   H1233     1.0  0.52315  0.81144  0.03585  1.0000
  H   H1234     1.0  0.56845  0.78785  0.09306  1.0000
  H   H1235     1.0  0.55240  0.80752  0.10089  1.0000
  H   H1236     1.0  0.54596  0.78502  0.10719  1.0000
  N   N104      1.0  0.45558  0.75801  0.19226  1.0000
  C   C1241     1.0  0.44929  0.77215  0.17870  1.0000
  C   C1242     1.0  0.44343  0.75185  0.20801  1.0000
  C   C1243     1.0  0.43028  0.78000  0.18033  1.0000
  C   C1244     1.0  0.42436  0.75950  0.21020  1.0000
  C   C1245     1.0  0.41775  0.77353  0.19615  1.0000
  Fe  Fe205     1.0  0.33518  0.56328  0.22649  1.0000
  H   H1237     1.0  0.45894  0.77699  0.16624  1.0000
  C   C1246     1.0  0.44991  0.75962  0.03931  1.0000
  H   H1238     1.0  0.42524  0.79065  0.16913  1.0000
  H   H1239     1.0  0.40295  0.77927  0.19740  1.0000
  H   H1240     1.0  0.51570  0.70857  0.20588  1.0000
  Fe  Fe206     1.0  0.56045  0.80702  0.99283  1.0000
  H   H1241     1.0  0.49175  0.64754  0.22003  1.0000
  C   C1247     1.0  0.65457  0.63577  0.21413  1.0000
  C   C1248     1.0  0.53307  0.67053  0.21527  1.0000
  C   C1249     1.0  0.60146  0.85941  0.00287  1.0000
  C   C1250     1.0  0.47554  0.74991  0.19029  1.0000
  H   H1242     1.0  0.47784  0.94661  0.19219  1.0000
  H   H1243     1.0  0.57746  0.88184  0.00287  1.0000
  C   C1251     1.0  0.49420  0.98190  0.22471  1.0000
  N   N105      1.0  0.48201  0.77158  0.03814  1.0000
  H   H1244     1.0  0.51100  0.77138  0.02853  1.0000
  C   C1252     1.0  0.49853  0.77870  0.03723  1.0000
  C   C1253     1.0  0.58784  0.87310  0.01066  1.0000
  H   H1245     1.0  0.64943  0.85825  0.22402  1.0000
  H   H1246     1.0  0.56957  0.88949  0.21783  1.0000
  S   S411      1.0  0.34524  0.53390  0.22135  1.0000
  C   C1254     1.0  0.52970  0.86314  0.22824  1.0000
  C   C1255     1.0  0.63790  0.62994  0.22319  1.0000
  H   H1247     1.0  0.50926  0.98178  0.21932  1.0000
  H   H1248     1.0  0.64183  0.90475  0.15069  1.0000
  S   S412      1.0  0.33627  0.58798  0.20290  1.0000
  C   C1256     1.0  0.64592  0.87078  0.18933  1.0000
  N   N106      1.0  0.51130  0.85764  0.13388  1.0000
  C   C1257     1.0  0.51229  0.86433  0.14875  1.0000
  C   C1258     1.0  0.49578  0.86365  0.12621  1.0000
  C   C1259     1.0  0.49721  0.87684  0.15678  1.0000
  C   C1260     1.0  0.48065  0.87645  0.13361  1.0000
  C   C1261     1.0  0.48127  0.88288  0.14915  1.0000
  C   C1262     1.0  0.52724  0.84464  0.12554  1.0000
  H   H1249     1.0  0.52465  0.85972  0.15471  1.0000
  H   H1250     1.0  0.49493  0.85847  0.11437  1.0000
  H   H1251     1.0  0.53273  0.70001  0.18698  1.0000
  S   S413      1.0  0.46150  0.69702  0.23485  1.0000
  C   C1263     1.0  0.61450  0.84787  0.01314  1.0000
  H   H1252     1.0  0.53630  0.85243  0.11393  1.0000
  H   H1253     1.0  0.53562  0.83628  0.13601  1.0000
  H   H1254     1.0  0.52258  0.83452  0.12028  1.0000
  C   C1264     1.0  0.64230  0.87315  0.22191  1.0000
  C   C1265     1.0  0.47803  0.96044  0.19373  1.0000
  C   C1266     1.0  0.35145  0.63253  0.17358  1.0000
  S   S414      1.0  0.50376  0.89998  0.20054  1.0000
  H   H1255     1.0  0.52274  0.85636  0.19883  1.0000
  C   C1267     1.0  0.58264  0.82598  0.04914  1.0000
  H   H1256     1.0  0.51788  0.63026  0.23579  1.0000
  C   C1268     1.0  0.65547  0.59886  0.23172  1.0000
  C   C1269     1.0  0.51880  0.69899  0.19601  1.0000
  C   C1270     1.0  0.62820  0.83819  0.04100  1.0000
  H   H1257     1.0  0.46845  0.88121  0.12737  1.0000
  C   C1271     1.0  0.50365  0.65375  0.21837  1.0000
  H   H1258     1.0  0.61574  0.72976  0.21533  1.0000
  C   C1272     1.0  0.64048  0.90917  0.17807  1.0000
  H   H1259     1.0  0.48863  0.77099  0.00913  1.0000
  H   H1260     1.0  0.46000  0.76058  0.00989  1.0000
  S   S415      1.0  0.42075  0.90937  0.23422  1.0000
  H   H1261     1.0  0.60068  0.86550  0.05219  1.0000
  C   C1273     1.0  0.55840  0.88203  0.22093  1.0000
  H   H1262     1.0  0.50839  0.70375  0.18686  1.0000
  H   H1263     1.0  0.47138  0.77232  0.06692  1.0000
  H   H1264     1.0  0.54430  0.64527  0.23312  1.0000
  C   C1274     1.0  0.60684  0.75921  0.21412  1.0000
  C   C1275     1.0  0.38249  0.65936  0.23242  1.0000
  H   H1265     1.0  0.60136  0.76176  0.20156  1.0000
  S   S416      1.0  0.56693  0.82739  0.00583  1.0000
  C   C1276     1.0  0.32879  0.52337  0.21731  1.0000
  H   H1266     1.0  0.64075  0.84437  0.03738  1.0000
  H   H1267     1.0  0.62478  0.63997  0.22405  1.0000
  H   H1268     1.0  0.63528  0.70963  0.23540  1.0000
  H   H1269     1.0  0.49273  0.97022  0.23692  1.0000
  H   H1270     1.0  0.46323  0.97473  0.17170  1.0000
  C   C1277     1.0  0.44098  0.97148  0.23228  1.0000
  H   H1271     1.0  0.64727  0.85580  0.19369  1.0000
  H   H1272     1.0  0.51830  0.85596  0.23115  1.0000
  C   C1278     1.0  0.64079  0.90062  0.19670  1.0000
  H   H1273     1.0  0.44386  0.95697  0.23861  1.0000
  C   C1279     1.0  0.61270  0.77048  0.23877  1.0000
  C   C1280     1.0  0.54740  0.87938  0.23880  1.0000
  S   S417      1.0  0.43900  0.89024  0.28019  1.0000
  S   S418      1.0  0.55697  0.72683  0.29049  1.0000
  Fe  Fe207     1.0  0.59573  0.82479  0.31773  1.0000
  S   S419      1.0  0.62490  0.80971  0.30806  1.0000
  S   S420      1.0  0.57890  0.85033  0.30262  1.0000
  Fe  Fe208     1.0  0.58913  0.79580  0.35290  1.0000
  S   S421      1.0  0.61765  0.77835  0.34636  1.0000
  S   S422      1.0  0.57007  0.78704  0.37989  1.0000
  Fe  Fe209     1.0  0.62732  0.80544  0.33805  1.0000
  Fe  Fe210     1.0  0.59883  0.67723  0.25459  1.0000
  Fe  Fe211     1.0  0.61258  0.78404  0.31731  1.0000
  S   S423      1.0  0.62070  0.76046  0.30156  1.0000
  S   S424      1.0  0.59898  0.82258  0.34695  1.0000
  S   S425      1.0  0.58322  0.79945  0.32468  1.0000
  Fe  Fe212     1.0  0.48155  0.76661  0.36237  1.0000
  S   S426      1.0  0.49164  0.76229  0.33304  1.0000
  S   S427      1.0  0.49895  0.75632  0.38417  1.0000
  Fe  Fe213     1.0  0.44203  0.78403  0.35748  1.0000
  S   S428      1.0  0.44863  0.78157  0.32741  1.0000
  S   S429      1.0  0.41249  0.79647  0.36990  1.0000
  Fe  Fe214     1.0  0.46487  0.75304  0.33702  1.0000
  S   S430      1.0  0.46408  0.72648  0.32913  1.0000
  Fe  Fe215     1.0  0.47473  0.79112  0.32590  1.0000
  S   S431      1.0  0.48770  0.81018  0.30091  1.0000
  S   S432      1.0  0.45616  0.75469  0.36722  1.0000
  S   S433      1.0  0.46675  0.79630  0.35510  1.0000
  Fe  Fe216     1.0  0.34966  0.76669  0.46211  1.0000
  S   S434      1.0  0.37906  0.75396  0.44985  1.0000
  C   C1281     1.0  0.54521  0.72757  0.37570  1.0000
  H   H1274     1.0  0.43535  0.86193  0.31363  1.0000
  H   H1275     1.0  0.47845  0.81010  0.26366  1.0000
  H   H1276     1.0  0.62779  0.79272  0.40334  1.0000
  H   H1277     1.0  0.41029  0.64305  0.26168  1.0000
  C   C1282     1.0  0.36537  0.60618  0.26893  1.0000
  H   H1278     1.0  0.45436  0.83023  0.32197  1.0000
  C   C1283     1.0  0.51601  0.63020  0.28422  1.0000
  S   S435      1.0  0.42516  0.68273  0.26372  1.0000
  H   H1279     1.0  0.61171  0.78178  0.24565  1.0000
  C   C1284     1.0  0.45424  0.72935  0.30968  1.0000
  C   C1285     1.0  0.45088  0.71379  0.30520  1.0000
  C   C1286     1.0  0.44360  0.71575  0.28934  1.0000
  C   C1287     1.0  0.43928  0.73336  0.27817  1.0000
  C   C1288     1.0  0.44248  0.74892  0.28276  1.0000
  C   C1289     1.0  0.45009  0.74690  0.29839  1.0000
  H   H1280     1.0  0.45408  0.70016  0.31390  1.0000
  H   H1281     1.0  0.44115  0.70368  0.28587  1.0000
  H   H1282     1.0  0.43923  0.76254  0.27409  1.0000
  H   H1283     1.0  0.45299  0.75888  0.30149  1.0000
  C   C1290     1.0  0.40367  0.78587  0.39287  1.0000
  C   C1291     1.0  0.41524  0.77239  0.40351  1.0000
  C   C1292     1.0  0.40764  0.76298  0.42120  1.0000
  C   C1293     1.0  0.38845  0.76706  0.42838  1.0000
  C   C1294     1.0  0.37692  0.78093  0.41794  1.0000
  C   C1295     1.0  0.38453  0.79034  0.40024  1.0000
  H   H1284     1.0  0.43005  0.76910  0.39813  1.0000
  H   H1285     1.0  0.41664  0.75239  0.42928  1.0000
  H   H1286     1.0  0.36207  0.78400  0.42323  1.0000
  H   H1287     1.0  0.37549  0.80071  0.39204  1.0000
  C   C1296     1.0  0.54986  0.77972  0.38003  1.0000
  C   C1297     1.0  0.53935  0.77298  0.39730  1.0000
  C   C1298     1.0  0.52347  0.76637  0.39829  1.0000
  C   C1299     1.0  0.51767  0.76682  0.38205  1.0000
  C   C1300     1.0  0.52791  0.77391  0.36465  1.0000
  C   C1301     1.0  0.54416  0.78022  0.36363  1.0000
  H   H1288     1.0  0.54367  0.77256  0.41001  1.0000
  H   H1289     1.0  0.51569  0.76074  0.41174  1.0000
  H   H1290     1.0  0.52369  0.77389  0.35202  1.0000
  H   H1291     1.0  0.55226  0.78530  0.35023  1.0000
  H   H1292     1.0  0.52353  0.67478  0.30713  1.0000
  C   C1302     1.0  0.63636  0.83145  0.39094  1.0000
  C   C1303     1.0  0.63650  0.82489  0.37506  1.0000
  H   H1293     1.0  0.62331  0.83797  0.39871  1.0000
  H   H1294     1.0  0.62360  0.82626  0.37076  1.0000
  H   H1295     1.0  0.48172  0.72383  0.26336  1.0000
  H   H1296     1.0  0.38051  0.82514  0.45903  1.0000
  H   H1297     1.0  0.52300  0.61785  0.29249  1.0000
  C   C1304     1.0  0.57482  0.73661  0.29246  1.0000
  C   C1305     1.0  0.59323  0.72669  0.29012  1.0000
  C   C1306     1.0  0.60721  0.73417  0.29293  1.0000
  C   C1307     1.0  0.60288  0.75167  0.29787  1.0000
  C   C1308     1.0  0.58449  0.76168  0.29990  1.0000
  C   C1309     1.0  0.57046  0.75410  0.29735  1.0000
  H   H1298     1.0  0.62138  0.72626  0.29153  1.0000
  H   H1299     1.0  0.58104  0.77530  0.30330  1.0000
  H   H1300     1.0  0.55621  0.76182  0.29915  1.0000
  S   S436      1.0  0.34195  0.79759  0.45791  1.0000
  C   C1310     1.0  0.45365  0.86890  0.28720  1.0000
  C   C1311     1.0  0.47040  0.86296  0.27534  1.0000
  C   C1312     1.0  0.48113  0.84512  0.28003  1.0000
  C   C1313     1.0  0.47520  0.83318  0.29667  1.0000
  C   C1314     1.0  0.45894  0.83938  0.30903  1.0000
  C   C1315     1.0  0.44820  0.85730  0.30431  1.0000
  H   H1301     1.0  0.47513  0.87216  0.26255  1.0000
  H   H1302     1.0  0.49383  0.84044  0.27056  1.0000
  C   C1316     1.0  0.46862  0.81428  0.25393  1.0000
  C   C1317     1.0  0.52374  0.64610  0.27817  1.0000
  H   H1303     1.0  0.34858  0.83848  0.47409  1.0000
  C   C1318     1.0  0.58078  0.88323  0.27810  1.0000
  C   C1319     1.0  0.51455  0.66207  0.26753  1.0000
  C   C1320     1.0  0.44159  0.83988  0.25043  1.0000
  C   C1321     1.0  0.34081  0.84084  0.43166  1.0000
  C   C1322     1.0  0.49390  0.70314  0.28464  1.0000
  H   H1304     1.0  0.63529  0.78396  0.38228  1.0000
  H   H1305     1.0  0.42298  0.61974  0.26889  1.0000
  H   H1306     1.0  0.42935  0.70714  0.40102  1.0000
  H   H1307     1.0  0.55296  0.83815  0.33520  1.0000
  C   C1323     1.0  0.60937  0.89373  0.26183  1.0000
  H   H1308     1.0  0.49915  0.81278  0.33501  1.0000
  C   C1324     1.0  0.44400  0.82180  0.28056  1.0000
  C   C1325     1.0  0.53360  0.82790  0.36933  1.0000
  C   C1326     1.0  0.52260  0.82418  0.31820  1.0000
  C   C1327     1.0  0.58994  0.89667  0.26555  1.0000
  H   H1309     1.0  0.45143  0.81045  0.28958  1.0000
  C   C1328     1.0  0.56148  0.73397  0.37380  1.0000
  S   S437      1.0  0.54477  0.64531  0.28439  1.0000
  H   H1310     1.0  0.62936  0.60510  0.28529  1.0000
  H   H1311     1.0  0.61834  0.85140  0.29066  1.0000
  H   H1312     1.0  0.41297  0.92481  0.26784  1.0000
  C   C1329     1.0  0.61040  0.86395  0.28361  1.0000
  C   C1330     1.0  0.50976  0.73076  0.28853  1.0000
  C   C1331     1.0  0.54115  0.83249  0.33527  1.0000
  H   H1313     1.0  0.58191  0.90944  0.25901  1.0000
  H   H1314     1.0  0.53496  0.72709  0.38869  1.0000
  H   H1315     1.0  0.38696  0.82111  0.42616  1.0000
  H   H1316     1.0  0.49620  0.74853  0.26675  1.0000
  C   C1332     1.0  0.49069  0.72083  0.27332  1.0000
  Fe  Fe217     1.0  0.56066  0.66790  0.26998  1.0000
  H   H1317     1.0  0.59657  0.71301  0.28671  1.0000
  C   C1333     1.0  0.65328  0.81632  0.36500  1.0000
  C   C1334     1.0  0.61960  0.87739  0.27095  1.0000
  C   C1335     1.0  0.36508  0.62053  0.27759  1.0000
  C   C1336     1.0  0.51096  0.81835  0.33502  1.0000
  H   H1318     1.0  0.54692  0.83600  0.30528  1.0000
  H   H1319     1.0  0.51620  0.74137  0.29014  1.0000
  C   C1337     1.0  0.41003  0.97533  0.27167  1.0000
  C   C1338     1.0  0.63793  0.61472  0.27661  1.0000
  C   C1339     1.0  0.54178  0.72267  0.36049  1.0000
  H   H1320     1.0  0.56375  0.73832  0.38553  1.0000
  C   C1340     1.0  0.59097  0.86685  0.28713  1.0000
  S   S438      1.0  0.54571  0.69724  0.26250  1.0000
  H   H1321     1.0  0.42918  0.93067  0.28965  1.0000
  N   N107      1.0  0.52988  0.82638  0.35173  1.0000
  C   C1341     1.0  0.49946  0.63001  0.27936  1.0000
  Fe  Fe218     1.0  0.43293  0.70995  0.24830  1.0000
  C   C1342     1.0  0.35145  0.83758  0.45949  1.0000
  H   H1322     1.0  0.61454  0.63768  0.27322  1.0000
  N   N108      1.0  0.45110  0.82576  0.26184  1.0000
  S   S439      1.0  0.65210  0.83708  0.41738  1.0000
  C   C1343     1.0  0.49023  0.64585  0.26873  1.0000
  H   H1323     1.0  0.51982  0.82314  0.30515  1.0000
  H   H1324     1.0  0.38062  0.63934  0.28057  1.0000
  C   C1344     1.0  0.59083  0.74241  0.35524  1.0000
  C   C1345     1.0  0.35873  0.83319  0.42284  1.0000
  S   S440      1.0  0.63026  0.66837  0.24808  1.0000
  N   N109      1.0  0.57400  0.73536  0.35720  1.0000
  H   H1325     1.0  0.52415  0.86791  0.25633  1.0000
  C   C1346     1.0  0.57126  0.72956  0.34257  1.0000
  H   H1326     1.0  0.58161  0.72983  0.32974  1.0000
  Fe  Fe219     1.0  0.44467  0.89890  0.24896  1.0000
  H   H1327     1.0  0.35292  0.60061  0.27117  1.0000
  H   H1328     1.0  0.41783  0.86265  0.24880  1.0000
  C   C1347     1.0  0.37314  0.82763  0.43266  1.0000
  H   H1329     1.0  0.38185  0.58855  0.24975  1.0000
  C   C1348     1.0  0.55499  0.72345  0.34384  1.0000
  S   S441      1.0  0.47036  0.64419  0.26182  1.0000
  C   C1349     1.0  0.49763  0.66203  0.26303  1.0000
  H   H1330     1.0  0.40985  0.60169  0.24442  1.0000
  H   H1331     1.0  0.40539  0.77193  0.34639  1.0000
  H   H1332     1.0  0.49385  0.61746  0.28380  1.0000
  N   N110      1.0  0.40417  0.74871  0.36892  1.0000
  C   C1350     1.0  0.39688  0.74505  0.38764  1.0000
  C   C1351     1.0  0.41983  0.73723  0.36138  1.0000
  C   C1352     1.0  0.40582  0.73008  0.39947  1.0000
  C   C1353     1.0  0.42906  0.72205  0.37278  1.0000
  C   C1354     1.0  0.42209  0.71860  0.39197  1.0000
  C   C1355     1.0  0.39492  0.76464  0.35668  1.0000
  H   H1333     1.0  0.38435  0.75399  0.39365  1.0000
  H   H1334     1.0  0.42547  0.73995  0.34650  1.0000
  H   H1335     1.0  0.40032  0.72771  0.41441  1.0000
  H   H1336     1.0  0.52886  0.71839  0.36163  1.0000
  H   H1337     1.0  0.50511  0.92312  0.25490  1.0000
  C   C1356     1.0  0.38162  0.59931  0.25702  1.0000
  C   C1357     1.0  0.41378  0.62852  0.25933  1.0000
  S   S442      1.0  0.34882  0.57435  0.24335  1.0000
  N   N111      1.0  0.33738  0.84298  0.44974  1.0000
  C   C1358     1.0  0.42508  0.85119  0.25788  1.0000
  C   C1359     1.0  0.42746  0.83275  0.28847  1.0000
  C   C1360     1.0  0.62951  0.63319  0.26982  1.0000
  H   H1338     1.0  0.56574  0.88565  0.28097  1.0000
  H   H1339     1.0  0.50274  0.68162  0.32416  1.0000
  N   N112      1.0  0.40160  0.97194  0.25921  1.0000
  H   H1340     1.0  0.45276  0.97956  0.25137  1.0000
  H   H1341     1.0  0.44175  0.71329  0.36673  1.0000
  H   H1342     1.0  0.50164  0.67090  0.30586  1.0000
  H   H1343     1.0  0.48729  0.69257  0.28327  1.0000
  H   H1344     1.0  0.35405  0.66100  0.24736  1.0000
  H   H1345     1.0  0.58844  0.75237  0.36462  1.0000
  C   C1361     1.0  0.53777  0.83136  0.31828  1.0000
  H   H1346     1.0  0.52157  0.70989  0.30963  1.0000
  H   H1347     1.0  0.54885  0.82530  0.36869  1.0000
  S   S443      1.0  0.58069  0.67494  0.28328  1.0000
  S   S444      1.0  0.58685  0.70771  0.24559  1.0000
  C   C1362     1.0  0.49867  0.73472  0.27533  1.0000
  H   H1348     1.0  0.52815  0.81730  0.38114  1.0000
  C   C1363     1.0  0.63648  0.78065  0.39717  1.0000
  H   H1349     1.0  0.55262  0.71949  0.33192  1.0000
  H   H1350     1.0  0.52049  0.67435  0.26267  1.0000
  C   C1364     1.0  0.51474  0.81965  0.35177  1.0000
  H   H1351     1.0  0.39592  0.95134  0.24785  1.0000
  H   H1352     1.0  0.52712  0.84201  0.37230  1.0000
  N   N113      1.0  0.39695  0.62107  0.26241  1.0000
  Fe  Fe220     1.0  0.56723  0.70456  0.27328  1.0000
  N   N114      1.0  0.50487  0.69935  0.29751  1.0000
  H   H1353     1.0  0.50571  0.81487  0.36480  1.0000
  C   C1365     1.0  0.50833  0.68076  0.30927  1.0000
  H   H1354     1.0  0.35240  0.62621  0.28657  1.0000
  H   H1355     1.0  0.49069  0.67425  0.25464  1.0000
  C   C1366     1.0  0.51274  0.71290  0.29956  1.0000
  C   C1367     1.0  0.41812  0.84771  0.27705  1.0000
  C   C1368     1.0  0.41223  0.93900  0.26891  1.0000
  S   S445      1.0  0.43024  0.73630  0.25823  1.0000
  C   C1369     1.0  0.64046  0.64568  0.25843  1.0000
  H   H1356     1.0  0.59508  0.75011  0.34077  1.0000
  H   H1357     1.0  0.38671  0.75987  0.34921  1.0000
  H   H1358     1.0  0.40558  0.85666  0.28303  1.0000
  H   H1359     1.0  0.36128  0.83103  0.40868  1.0000
  H   H1360     1.0  0.42224  0.82995  0.30342  1.0000
  H   H1361     1.0  0.42157  0.62908  0.24469  1.0000
  H   H1362     1.0  0.60246  0.73068  0.35854  1.0000
  H   H1363     1.0  0.62657  0.74979  0.25859  1.0000
  H   H1364     1.0  0.63075  0.76802  0.40430  1.0000
  Fe  Fe221     1.0  0.45281  0.66991  0.24804  1.0000
  C   C1370     1.0  0.40246  0.95404  0.25784  1.0000
  C   C1371     1.0  0.42127  0.94232  0.28129  1.0000
  H   H1365     1.0  0.38556  0.77516  0.36466  1.0000
  C   C1372     1.0  0.38110  0.62784  0.27418  1.0000
  C   C1373     1.0  0.36954  0.82990  0.45108  1.0000
  C   C1374     1.0  0.42017  0.96060  0.28274  1.0000
  H   H1366     1.0  0.65684  0.87648  0.40777  1.0000
  S   S446      1.0  0.65390  0.80599  0.34630  1.0000
  C   C1375     1.0  0.39740  0.60689  0.25398  1.0000
  H   H1367     1.0  0.63462  0.87513  0.26826  1.0000
  C   C1376     1.0  0.65980  0.78093  0.41435  1.0000
  H   H1368     1.0  0.42726  0.96336  0.29223  1.0000
  C   C1377     1.0  0.62106  0.75230  0.24607  1.0000
  H   H1369     1.0  0.64328  0.71882  0.25089  1.0000
  H   H1370     1.0  0.46585  0.80160  0.25121  1.0000
  H   H1371     1.0  0.64870  0.78663  0.42488  1.0000
  C   C1378     1.0  0.65729  0.60851  0.27185  1.0000
  C   C1379     1.0  0.65294  0.82929  0.39700  1.0000
  H   H1372     1.0  0.62061  0.71286  0.25753  1.0000
  H   H1373     1.0  0.54996  0.88492  0.24964  1.0000
  C   C1380     1.0  0.63079  0.71893  0.24571  1.0000
  C   C1381     1.0  0.51129  0.92251  0.24045  1.0000
  N   N115      1.0  0.65590  0.77762  0.39890  1.0000
  C   C1382     1.0  0.53296  0.86983  0.24255  1.0000
  S   S447      1.0  0.38642  0.67549  0.24353  1.0000
  S   S448      1.0  0.62094  0.91012  0.24538  1.0000
  H   H1374     1.0  0.40949  0.98953  0.27265  1.0000
  C   C1383     1.0  0.39108  0.98754  0.24771  1.0000
  S   S449      1.0  0.57996  0.66746  0.24211  1.0000
  C   C1384     1.0  0.65988  0.63965  0.25419  1.0000
  S   S450      1.0  0.53149  0.94723  0.24162  1.0000
  C   C1385     1.0  0.44579  0.98438  0.23970  1.0000
  S   S451      1.0  0.58112  0.95638  0.24007  1.0000
  H   H1375     1.0  0.47569  0.82209  0.24066  1.0000
  H   H1376     1.0  0.32956  0.84445  0.42414  1.0000
  H   H1377     1.0  0.53483  0.98816  0.23939  1.0000
  H   H1378     1.0  0.37639  0.99092  0.25512  1.0000
  H   H1379     1.0  0.49511  0.90352  0.23902  1.0000
  H   H1380     1.0  0.62568  0.60688  0.24003  1.0000
  H   H1381     1.0  0.65610  0.58454  0.23919  1.0000
  C   C1386     1.0  0.57606  0.79263  0.71393  1.0000
  S   S452      1.0  0.60731  0.82289  0.71756  1.0000
  C   C1387     1.0  0.38347  0.86872  0.70165  1.0000
  C   C1388     1.0  0.43202  0.86848  0.67384  1.0000
  C   C1389     1.0  0.33759  0.73871  0.65432  1.0000
  S   S453      1.0  0.43558  0.87292  0.72510  1.0000
  S   S454      1.0  0.59144  0.86576  0.72562  1.0000
  S   S455      1.0  0.55646  0.84720  0.70902  1.0000
  Fe  Fe222     1.0  0.61918  0.84592  0.72078  1.0000
  S   S456      1.0  0.64570  0.85429  0.70251  1.0000
  H   H1382     1.0  0.64634  0.88805  0.66347  1.0000
  C   C1390     1.0  0.33685  0.81958  0.53343  1.0000
  H   H1383     1.0  0.37509  0.87248  0.71460  1.0000
  S   S457      1.0  0.41769  0.82909  0.72100  1.0000
  C   C1391     1.0  0.35516  0.79518  0.55297  1.0000
  C   C1392     1.0  0.41026  0.81596  0.65057  1.0000
  S   S458      1.0  0.46140  0.83175  0.70109  1.0000
  C   C1393     1.0  0.40181  0.87139  0.69573  1.0000
  N   N116      1.0  0.41270  0.86602  0.67977  1.0000
  Fe  Fe223     1.0  0.44022  0.81624  0.69957  1.0000
  S   S459      1.0  0.35868  0.82552  0.60464  1.0000
  C   C1394     1.0  0.53822  0.82067  0.73335  1.0000
  H   H1384     1.0  0.36456  0.76887  0.54405  1.0000
  H   H1385     1.0  0.43305  0.88089  0.66247  1.0000
  C   C1395     1.0  0.33830  0.76361  0.66862  1.0000
  C   C1396     1.0  0.39991  0.80864  0.68402  1.0000
  C   C1397     1.0  0.38290  0.80636  0.68150  1.0000
  H   H1386     1.0  0.40235  0.80666  0.69792  1.0000
  H   H1387     1.0  0.37237  0.80256  0.69357  1.0000
  H   H1388     1.0  0.64335  0.87493  0.63762  1.0000
  C   C1398     1.0  0.53861  0.83447  0.71714  1.0000
  N   N117      1.0  0.56106  0.78840  0.71017  1.0000
  Fe  Fe224     1.0  0.43948  0.84275  0.72398  1.0000
  H   H1389     1.0  0.56283  0.78967  0.68148  1.0000
  C   C1399     1.0  0.51167  0.82646  0.71151  1.0000
  C   C1400     1.0  0.52504  0.83763  0.70651  1.0000
  C   C1401     1.0  0.39319  0.81380  0.64806  1.0000
  S   S460      1.0  0.35785  0.80569  0.66125  1.0000
  H   H1390     1.0  0.50176  0.82850  0.70277  1.0000
  H   H1391     1.0  0.52521  0.84838  0.69401  1.0000
  C   C1402     1.0  0.55214  0.77525  0.72243  1.0000
  C   C1403     1.0  0.64612  0.83730  0.67401  1.0000
  C   C1404     1.0  0.33805  0.80728  0.52188  1.0000
  Fe  Fe225     1.0  0.35026  0.80303  0.59588  1.0000
  S   S461      1.0  0.45090  0.79080  0.71984  1.0000
  S   S462      1.0  0.49785  0.79555  0.73138  1.0000
  H   H1392     1.0  0.63204  0.83587  0.68075  1.0000
  H   H1393     1.0  0.64636  0.82556  0.65073  1.0000
  C   C1405     1.0  0.35684  0.78304  0.54109  1.0000
  C   C1406     1.0  0.58225  0.78387  0.73051  1.0000
  H   H1394     1.0  0.43737  0.87027  0.68556  1.0000
  C   C1407     1.0  0.38723  0.85598  0.67440  1.0000
  C   C1408     1.0  0.34823  0.78905  0.52560  1.0000
  H   H1395     1.0  0.39073  0.81576  0.63415  1.0000
  Fe  Fe226     1.0  0.57950  0.84177  0.72473  1.0000
  C   C1409     1.0  0.65424  0.83156  0.65694  1.0000
  H   H1396     1.0  0.40741  0.87734  0.70423  1.0000
  C   C1410     1.0  0.37622  0.86083  0.69095  1.0000
  C   C1411     1.0  0.37946  0.80890  0.66354  1.0000
  S   S463      1.0  0.43503  0.81703  0.67110  1.0000
  C   C1412     1.0  0.41371  0.81336  0.66854  1.0000
  Fe  Fe227     1.0  0.46974  0.80767  0.72357  1.0000
  H   H1397     1.0  0.42085  0.81963  0.63851  1.0000
  C   C1413     1.0  0.65564  0.88031  0.63655  1.0000
  S   S464      1.0  0.33604  0.76236  0.49263  1.0000
  H   H1398     1.0  0.38184  0.84962  0.66606  1.0000
  H   H1399     1.0  0.53982  0.79838  0.69409  1.0000
  Fe  Fe228     1.0  0.34783  0.81137  0.63402  1.0000
  H   H1400     1.0  0.34935  0.77950  0.51671  1.0000
  H   H1401     1.0  0.36215  0.85834  0.69551  1.0000
  S   S465      1.0  0.36493  0.78710  0.57303  1.0000
  C   C1414     1.0  0.40553  0.85876  0.66895  1.0000
  H   H1402     1.0  0.34461  0.82320  0.55761  1.0000
  H   H1403     1.0  0.34623  0.77080  0.67354  1.0000
  C   C1415     1.0  0.34755  0.74776  0.66118  1.0000
  H   H1404     1.0  0.36243  0.74286  0.66032  1.0000
  C   C1416     1.0  0.51196  0.81194  0.72708  1.0000
  H   H1405     1.0  0.54009  0.77206  0.71957  1.0000
  H   H1406     1.0  0.55719  0.81209  0.68824  1.0000
  C   C1417     1.0  0.34537  0.81354  0.54894  1.0000
  C   C1418     1.0  0.55498  0.79752  0.69260  1.0000
  S   S466      1.0  0.34201  0.78752  0.62510  1.0000
  H   H1407     1.0  0.41417  0.85449  0.65630  1.0000
  H   H1408     1.0  0.44123  0.85596  0.66881  1.0000
  C   C1419     1.0  0.65732  0.88770  0.65104  1.0000
  H   H1409     1.0  0.58309  0.80312  0.70424  1.0000
  H   H1410     1.0  0.59409  0.78727  0.73354  1.0000
  C   C1420     1.0  0.65603  0.84535  0.68202  1.0000
  H   H1411     1.0  0.50190  0.85886  0.73322  1.0000
  C   C1421     1.0  0.52492  0.80939  0.73828  1.0000
  H   H1412     1.0  0.34465  0.72667  0.64810  1.0000
  H   H1413     1.0  0.32915  0.83375  0.53053  1.0000
  Fe  Fe229     1.0  0.32879  0.84021  0.60510  1.0000
  Fe  Fe230     1.0  0.44559  0.94044  0.81512  1.0000
  S   S467      1.0  0.46451  0.92910  0.83539  1.0000
  Fe  Fe231     1.0  0.44014  0.90200  0.81514  1.0000
  S   S468      1.0  0.45889  0.88772  0.83541  1.0000
  S   S469      1.0  0.42710  0.88185  0.80796  1.0000
  Fe  Fe232     1.0  0.44414  0.91093  0.85049  1.0000
  S   S470      1.0  0.43675  0.90608  0.88169  1.0000
  Fe  Fe233     1.0  0.47723  0.90719  0.81834  1.0000
  S   S471      1.0  0.50820  0.89913  0.81120  1.0000
  S   S472      1.0  0.42383  0.92399  0.83168  1.0000
  S   S473      1.0  0.45998  0.91968  0.79660  1.0000
  Fe  Fe234     1.0  0.56035  0.93084  0.86323  1.0000
  S   S474      1.0  0.56639  0.95142  0.83665  1.0000
  S   S475      1.0  0.53321  0.92144  0.87431  1.0000
  Fe  Fe235     1.0  0.59797  0.92641  0.87214  1.0000
  S   S476      1.0  0.60755  0.94663  0.84625  1.0000
  S   S477      1.0  0.61611  0.91067  0.89264  1.0000
  Fe  Fe236     1.0  0.57893  0.96411  0.85318  1.0000
  H   H1414     1.0  0.58640  0.79949  0.81535  1.0000
  Fe  Fe237     1.0  0.59429  0.93203  0.83207  1.0000
  S   S478      1.0  0.60865  0.92403  0.80428  1.0000
  S   S479      1.0  0.57045  0.94499  0.88023  1.0000
  S   S480      1.0  0.58715  0.91041  0.85749  1.0000
  H   H1415     1.0  0.47614  0.89317  0.89515  1.0000
  H   H1416     1.0  0.52741  0.74676  0.94639  1.0000
  H   H1417     1.0  0.62103  0.69965  0.90471  1.0000
  H   H1418     1.0  0.52502  0.64433  0.85243  1.0000
  Fe  Fe238     1.0  0.59707  0.80287  0.96572  1.0000
  S   S481      1.0  0.56947  0.82202  0.96373  1.0000
  S   S482      1.0  0.61129  0.79017  0.94032  1.0000
  H   H1419     1.0  0.61226  0.95974  0.87916  1.0000
  S   S483      1.0  0.57171  0.87147  0.96860  1.0000
  H   H1420     1.0  0.36835  0.63755  0.90481  1.0000
  H   H1421     1.0  0.50314  0.94019  0.83419  1.0000
  C   C1422     1.0  0.48353  0.86468  0.75884  1.0000
  Fe  Fe239     1.0  0.58999  0.85290  0.75595  1.0000
  Fe  Fe240     1.0  0.43450  0.80975  0.93481  1.0000
  S   S484      1.0  0.41754  0.82642  0.91361  1.0000
  Fe  Fe241     1.0  0.47317  0.79750  0.94286  1.0000
  S   S485      1.0  0.50250  0.80131  0.93219  1.0000
  Fe  Fe242     1.0  0.45024  0.76888  0.94737  1.0000
  S   S486      1.0  0.45148  0.74018  0.94343  1.0000
  S   S487      1.0  0.45995  0.79036  0.92322  1.0000
  Fe  Fe243     1.0  0.57394  0.72514  0.89992  1.0000
  S   S488      1.0  0.58436  0.69444  0.90176  1.0000
  S   S489      1.0  0.56730  0.73571  0.92666  1.0000
  Fe  Fe244     1.0  0.57158  0.73143  0.85937  1.0000
  S   S490      1.0  0.58199  0.70116  0.85771  1.0000
  S   S491      1.0  0.56009  0.75374  0.83689  1.0000
  Fe  Fe245     1.0  0.56276  0.69606  0.88559  1.0000
  S   S492      1.0  0.54750  0.67241  0.89693  1.0000
  Fe  Fe246     1.0  0.60267  0.70198  0.87404  1.0000
  S   S493      1.0  0.63338  0.68891  0.86812  1.0000
  S   S494      1.0  0.55073  0.72610  0.88615  1.0000
  S   S495      1.0  0.59393  0.73290  0.87328  1.0000
  S   S496      1.0  0.33805  0.58069  0.82738  1.0000
  N   N118      1.0  0.45786  0.77165  0.79278  1.0000
  C   C1423     1.0  0.38556  0.71853  0.80300  1.0000
  H   H1422     1.0  0.49660  0.94548  0.80278  1.0000
  C   C1424     1.0  0.53743  0.79530  0.96646  1.0000
  S   S497      1.0  0.41233  0.79018  0.76677  1.0000
  C   C1425     1.0  0.60111  0.83837  0.81091  1.0000
  H   H1423     1.0  0.65489  0.73106  0.88419  1.0000
  Fe  Fe247     1.0  0.41535  0.67894  0.86020  1.0000
  S   S498      1.0  0.44290  0.66829  0.84266  1.0000
  H   H1424     1.0  0.38462  0.81507  0.90670  1.0000
  Fe  Fe248     1.0  0.42876  0.71244  0.86434  1.0000
  S   S499      1.0  0.45726  0.70433  0.84740  1.0000
  S   S500      1.0  0.42181  0.74031  0.87269  1.0000
  Fe  Fe249     1.0  0.44223  0.69822  0.82846  1.0000
  S   S501      1.0  0.45113  0.70780  0.79754  1.0000
  Fe  Fe250     1.0  0.45550  0.67551  0.86329  1.0000
  S   S502      1.0  0.47943  0.65551  0.87473  1.0000
  S   S503      1.0  0.41371  0.70837  0.84424  1.0000
  S   S504      1.0  0.42790  0.68397  0.88207  1.0000
  C   C1426     1.0  0.42235  0.76690  0.77483  1.0000
  C   C1427     1.0  0.41781  0.75916  0.79380  1.0000
  C   C1428     1.0  0.42688  0.74118  0.80089  1.0000
  C   C1429     1.0  0.44003  0.73057  0.78897  1.0000
  C   C1430     1.0  0.44412  0.73807  0.76988  1.0000
  C   C1431     1.0  0.43535  0.75624  0.76283  1.0000
  H   H1425     1.0  0.45417  0.72987  0.76053  1.0000
  H   H1426     1.0  0.42824  0.77301  0.84240  1.0000
  S   S505      1.0  0.60774  0.82247  0.97660  1.0000
  C   C1432     1.0  0.61368  0.98818  0.89947  1.0000
  C   C1433     1.0  0.49684  0.95721  0.80850  1.0000
  H   H1427     1.0  0.62076  0.75447  0.79403  1.0000
  C   C1434     1.0  0.43357  0.78783  0.81387  1.0000
  C   C1435     1.0  0.40015  0.63831  0.84965  1.0000
  C   C1436     1.0  0.39711  0.62344  0.84355  1.0000
  H   H1428     1.0  0.41416  0.64038  0.84775  1.0000
  H   H1429     1.0  0.40884  0.61418  0.83685  1.0000
  C   C1437     1.0  0.52704  0.67011  0.89146  1.0000
  C   C1438     1.0  0.51774  0.68328  0.87840  1.0000
  C   C1439     1.0  0.50225  0.67962  0.87374  1.0000
  C   C1440     1.0  0.49632  0.66275  0.88203  1.0000
  C   C1441     1.0  0.50540  0.65006  0.89539  1.0000
  C   C1442     1.0  0.52047  0.65381  0.90023  1.0000
  H   H1430     1.0  0.52269  0.69598  0.87162  1.0000
  H   H1431     1.0  0.49538  0.68944  0.86328  1.0000
  H   H1432     1.0  0.50092  0.63703  0.90184  1.0000
  H   H1433     1.0  0.52745  0.64366  0.91043  1.0000
  C   C1443     1.0  0.57526  0.76163  0.81631  1.0000
  C   C1444     1.0  0.59431  0.75383  0.81312  1.0000
  C   C1445     1.0  0.60603  0.76058  0.79650  1.0000
  C   C1446     1.0  0.57974  0.78300  0.78637  1.0000
  C   C1447     1.0  0.56801  0.77614  0.80286  1.0000
  H   H1434     1.0  0.59997  0.74255  0.82340  1.0000
  H   H1435     1.0  0.47096  0.87728  0.87279  1.0000
  H   H1436     1.0  0.55325  0.78213  0.80525  1.0000
  C   C1448     1.0  0.64093  0.66462  0.87523  1.0000
  C   C1449     1.0  0.62873  0.65351  0.88693  1.0000
  C   C1450     1.0  0.63529  0.63432  0.89285  1.0000
  C   C1451     1.0  0.58837  0.64911  0.86773  1.0000
  N   N119      1.0  0.50052  0.96890  0.83383  1.0000
  C   C1452     1.0  0.54645  0.66030  0.84617  1.0000
  H   H1437     1.0  0.61432  0.65973  0.89162  1.0000
  H   H1438     1.0  0.61690  0.85929  0.80817  1.0000
  C   C1453     1.0  0.41393  0.70320  0.78530  1.0000
  C   C1454     1.0  0.46117  0.75691  0.80710  1.0000
  C   C1455     1.0  0.44442  0.74019  0.92305  1.0000
  C   C1456     1.0  0.43900  0.75691  0.91099  1.0000
  H   H1439     1.0  0.46125  0.85176  0.86778  1.0000
  C   C1457     1.0  0.43201  0.73993  0.89119  1.0000
  C   C1458     1.0  0.43791  0.72315  0.90294  1.0000
  C   C1459     1.0  0.44410  0.72329  0.91888  1.0000
  H   H1440     1.0  0.43727  0.71008  0.90006  1.0000
  H   H1441     1.0  0.44837  0.71030  0.92812  1.0000
  C   C1460     1.0  0.59840  0.77597  0.93593  1.0000
  C   C1461     1.0  0.58482  0.76874  0.95013  1.0000
  C   C1462     1.0  0.57500  0.75691  0.94685  1.0000
  C   C1463     1.0  0.57876  0.75208  0.92937  1.0000
  C   C1464     1.0  0.59214  0.75954  0.91497  1.0000
  C   C1465     1.0  0.60196  0.77149  0.91826  1.0000
  H   H1442     1.0  0.58208  0.77198  0.96380  1.0000
  H   H1443     1.0  0.56463  0.75126  0.95804  1.0000
  H   H1444     1.0  0.59508  0.75592  0.90143  1.0000
  H   H1445     1.0  0.61241  0.77712  0.90719  1.0000
  C   C1466     1.0  0.49739  0.98671  0.82377  1.0000
  C   C1467     1.0  0.41329  0.68706  0.79902  1.0000
  C   C1468     1.0  0.49912  0.80125  0.96882  1.0000
  C   C1469     1.0  0.51137  0.79955  0.95181  1.0000
  C   C1470     1.0  0.53056  0.79638  0.95062  1.0000
  H   H1446     1.0  0.36588  0.68812  0.83730  1.0000
  H   H1447     1.0  0.59768  0.63525  0.87064  1.0000
  H   H1448     1.0  0.48428  0.80381  0.96975  1.0000
  H   H1449     1.0  0.54009  0.79452  0.93759  1.0000
  C   C1471     1.0  0.50477  0.96534  0.85241  1.0000
  H   H1450     1.0  0.48165  0.87513  0.92634  1.0000
  H   H1451     1.0  0.53966  0.67151  0.83654  1.0000
  C   C1472     1.0  0.47664  0.87829  0.89881  1.0000
  C   C1473     1.0  0.35413  0.59436  0.89869  1.0000
  H   H1452     1.0  0.57371  0.82058  0.82297  1.0000
  C   C1474     1.0  0.60772  0.90204  0.78064  1.0000
  C   C1475     1.0  0.59879  0.77530  0.78319  1.0000
  H   H1453     1.0  0.61907  0.90798  0.77134  1.0000
  C   C1476     1.0  0.60373  0.89963  0.91363  1.0000
  C   C1477     1.0  0.58625  0.90871  0.92192  1.0000
  C   C1478     1.0  0.57662  0.89995  0.93886  1.0000
  C   C1479     1.0  0.58414  0.88187  0.94732  1.0000
  C   C1480     1.0  0.60148  0.87261  0.93890  1.0000
  C   C1481     1.0  0.61140  0.88163  0.92222  1.0000
  H   H1454     1.0  0.58030  0.92263  0.91551  1.0000
  H   H1455     1.0  0.56323  0.90717  0.94539  1.0000
  H   H1456     1.0  0.60741  0.85869  0.94541  1.0000
  H   H1457     1.0  0.62497  0.87460  0.91588  1.0000
  S   S506      1.0  0.57615  0.86564  0.78120  1.0000
  C   C1482     1.0  0.62234  0.70840  0.91350  1.0000
  H   H1458     1.0  0.42447  0.67491  0.79795  1.0000
  C   C1483     1.0  0.38850  0.77084  0.90465  1.0000
  H   H1459     1.0  0.38177  0.80597  0.88811  1.0000
  H   H1460     1.0  0.62584  0.62585  0.90209  1.0000
  C   C1484     1.0  0.56304  0.66138  0.85038  1.0000
  H   H1461     1.0  0.41614  0.85104  0.87817  1.0000
  C   C1485     1.0  0.36397  0.63231  0.85495  1.0000
  H   H1462     1.0  0.55222  0.79258  0.96566  1.0000
  C   C1486     1.0  0.42934  0.88012  0.78473  1.0000
  C   C1487     1.0  0.43588  0.89347  0.76969  1.0000
  H   H1463     1.0  0.40472  0.96842  0.83004  1.0000
  C   C1488     1.0  0.49321  0.97534  0.79830  1.0000
  C   C1489     1.0  0.42636  0.86262  0.76309  1.0000
  C   C1490     1.0  0.42452  0.86477  0.78137  1.0000
  H   H1464     1.0  0.43949  0.90542  0.77220  1.0000
  H   H1465     1.0  0.56904  0.67354  0.84375  1.0000
  C   C1491     1.0  0.42943  0.88486  0.89107  1.0000
  H   H1466     1.0  0.62633  0.74001  0.94456  1.0000
  H   H1467     1.0  0.57965  0.90352  0.82325  1.0000
  C   C1492     1.0  0.42138  0.84920  0.90534  1.0000
  C   C1493     1.0  0.42633  0.85837  0.91669  1.0000
  C   C1494     1.0  0.43006  0.87631  0.90965  1.0000
  H   H1468     1.0  0.42701  0.85178  0.93098  1.0000
  H   H1469     1.0  0.43391  0.88336  0.91846  1.0000
  C   C1495     1.0  0.51645  0.90291  0.82926  1.0000
  C   C1496     1.0  0.50549  0.90141  0.84728  1.0000
  C   C1497     1.0  0.51097  0.90663  0.86128  1.0000
  C   C1498     1.0  0.52737  0.91336  0.85725  1.0000
  C   C1499     1.0  0.53848  0.91450  0.83935  1.0000
  C   C1500     1.0  0.53306  0.90922  0.82535  1.0000
  H   H1470     1.0  0.49261  0.89660  0.85032  1.0000
  H   H1471     1.0  0.50229  0.90594  0.87507  1.0000
  H   H1472     1.0  0.55101  0.91993  0.83612  1.0000
  H   H1473     1.0  0.54135  0.91076  0.81133  1.0000
  S   S507      1.0  0.42369  0.78763  0.95770  1.0000
  H   H1474     1.0  0.47456  0.75678  0.77163  1.0000
  N   N120      1.0  0.56629  0.86310  0.90908  1.0000
  C   C1501     1.0  0.58365  0.85232  0.90988  1.0000
  C   C1502     1.0  0.55112  0.85504  0.91328  1.0000
  C   C1503     1.0  0.58620  0.83289  0.91455  1.0000
  C   C1504     1.0  0.55316  0.83565  0.91809  1.0000
  C   C1505     1.0  0.57085  0.82453  0.91861  1.0000
  C   C1506     1.0  0.56366  0.88344  0.90413  1.0000
  H   H1475     1.0  0.59563  0.85870  0.90696  1.0000
  H   H1476     1.0  0.53734  0.86365  0.91297  1.0000
  H   H1477     1.0  0.59995  0.82437  0.91535  1.0000
  H   H1478     1.0  0.54109  0.82927  0.92161  1.0000
  C   C1507     1.0  0.32987  0.51301  0.83996  1.0000
  H   H1479     1.0  0.57711  0.88812  0.89866  1.0000
  H   H1480     1.0  0.55532  0.88908  0.89308  1.0000
  H   H1481     1.0  0.55632  0.88958  0.91658  1.0000
  H   H1482     1.0  0.56677  0.88122  0.81374  1.0000
  H   H1483     1.0  0.61707  0.79890  0.79414  1.0000
  H   H1484     1.0  0.45298  0.74548  0.83648  1.0000
  C   C1508     1.0  0.56318  0.63265  0.87202  1.0000
  H   H1485     1.0  0.32809  0.56397  0.79960  1.0000
  N   N121      1.0  0.63435  0.72039  0.90689  1.0000
  C   C1509     1.0  0.63358  0.83579  0.79624  1.0000
  C   C1510     1.0  0.65401  0.62603  0.88696  1.0000
  Fe  Fe251     1.0  0.44010  0.79518  0.97462  1.0000
  S   S508      1.0  0.61863  0.83514  0.75143  1.0000
  H   H1486     1.0  0.44165  0.79868  0.78468  1.0000
  C   C1511     1.0  0.34567  0.62349  0.90925  1.0000
  C   C1512     1.0  0.46922  0.77127  0.77399  1.0000
  C   C1513     1.0  0.44444  0.78707  0.79602  1.0000
  H   H1487     1.0  0.54853  0.81821  0.74172  1.0000
  C   C1514     1.0  0.57823  0.88698  0.80445  1.0000
  C   C1515     1.0  0.45061  0.75726  0.82516  1.0000
  H   H1488     1.0  0.38898  0.74133  0.91050  1.0000
  H   H1489     1.0  0.62241  0.95221  0.89962  1.0000
  H   H1490     1.0  0.38646  0.97392  0.84967  1.0000
  H   H1491     1.0  0.42264  0.79992  0.81621  1.0000
  Fe  Fe252     1.0  0.33483  0.55495  0.84929  1.0000
  C   C1516     1.0  0.40008  0.71911  0.78733  1.0000
  H   H1492     1.0  0.65332  0.70738  0.88569  1.0000
  H   H1493     1.0  0.33524  0.63418  0.91545  1.0000
  H   H1494     1.0  0.59646  0.65797  0.85617  1.0000
  H   H1495     1.0  0.60654  0.88512  0.76191  1.0000
  H   H1496     1.0  0.40081  0.76259  0.95288  1.0000
  C   C1517     1.0  0.39693  0.76490  0.93951  1.0000
  C   C1518     1.0  0.54665  0.63108  0.86806  1.0000
  N   N122      1.0  0.38471  0.70245  0.81608  1.0000
  H   H1497     1.0  0.52008  0.96274  0.85127  1.0000
  C   C1519     1.0  0.52515  0.79745  0.98339  1.0000
  H   H1498     1.0  0.37394  0.70529  0.84417  1.0000
  H   H1499     1.0  0.56927  0.62210  0.88262  1.0000
  C   C1520     1.0  0.39851  0.68694  0.81443  1.0000
  C   C1521     1.0  0.36955  0.70211  0.83256  1.0000
  S   S509      1.0  0.46588  0.77415  0.96633  1.0000
  C   C1522     1.0  0.61712  0.81187  0.79777  1.0000
  H   H1500     1.0  0.47169  0.74459  0.80456  1.0000
  Fe  Fe253     1.0  0.60458  0.81364  0.74859  1.0000
  C   C1523     1.0  0.61138  0.70748  0.93148  1.0000
  H   H1501     1.0  0.37509  0.73108  0.80468  1.0000
  C   C1524     1.0  0.53825  0.64501  0.85506  1.0000
  N   N123      1.0  0.51404  0.73630  0.93051  1.0000
  C   C1525     1.0  0.52533  0.71900  0.93298  1.0000
  C   C1526     1.0  0.49921  0.73950  0.92213  1.0000
  C   C1527     1.0  0.52171  0.70429  0.92727  1.0000
  C   C1528     1.0  0.49526  0.72513  0.91617  1.0000
  C   C1529     1.0  0.50654  0.70741  0.91885  1.0000
  C   C1530     1.0  0.51827  0.75176  0.93600  1.0000
  H   H1502     1.0  0.53730  0.71650  0.93928  1.0000
  H   H1503     1.0  0.49024  0.75319  0.92014  1.0000
  H   H1504     1.0  0.53073  0.69061  0.92914  1.0000
  H   H1505     1.0  0.48340  0.72769  0.90968  1.0000
  H   H1506     1.0  0.50355  0.69613  0.91438  1.0000
  H   H1507     1.0  0.50534  0.76063  0.94239  1.0000
  H   H1508     1.0  0.35003  0.58222  0.89713  1.0000
  H   H1509     1.0  0.52556  0.76049  0.92361  1.0000
  C   C1531     1.0  0.46871  0.84155  0.87819  1.0000
  H   H1510     1.0  0.47551  0.82602  0.91198  1.0000
  H   H1511     1.0  0.45944  0.83161  0.88576  1.0000
  N   N124      1.0  0.47263  0.85079  0.89121  1.0000
  N   N125      1.0  0.37220  0.59648  0.89257  1.0000
  H   H1512     1.0  0.34261  0.56421  0.77659  1.0000
  C   C1532     1.0  0.37740  0.61155  0.89513  1.0000
  H   H1513     1.0  0.59939  0.94950  0.90124  1.0000
  C   C1533     1.0  0.36422  0.62531  0.90343  1.0000
  H   H1514     1.0  0.54360  0.87161  0.76227  1.0000
  C   C1534     1.0  0.38625  0.58212  0.88403  1.0000
  Fe  Fe254     1.0  0.42978  0.80481  0.74140  1.0000
  H   H1515     1.0  0.39171  0.61330  0.89024  1.0000
  C   C1535     1.0  0.50053  0.95425  0.82631  1.0000
  H   H1516     1.0  0.52505  0.79830  0.75047  1.0000
  H   H1517     1.0  0.48113  0.77815  0.77176  1.0000
  H   H1518     1.0  0.39744  0.58826  0.87361  1.0000
  H   H1519     1.0  0.39242  0.57131  0.89490  1.0000
  H   H1520     1.0  0.38006  0.57545  0.87620  1.0000
  N   N126      1.0  0.51431  0.87204  0.76720  1.0000
  C   C1536     1.0  0.43750  0.89143  0.75132  1.0000
  C   C1537     1.0  0.49757  0.87386  0.77950  1.0000
  S   S510      1.0  0.44928  0.81987  0.74649  1.0000
  C   C1538     1.0  0.48196  0.87015  0.77556  1.0000
  H   H1521     1.0  0.63553  0.72630  0.87775  1.0000
  C   C1539     1.0  0.50061  0.86299  0.74631  1.0000
  H   H1522     1.0  0.49618  0.87825  0.79245  1.0000
  H   H1523     1.0  0.40096  0.73195  0.77712  1.0000
  H   H1524     1.0  0.46871  0.87165  0.78537  1.0000
  H   H1525     1.0  0.58830  0.84652  0.81752  1.0000
  C   C1540     1.0  0.42005  0.85804  0.88698  1.0000
  H   H1526     1.0  0.62859  0.98280  0.89714  1.0000
  H   H1527     1.0  0.40488  0.80522  0.89123  1.0000
  C   C1541     1.0  0.43668  0.77278  0.82850  1.0000
  N   N127      1.0  0.60118  0.82169  0.80694  1.0000
  C   C1542     1.0  0.60063  0.88914  0.77528  1.0000
  H   H1528     1.0  0.35526  0.65650  0.86763  1.0000
  C   C1543     1.0  0.36699  0.64731  0.86087  1.0000
  C   C1544     1.0  0.61726  0.84570  0.80560  1.0000
  H   H1529     1.0  0.42233  0.85086  0.76068  1.0000
  H   H1530     1.0  0.64606  0.84158  0.79162  1.0000
  N   N128      1.0  0.60183  0.97758  0.89868  1.0000
  H   H1531     1.0  0.42855  0.76977  0.88587  1.0000
  N   N129      1.0  0.39092  0.78540  0.91086  1.0000
  H   H1532     1.0  0.48190  0.83394  0.87078  1.0000
  H   H1533     1.0  0.44676  0.96474  0.84100  1.0000
  Fe  Fe255     1.0  0.57911  0.84028  0.97672  1.0000
  H   H1534     1.0  0.60946  0.98993  0.85058  1.0000
  H   H1535     1.0  0.57761  0.76408  0.75627  1.0000
  H   H1536     1.0  0.39661  0.73606  0.94175  1.0000
  H   H1537     1.0  0.39754  0.79409  0.93267  1.0000
  C   C1545     1.0  0.63359  0.81869  0.79241  1.0000
  C   C1546     1.0  0.39450  0.74999  0.93329  1.0000
  S   S511      1.0  0.57583  0.83050  0.75534  1.0000
  S   S512      1.0  0.44867  0.81920  0.95248  1.0000
  C   C1547     1.0  0.58545  0.89966  0.80986  1.0000
  H   H1538     1.0  0.42393  0.73580  0.81563  1.0000
  C   C1548     1.0  0.47585  0.84070  0.90819  1.0000
  S   S513      1.0  0.37612  0.60070  0.83946  1.0000
  C   C1549     1.0  0.44593  0.98536  0.81567  1.0000
  C   C1550     1.0  0.37905  0.62024  0.84635  1.0000
  H   H1539     1.0  0.48170  0.84114  0.93455  1.0000
  C   C1551     1.0  0.60001  0.90748  0.79789  1.0000
  H   H1540     1.0  0.43858  0.76191  0.74810  1.0000
  C   C1552     1.0  0.38510  0.65020  0.85849  1.0000
  C   C1553     1.0  0.39514  0.78262  0.92801  1.0000
  C   C1554     1.0  0.47935  0.84922  0.92101  1.0000
  S   S514      1.0  0.61381  0.78390  0.76276  1.0000
  C   C1555     1.0  0.63599  0.73152  0.91790  1.0000
  S   S515      1.0  0.38825  0.66851  0.86723  1.0000
  C   C1556     1.0  0.39048  0.80377  0.89856  1.0000
  C   C1557     1.0  0.47951  0.86821  0.91634  1.0000
  C   C1558     1.0  0.43297  0.75677  0.89500  1.0000
  S   S516      1.0  0.34481  0.52612  0.84271  1.0000
  C   C1559     1.0  0.47355  0.86922  0.88622  1.0000
  H   H1541     1.0  0.43892  0.77002  0.91418  1.0000
  H   H1542     1.0  0.41931  0.85451  0.79296  1.0000
  C   C1560     1.0  0.58567  0.88180  0.78711  1.0000
  H   H1543     1.0  0.64516  0.74137  0.91260  1.0000
  H   H1544     1.0  0.40779  0.76736  0.80316  1.0000
  C   C1561     1.0  0.64511  0.72141  0.88773  1.0000
  H   H1545     1.0  0.39827  0.67444  0.82517  1.0000
  H   H1546     1.0  0.42364  0.88235  0.86546  1.0000
  H   H1547     1.0  0.57262  0.80948  0.92262  1.0000
  H   H1548     1.0  0.52824  0.89184  0.77017  1.0000
  C   C1562     1.0  0.42433  0.87575  0.87977  1.0000
  H   H1549     1.0  0.57394  0.79404  0.77606  1.0000
  H   H1550     1.0  0.64606  0.81106  0.78473  1.0000
  H   H1551     1.0  0.49793  0.97728  0.85949  1.0000
  S   S517      1.0  0.34853  0.56310  0.86820  1.0000
  H   H1552     1.0  0.47149  0.86188  0.75555  1.0000
  C   C1563     1.0  0.61296  0.71875  0.94280  1.0000
  H   H1553     1.0  0.42563  0.70363  0.77355  1.0000
  C   C1564     1.0  0.51596  0.86678  0.75070  1.0000
  H   H1554     1.0  0.57732  0.81938  0.79879  1.0000
  C   C1565     1.0  0.39012  0.75297  0.91581  1.0000
  C   C1566     1.0  0.43287  0.87590  0.74802  1.0000
  C   C1567     1.0  0.58380  0.81494  0.81125  1.0000
  H   H1555     1.0  0.52915  0.86552  0.74078  1.0000
  H   H1556     1.0  0.38605  0.77277  0.89071  1.0000
  H   H1557     1.0  0.35675  0.71233  0.82962  1.0000
  H   H1558     1.0  0.35000  0.63004  0.85711  1.0000
  Fe  Fe256     1.0  0.34913  0.59014  0.84764  1.0000
  H   H1559     1.0  0.58473  0.65540  0.88031  1.0000
  H   H1560     1.0  0.53997  0.61951  0.87554  1.0000
  N   N130      1.0  0.57132  0.64752  0.86298  1.0000
  H   H1561     1.0  0.49972  0.95287  0.86149  1.0000
  H   H1562     1.0  0.55044  0.75633  0.74914  1.0000
  S   S518      1.0  0.44022  0.97136  0.80342  1.0000
  H   H1563     1.0  0.46086  0.77866  0.76320  1.0000
  H   H1564     1.0  0.60130  0.69851  0.93640  1.0000
  C   C1568     1.0  0.34057  0.60788  0.90696  1.0000
  H   H1565     1.0  0.60406  0.71866  0.95653  1.0000
  C   C1569     1.0  0.58313  0.98477  0.90060  1.0000
  C   C1570     1.0  0.60934  0.95891  0.89445  1.0000
  C   C1571     1.0  0.53024  0.87654  0.77155  1.0000
  H   H1566     1.0  0.53172  0.86989  0.78611  1.0000
  H   H1567     1.0  0.45326  0.98527  0.85830  1.0000
  C   C1572     1.0  0.44826  0.97871  0.83409  1.0000
  C   C1573     1.0  0.62544  0.73075  0.93606  1.0000
  H   H1568     1.0  0.57383  0.97676  0.89900  1.0000
  C   C1574     1.0  0.40089  0.97516  0.84236  1.0000
  C   C1575     1.0  0.50603  0.80018  0.98459  1.0000
  C   C1576     1.0  0.33740  0.49489  0.83669  1.0000
  H   H1569     1.0  0.41069  0.96716  0.85165  1.0000
  C   C1577     1.0  0.57302  0.77075  0.74327  1.0000
  C   C1578     1.0  0.65965  0.65634  0.86937  1.0000
  H   H1570     1.0  0.48978  0.97787  0.78469  1.0000
  C   C1579     1.0  0.49367  0.99020  0.80588  1.0000
  C   C1580     1.0  0.32822  0.56425  0.78480  1.0000
  C   C1581     1.0  0.45171  0.99045  0.84398  1.0000
  H   H1571     1.0  0.44248  0.90178  0.73969  1.0000
  C   C1582     1.0  0.55786  0.76636  0.73923  1.0000
  H   H1572     1.0  0.60177  0.85771  0.98897  1.0000
  Fe  Fe257     1.0  0.80739  0.45871  0.08290  1.0000
  S   S519      1.0  0.77637  0.46738  0.08999  1.0000
  S   S520      1.0  0.82319  0.46436  0.05319  1.0000
  Fe  Fe258     1.0  0.81038  0.44191  0.12361  1.0000
  S   S521      1.0  0.77949  0.44860  0.13386  1.0000
  S   S522      1.0  0.82776  0.42628  0.14499  1.0000
  Fe  Fe259     1.0  0.77785  0.43918  0.10864  1.0000
  S   S523      1.0  0.76062  0.41969  0.10756  1.0000
  Fe  Fe260     1.0  0.78118  0.47601  0.11432  1.0000
  C   C1583     1.0  0.71030  0.46844  0.23423  1.0000
  S   S524      1.0  0.80867  0.42981  0.09999  1.0000
  S   S525      1.0  0.81225  0.47001  0.10562  1.0000
  N   N131      1.0  0.80418  0.40795  0.05137  1.0000
  H   H1573     1.0  0.82301  0.41526  0.06373  1.0000
  Fe  Fe261     1.0  0.67244  0.40607  0.23671  1.0000
  H   H1574     1.0  0.77465  0.44753  0.03215  1.0000
  S   S526      1.0  0.91169  0.47122  0.19480  1.0000
  H   H1575     1.0  0.78086  0.39739  0.06939  1.0000
  H   H1576     1.0  0.75294  0.38354  0.20149  1.0000
  S   S527      1.0  0.87971  0.44749  0.21833  1.0000
  Fe  Fe262     1.0  0.89441  0.45454  0.18853  1.0000
  H   H1577     1.0  0.84418  0.48790  0.18324  1.0000
  S   S528      1.0  0.87938  0.46913  0.16515  1.0000
  Fe  Fe263     1.0  0.69138  0.43918  0.21867  1.0000
  H   H1578     1.0  0.99337  0.39588  0.23438  1.0000
  S   S529      1.0  0.91679  0.42856  0.18933  1.0000
  S   S530      1.0  0.96287  0.44689  0.18549  1.0000
  H   H1579     1.0  0.79368  0.41339  0.16490  1.0000
  S   S531      1.0  0.67986  0.42078  0.20703  1.0000
  H   H1580     1.0  0.67945  0.39236  0.18076  1.0000
  C   C1584     1.0  0.76308  0.39214  0.19934  1.0000
  C   C1585     1.0  0.73413  0.48783  0.18496  1.0000
  S   S532      1.0  0.68780  0.47042  0.21028  1.0000
  H   H1581     1.0  0.78819  0.45410  0.05575  1.0000
  C   C1586     1.0  0.95024  0.39426  0.21708  1.0000
  C   C1587     1.0  0.78739  0.48985  0.15008  1.0000
  C   C1588     1.0  0.82066  0.41226  0.05132  1.0000
  C   C1589     1.0  0.81430  0.40654  0.01887  1.0000
  C   C1590     1.0  0.77922  0.40874  0.21136  1.0000
  Fe  Fe264     1.0  0.70785  0.40194  0.20754  1.0000
  S   S533      1.0  0.72091  0.38320  0.18708  1.0000
  H   H1582     1.0  0.96790  0.48691  0.18158  1.0000
  H   H1583     1.0  0.81131  0.40510  0.00606  1.0000
  C   C1591     1.0  0.83121  0.41072  0.01875  1.0000
  Fe  Fe265     1.0  0.90327  0.42261  0.21974  1.0000
  H   H1584     1.0  0.80399  0.47958  0.17119  1.0000
  H   H1585     1.0  0.95857  0.48243  0.21844  1.0000
  N   N132      1.0  0.78874  0.41449  0.19370  1.0000
  S   S534      1.0  0.72026  0.42162  0.21604  1.0000
  H   H1586     1.0  0.67572  0.35104  0.23838  1.0000
  H   H1587     1.0  0.96616  0.40237  0.18966  1.0000
  H   H1588     1.0  0.72705  0.48838  0.15896  1.0000
  C   C1592     1.0  0.67810  0.36416  0.20932  1.0000
  Fe  Fe266     1.0  0.89930  0.46160  0.22463  1.0000
  H   H1589     1.0  0.93811  0.39388  0.21215  1.0000
  C   C1593     1.0  0.78590  0.40908  0.17886  1.0000
  H   H1590     1.0  0.66934  0.38355  0.16669  1.0000
  H   H1591     1.0  0.78023  0.42165  0.06801  1.0000
  N   N133      1.0  0.83684  0.48018  0.23028  1.0000
  S   S535      1.0  0.78814  0.44656  0.99355  1.0000
  S   S536      1.0  0.69994  0.38627  0.23656  1.0000
  C   C1594     1.0  0.96617  0.39892  0.20447  1.0000
  H   H1592     1.0  0.93031  0.47001  0.22417  1.0000
  C   C1595     1.0  0.83444  0.41363  0.03506  1.0000
  H   H1593     1.0  0.84722  0.41762  0.03497  1.0000
  C   C1596     1.0  0.98507  0.43932  0.23092  1.0000
  H   H1594     1.0  0.75851  0.39315  0.22845  1.0000
  C   C1597     1.0  0.97233  0.44141  0.21959  1.0000
  H   H1595     1.0  0.69311  0.37347  0.16959  1.0000
  C   C1598     1.0  0.80081  0.40532  0.03538  1.0000
  H   H1596     1.0  0.82522  0.47210  0.21127  1.0000
  H   H1597     1.0  0.73359  0.47325  0.19041  1.0000
  C   C1599     1.0  0.94563  0.48922  0.22615  1.0000
  H   H1598     1.0  0.84151  0.41234  0.00587  1.0000
  H   H1599     1.0  0.68702  0.37293  0.21009  1.0000
  C   C1600     1.0  0.84931  0.48952  0.23215  1.0000
  C   C1601     1.0  0.80259  0.42596  0.19057  1.0000
  C   C1602     1.0  0.77299  0.39789  0.18143  1.0000
  H   H1600     1.0  0.81684  0.41741  0.18728  1.0000
  H   H1601     1.0  0.79532  0.40375  0.08106  1.0000
  C   C1603     1.0  0.84568  0.48845  0.19697  1.0000
  H   H1602     1.0  0.80078  0.43774  0.17854  1.0000
  H   H1603     1.0  0.94442  0.48349  0.16600  1.0000
  C   C1604     1.0  0.76621  0.39753  0.21444  1.0000
  H   H1604     1.0  0.71319  0.45354  0.23529  1.0000
  C   C1605     1.0  0.81557  0.45673  0.00465  1.0000
  H   H1605     1.0  0.82321  0.45757  0.99043  1.0000
  Fe  Fe267     1.0  0.93293  0.44476  0.19831  1.0000
  C   C1606     1.0  0.69823  0.47999  0.22293  1.0000
  H   H1606     1.0  0.78161  0.41277  0.22322  1.0000
  H   H1607     1.0  0.95894  0.43783  0.22576  1.0000
  H   H1608     1.0  0.78927  0.47631  0.14688  1.0000
  C   C1607     1.0  0.78948  0.40766  0.06822  1.0000
  C   C1608     1.0  0.74904  0.41023  0.12969  1.0000
  C   C1609     1.0  0.74309  0.42031  0.14408  1.0000
  C   C1610     1.0  0.73397  0.41230  0.16175  1.0000
  C   C1611     1.0  0.73121  0.39409  0.16503  1.0000
  C   C1612     1.0  0.73716  0.38407  0.15065  1.0000
  C   C1613     1.0  0.74584  0.39221  0.13295  1.0000
  H   H1609     1.0  0.74513  0.43441  0.14147  1.0000
  H   H1610     1.0  0.72923  0.42014  0.17281  1.0000
  H   H1611     1.0  0.73505  0.36998  0.15318  1.0000
  H   H1612     1.0  0.75038  0.38441  0.12184  1.0000
  C   C1614     1.0  0.84143  0.43856  0.15117  1.0000
  C   C1615     1.0  0.84016  0.45771  0.14451  1.0000
  C   C1616     1.0  0.85167  0.46701  0.14915  1.0000
  C   C1617     1.0  0.86439  0.45727  0.16056  1.0000
  C   C1618     1.0  0.86517  0.43827  0.16783  1.0000
  C   C1619     1.0  0.85375  0.42893  0.16308  1.0000
  H   H1613     1.0  0.83042  0.46537  0.13573  1.0000
  H   H1614     1.0  0.85075  0.48178  0.14388  1.0000
  H   H1615     1.0  0.87492  0.43067  0.17670  1.0000
  H   H1616     1.0  0.85476  0.41413  0.16835  1.0000
  C   C1620     1.0  0.79805  0.45199  0.00970  1.0000
  C   C1621     1.0  0.83493  0.47958  0.21294  1.0000
  C   C1622     1.0  0.82324  0.46042  0.01811  1.0000
  C   C1623     1.0  0.81341  0.45952  0.03660  1.0000
  C   C1624     1.0  0.79588  0.45487  0.04157  1.0000
  C   C1625     1.0  0.78822  0.45114  0.02817  1.0000
  H   H1617     1.0  0.78741  0.40283  0.03515  1.0000
  H   H1618     1.0  0.83680  0.46403  0.01423  1.0000
  C   C1626     1.0  0.67888  0.37942  0.17666  1.0000
  N   N134      1.0  0.67243  0.36588  0.19310  1.0000
  S   S537      1.0  0.90038  0.39459  0.23730  1.0000
  S   S538      1.0  0.92154  0.43613  0.22875  1.0000
  H   H1619     1.0  0.80149  0.43194  0.20289  1.0000
  H   H1620     1.0  0.77066  0.39375  0.16960  1.0000
  C   C1627     1.0  0.98130  0.39536  0.22942  1.0000
  C   C1628     1.0  0.97735  0.44718  0.20030  1.0000
  N   N135      1.0  0.98141  0.39945  0.21072  1.0000
  C   C1629     1.0  0.67193  0.35159  0.22532  1.0000
  C   C1630     1.0  0.92953  0.48211  0.22949  1.0000
  C   C1631     1.0  0.94990  0.39034  0.23616  1.0000
  H   H1621     1.0  0.74175  0.49147  0.20906  1.0000
  C   C1632     1.0  0.66117  0.35477  0.19208  1.0000
  H   H1622     1.0  0.89332  0.45465  0.27729  1.0000
  C   C1633     1.0  0.69360  0.47119  0.28515  1.0000
  H   H1623     1.0  0.82109  0.47822  0.25808  1.0000
  S   S539      1.0  0.93867  0.15992  0.48062  1.0000
  Fe  Fe268     1.0  0.83966  0.04411  0.45317  1.0000
  C   C1634     1.0  0.87816  0.44371  0.30428  1.0000
  S   S540      1.0  0.83987  0.02035  0.44004  1.0000
  Fe  Fe269     1.0  0.85186  0.08104  0.44637  1.0000
  H   H1624     1.0  0.74459  0.23149  0.39177  1.0000
  S   S541      1.0  0.86413  0.10496  0.42741  1.0000
  H   H1625     1.0  0.72778  0.46706  0.25314  1.0000
  H   H1626     1.0  0.79521  0.01700  0.42751  1.0000
  H   H1627     1.0  0.76320  0.44766  0.24122  1.0000
  S   S542      1.0  0.82704  0.04465  0.48327  1.0000
  C   C1635     1.0  0.91274  0.49063  0.23963  1.0000
  S   S543      1.0  0.82631  0.07375  0.44265  1.0000
  S   S544      1.0  0.68126  0.42626  0.24849  1.0000
  C   C1636     1.0  0.85505  0.14416  0.46801  1.0000
  S   S545      1.0  0.72599  0.39921  0.26806  1.0000
  H   H1628     1.0  0.72872  0.44199  0.30485  1.0000
  N   N136      1.0  0.98054  0.48888  0.26757  1.0000
  H   H1629     1.0  0.81289  0.12207  0.46653  1.0000
  Fe  Fe270     1.0  0.91142  0.19548  0.44548  1.0000
  S   S546      1.0  0.89353  0.21808  0.42812  1.0000
  S   S547      1.0  0.98130  0.17558  0.44567  1.0000
  H   H1630     1.0  0.71809  0.24970  0.41060  1.0000
  Fe  Fe271     1.0  0.92149  0.15440  0.46318  1.0000
  H   H1631     1.0  0.78633  0.33054  0.39320  1.0000
  Fe  Fe272     1.0  0.76558  0.30300  0.45990  1.0000
  S   S548      1.0  0.76759  0.33185  0.46090  1.0000
  H   H1632     1.0  0.74852  0.03454  0.46944  1.0000
  Fe  Fe273     1.0  0.79634  0.32467  0.44360  1.0000
  S   S549      1.0  0.81064  0.34410  0.41938  1.0000
  H   H1633     1.0  0.80895  0.31881  0.39700  1.0000
  S   S550      1.0  0.79343  0.29660  0.44079  1.0000
  C   C1637     1.0  0.78691  0.02750  0.43542  1.0000
  Fe  Fe274     1.0  0.78646  0.42434  0.33859  1.0000
  S   S551      1.0  0.80311  0.41179  0.31400  1.0000
  S   S552      1.0  0.76925  0.40699  0.36212  1.0000
  Fe  Fe275     1.0  0.79815  0.46184  0.32181  1.0000
  S   S553      1.0  0.81667  0.45160  0.29671  1.0000
  C   C1638     1.0  0.74700  0.42626  0.25248  1.0000
  Fe  Fe276     1.0  0.79293  0.43927  0.29634  1.0000
  S   S554      1.0  0.78424  0.44568  0.26862  1.0000
  Fe  Fe277     1.0  0.82511  0.42525  0.31667  1.0000
  S   S555      1.0  0.85369  0.40748  0.31666  1.0000
  S   S556      1.0  0.77387  0.45066  0.32056  1.0000
  S   S557      1.0  0.80905  0.43663  0.34216  1.0000
  C   C1639     1.0  0.72724  0.22317  0.37801  1.0000
  H   H1634     1.0  0.76377  0.06835  0.47803  1.0000
  H   H1635     1.0  0.89948  0.09445  0.47569  1.0000
  C   C1640     1.0  0.84942  0.16429  0.43895  1.0000
  N   N137      1.0  0.83254  0.13967  0.45302  1.0000
  H   H1636     1.0  0.70621  0.21647  0.36768  1.0000
  H   H1637     1.0  0.76816  0.49032  0.29549  1.0000
  H   H1638     1.0  0.99205  0.46095  0.26406  1.0000
  C   C1641     1.0  0.71543  0.24292  0.40076  1.0000
  Fe  Fe278     1.0  0.71846  0.16713  0.44246  1.0000
  S   S558      1.0  0.71570  0.19334  0.42077  1.0000
  S   S559      1.0  0.73544  0.14099  0.43291  1.0000
  Fe  Fe279     1.0  0.69855  0.18731  0.47409  1.0000
  S   S560      1.0  0.69402  0.21524  0.45501  1.0000
  H   H1639     1.0  0.90250  0.23192  0.48401  1.0000
  Fe  Fe280     1.0  0.68641  0.20006  0.43678  1.0000
  S   S561      1.0  0.73842  0.29607  0.45968  1.0000
  Fe  Fe281     1.0  0.72345  0.20608  0.44068  1.0000
  S   S562      1.0  0.74642  0.22220  0.43125  1.0000
  S   S563      1.0  0.68846  0.17267  0.45717  1.0000
  S   S564      1.0  0.72864  0.17931  0.46103  1.0000
  C   C1642     1.0  0.82483  0.00502  0.45192  1.0000
  N   N138      1.0  0.80840  0.33947  0.37186  1.0000
  C   C1643     1.0  0.88438  0.45790  0.29023  1.0000
  S   S565      1.0  0.84017  0.08411  0.47598  1.0000
  S   S566      1.0  0.91690  0.12514  0.46873  1.0000
  H   H1640     1.0  0.96531  0.38804  0.25724  1.0000
  C   C1644     1.0  0.78215  0.05729  0.44387  1.0000
  H   H1641     1.0  0.80705  0.13869  0.44648  1.0000
  C   C1645     1.0  0.83423  0.35430  0.35617  1.0000
  H   H1642     1.0  0.76522  0.48390  0.25026  1.0000
  C   C1646     1.0  0.87882  0.47630  0.29290  1.0000
  H   H1643     1.0  0.82961  0.15783  0.42693  1.0000
  H   H1644     1.0  0.74818  0.39656  0.29428  1.0000
  H   H1645     1.0  0.68857  0.48596  0.28037  1.0000
  H   H1646     1.0  0.88014  0.08569  0.45882  1.0000
  S   S567      1.0  0.89752  0.17722  0.47043  1.0000
  C   C1647     1.0  0.84190  0.13441  0.46739  1.0000
  H   H1647     1.0  0.86906  0.16681  0.45391  1.0000
  H   H1648     1.0  0.93297  0.08568  0.47832  1.0000
  H   H1649     1.0  0.90343  0.14448  0.43445  1.0000
  H   H1650     1.0  0.78306  0.35110  0.36209  1.0000
  H   H1651     1.0  0.83938  0.12252  0.47838  1.0000
  H   H1652     1.0  0.98133  0.43419  0.24577  1.0000
  H   H1653     1.0  0.82566  0.11868  0.44357  1.0000
  H   H1654     1.0  0.80556  0.04657  0.42355  1.0000
  H   H1655     1.0  0.86127  0.43703  0.33160  1.0000
  C   C1648     1.0  0.70755  0.43358  0.29638  1.0000
  H   H1656     1.0  0.74032  0.42955  0.24073  1.0000
  N   N139      1.0  0.86758  0.48038  0.30925  1.0000
  H   H1657     1.0  0.80003  0.31345  0.37939  1.0000
  C   C1649     1.0  0.70933  0.46557  0.29323  1.0000
  H   H1658     1.0  0.83499  0.33125  0.37942  1.0000
  C   C1650     1.0  0.76843  0.43250  0.26818  1.0000
  C   C1651     1.0  0.75996  0.43648  0.25278  1.0000
  C   C1652     1.0  0.68206  0.25439  0.41096  1.0000
  H   H1659     1.0  0.89087  0.26180  0.44022  1.0000
  C   C1653     1.0  0.75142  0.40773  0.28268  1.0000
  C   C1654     1.0  0.76412  0.41813  0.28313  1.0000
  C   C1655     1.0  0.85867  0.15931  0.45377  1.0000
  C   C1656     1.0  0.83645  0.15414  0.43870  1.0000
  Fe  Fe282     1.0  0.91585  0.18469  0.48508  1.0000
  H   H1660     1.0  0.77062  0.41494  0.29503  1.0000
  C   C1657     1.0  0.74384  0.24221  0.44012  1.0000
  C   C1658     1.0  0.75967  0.24925  0.43847  1.0000
  C   C1659     1.0  0.75811  0.26555  0.44483  1.0000
  C   C1660     1.0  0.74065  0.27514  0.45249  1.0000
  C   C1661     1.0  0.72478  0.26801  0.45436  1.0000
  C   C1662     1.0  0.72638  0.25145  0.44833  1.0000
  H   H1661     1.0  0.77321  0.24210  0.43219  1.0000
  H   H1662     1.0  0.77042  0.27083  0.44347  1.0000
  H   H1663     1.0  0.90985  0.26289  0.45020  1.0000
  H   H1664     1.0  0.71410  0.24609  0.44969  1.0000
  C   C1663     1.0  0.79816  0.36302  0.40538  1.0000
  C   C1664     1.0  0.80793  0.37564  0.39217  1.0000
  C   C1665     1.0  0.79906  0.38955  0.37925  1.0000
  C   C1666     1.0  0.78028  0.39094  0.37940  1.0000
  C   C1667     1.0  0.77033  0.37869  0.39299  1.0000
  C   C1668     1.0  0.77921  0.36480  0.40599  1.0000
  H   H1665     1.0  0.82257  0.37441  0.39167  1.0000
  H   H1666     1.0  0.80686  0.39891  0.36891  1.0000
  H   H1667     1.0  0.75576  0.37977  0.39329  1.0000
  H   H1668     1.0  0.77150  0.35522  0.41617  1.0000
  C   C1669     1.0  0.87331  0.22928  0.44174  1.0000
  C   C1670     1.0  0.86976  0.22369  0.46112  1.0000
  H   H1669     1.0  0.97290  0.20966  0.46047  1.0000
  C   C1671     1.0  0.84151  0.24751  0.46377  1.0000
  C   C1672     1.0  0.84514  0.25357  0.44440  1.0000
  C   C1673     1.0  0.86097  0.24431  0.43336  1.0000
  H   H1670     1.0  0.67988  0.24613  0.42541  1.0000
  H   H1671     1.0  0.85124  0.48964  0.24584  1.0000
  H   H1672     1.0  0.83572  0.26523  0.43794  1.0000
  H   H1673     1.0  0.86372  0.24883  0.41837  1.0000
  C   C1674     1.0  0.75046  0.12787  0.44781  1.0000
  C   C1675     1.0  0.74519  0.12707  0.46705  1.0000
  Fe  Fe283     1.0  0.95001  0.17878  0.45450  1.0000
  C   C1676     1.0  0.77414  0.10520  0.47144  1.0000
  C   C1677     1.0  0.77968  0.10662  0.45215  1.0000
  C   C1678     1.0  0.76773  0.11764  0.44038  1.0000
  H   H1674     1.0  0.85214  0.46975  0.33587  1.0000
  H   H1675     1.0  0.99368  0.22480  0.46988  1.0000
  H   H1676     1.0  0.79300  0.09906  0.44623  1.0000
  H   H1677     1.0  0.77189  0.11839  0.42548  1.0000
  C   C1679     1.0  0.87984  0.11049  0.43768  1.0000
  C   C1680     1.0  0.88668  0.12698  0.43057  1.0000
  C   C1681     1.0  0.89819  0.13176  0.43989  1.0000
  C   C1682     1.0  0.90283  0.11998  0.45624  1.0000
  S   S568      1.0  0.92859  0.20423  0.46065  1.0000
  C   C1683     1.0  0.88491  0.09864  0.45368  1.0000
  H   H1678     1.0  0.88291  0.13613  0.41804  1.0000
  C   C1684     1.0  0.86642  0.44801  0.32074  1.0000
  C   C1685     1.0  0.80480  0.36552  0.34639  1.0000
  C   C1686     1.0  0.85377  0.23249  0.47204  1.0000
  C   C1687     1.0  0.66939  0.46444  0.27314  1.0000
  N   N140      1.0  0.68518  0.45829  0.28262  1.0000
  C   C1688     1.0  0.81138  0.00873  0.46773  1.0000
  H   H1679     1.0  0.87948  0.21287  0.46786  1.0000
  H   H1680     1.0  0.68487  0.26803  0.41111  1.0000
  C   C1689     1.0  0.73051  0.23263  0.39011  1.0000
  N   N141      1.0  0.88601  0.25604  0.47000  1.0000
  H   H1681     1.0  0.81027  0.02098  0.47305  1.0000
  H   H1682     1.0  0.86579  0.41980  0.24836  1.0000
  H   H1683     1.0  0.76673  0.01083  0.45085  1.0000
  H   H1684     1.0  0.84845  0.35551  0.35495  1.0000
  S   S569      1.0  0.78798  0.08977  0.48654  1.0000
  H   H1685     1.0  0.85256  0.17573  0.42756  1.0000
  C   C1690     1.0  0.79271  0.04413  0.43318  1.0000
  C   C1691     1.0  0.89619  0.10345  0.46300  1.0000
  C   C1692     1.0  0.82655  0.34060  0.36993  1.0000
  C   C1693     1.0  0.80058  0.32479  0.38598  1.0000
  C   C1694     1.0  0.69209  0.43967  0.28795  1.0000
  H   H1686     1.0  0.82896  0.37778  0.33390  1.0000
  S   S570      1.0  0.89260  0.48169  0.24371  1.0000
  C   C1695     1.0  0.87046  0.41147  0.26077  1.0000
  C   C1696     1.0  0.85996  0.41425  0.27838  1.0000
  C   C1697     1.0  0.86584  0.40336  0.29452  1.0000
  C   C1698     1.0  0.88202  0.38947  0.29301  1.0000
  C   C1699     1.0  0.89228  0.38641  0.27542  1.0000
  C   C1700     1.0  0.86124  0.46654  0.32302  1.0000
  H   H1687     1.0  0.84742  0.42489  0.27944  1.0000
  H   H1688     1.0  0.88662  0.38102  0.30546  1.0000
  H   H1689     1.0  0.90475  0.37563  0.27433  1.0000
  H   H1690     1.0  0.93747  0.38700  0.24603  1.0000
  H   H1691     1.0  0.71624  0.47588  0.29467  1.0000
  C   C1701     1.0  0.76076  0.03748  0.45908  1.0000
  H   H1692     1.0  0.78676  0.07016  0.44211  1.0000
  N   N142      1.0  0.76632  0.05395  0.45649  1.0000
  H   H1693     1.0  0.83546  0.45659  0.25220  1.0000
  C   C1702     1.0  0.88666  0.39758  0.25926  1.0000
  H   H1694     1.0  0.88233  0.42940  0.30233  1.0000
  C   C1703     1.0  0.75580  0.06790  0.46773  1.0000
  H   H1695     1.0  0.86701  0.28023  0.45961  1.0000
  C   C1704     1.0  0.77090  0.02406  0.44852  1.0000
  Fe  Fe284     1.0  0.70960  0.40774  0.24524  1.0000
  H   H1696     1.0  0.71122  0.27536  0.46033  1.0000
  H   H1697     1.0  0.73181  0.13488  0.47286  1.0000
  C   C1705     1.0  0.82326  0.36683  0.34434  1.0000
  Fe  Fe285     1.0  0.80457  0.28571  0.46716  1.0000
  S   S571      1.0  0.86654  0.05125  0.45377  1.0000
  C   C1706     1.0  0.79757  0.35167  0.36028  1.0000
  C   C1707     1.0  0.71850  0.47613  0.24438  1.0000
  H   H1698     1.0  0.73878  0.21466  0.37014  1.0000
  H   H1699     1.0  0.75325  0.08197  0.45868  1.0000
  H   H1700     1.0  0.79590  0.37555  0.33774  1.0000
  N   N143      1.0  0.69761  0.24402  0.39916  1.0000
  C   C1708     1.0  0.74268  0.41187  0.26747  1.0000
  H   H1701     1.0  0.68012  0.23511  0.38645  1.0000
  S   S572      1.0  0.81012  0.31296  0.46844  1.0000
  S   S573      1.0  0.93410  0.17174  0.43657  1.0000
  Fe  Fe286     1.0  0.81572  0.07483  0.47293  1.0000
  C   C1709     1.0  0.69427  0.23478  0.38731  1.0000
  H   H1702     1.0  0.81558  0.47668  0.34770  1.0000
  C   C1710     1.0  0.75694  0.11556  0.47887  1.0000
  C   C1711     1.0  0.98700  0.20244  0.46143  1.0000
  C   C1712     1.0  0.79870  0.99699  0.47623  1.0000
  C   C1713     1.0  0.87050  0.26998  0.47173  1.0000
  C   C1714     1.0  0.71635  0.44661  0.29885  1.0000
  C   C1715     1.0  0.91985  0.05440  0.48497  1.0000
  C   C1716     1.0  0.81579  0.49137  0.34329  1.0000
  H   H1703     1.0  0.66734  0.17660  0.42020  1.0000
  H   H1704     1.0  0.88356  0.48726  0.28177  1.0000
  H   H1705     1.0  0.73952  0.21066  0.47411  1.0000
  H   H1706     1.0  0.67452  0.46588  0.25783  1.0000
  H   H1707     1.0  0.83267  0.49118  0.36248  1.0000
  C   C1717     1.0  0.89021  0.24299  0.48529  1.0000
  H   H1708     1.0  0.90472  0.24085  0.45013  1.0000
  H   H1709     1.0  0.68580  0.42933  0.28558  1.0000
  C   C1718     1.0  0.81889  0.12926  0.45239  1.0000
  H   H1710     1.0  0.72227  0.31545  0.48881  1.0000
  H   H1711     1.0  0.71295  0.41878  0.30053  1.0000
  C   C1719     1.0  0.89852  0.25546  0.45177  1.0000
  S   S574      1.0  0.66323  0.21572  0.42133  1.0000
  H   H1712     1.0  0.85117  0.22790  0.48703  1.0000
  H   H1713     1.0  0.86275  0.13972  0.47920  1.0000
  H   H1714     1.0  0.74198  0.06492  0.47540  1.0000
  Fe  Fe287     1.0  0.85282  0.05384  0.48316  1.0000
  H   H1715     1.0  0.99343  0.47842  0.24286  1.0000
  S   S575      1.0  0.82238  0.25863  0.47845  1.0000
  H   H1716     1.0  0.66883  0.25700  0.40604  1.0000
  C   C1720     1.0  0.70901  0.22420  0.37660  1.0000
  H   H1717     1.0  0.78810  0.00012  0.48827  1.0000
  H   H1718     1.0  0.75976  0.47757  0.28349  1.0000
  C   C1721     1.0  0.96549  0.39093  0.24242  1.0000
  C   C1722     1.0  0.99382  0.18496  0.45651  1.0000
  H   H1719     1.0  0.93137  0.04206  0.48380  1.0000
  C   C1723     1.0  0.82634  0.46989  0.24695  1.0000
  H   H1720     1.0  0.97173  0.47174  0.25409  1.0000
  H   H1721     1.0  0.81406  0.46649  0.24404  1.0000
  H   H1722     1.0  0.92004  0.06365  0.47099  1.0000
  C   C1724     1.0  0.98456  0.47425  0.25673  1.0000
  Fe  Fe288     1.0  0.78118  0.31797  0.48544  1.0000
  H   H1723     1.0  0.74335  0.23893  0.48253  1.0000
  S   S576      1.0  0.77650  0.28997  0.48583  1.0000
  C   C1725     1.0  0.73947  0.21069  0.48847  1.0000
  Fe  Fe289     1.0  0.86001  0.09920  0.57056  1.0000
  S   S577      1.0  0.87604  0.08256  0.59225  1.0000
  S   S578      1.0  0.87458  0.10652  0.54102  1.0000
  Fe  Fe290     1.0  0.82311  0.10197  0.59735  1.0000
  S   S579      1.0  0.83595  0.08567  0.62180  1.0000
  S   S580      1.0  0.79216  0.11181  0.60027  1.0000
  Fe  Fe291     1.0  0.85790  0.10290  0.60959  1.0000
  S   S581      1.0  0.86906  0.11636  0.62665  1.0000
  Fe  Fe292     1.0  0.85291  0.06679  0.60224  1.0000
  S   S582      1.0  0.84353  0.12090  0.58695  1.0000
  S   S583      1.0  0.83833  0.08172  0.57880  1.0000
  S   S584      1.0  0.90188  0.19354  0.51214  1.0000
  Fe  Fe293     1.0  0.95419  0.20541  0.57289  1.0000
  S   S585      1.0  0.97426  0.17810  0.57502  1.0000
  S   S586      1.0  0.95393  0.22420  0.54489  1.0000
  Fe  Fe294     1.0  0.93712  0.19867  0.61376  1.0000
  S   S587      1.0  0.95575  0.17047  0.61976  1.0000
  S   S588      1.0  0.91296  0.21018  0.63479  1.0000
  C   C1726     1.0  0.86246  0.25736  0.50462  1.0000
  C   C1727     1.0  0.85819  0.00304  0.60362  1.0000
  Fe  Fe295     1.0  0.95019  0.16627  0.59353  1.0000
  S   S589      1.0  0.94595  0.14023  0.58746  1.0000
  S   S590      1.0  0.96023  0.21325  0.59708  1.0000
  S   S591      1.0  0.92964  0.19311  0.58914  1.0000
  S   S592      1.0  0.77227  0.32560  0.51384  1.0000
  Fe  Fe296     1.0  0.74282  0.21224  0.57797  1.0000
  S   S593      1.0  0.71446  0.20635  0.58222  1.0000
  S   S594      1.0  0.76873  0.19633  0.56223  1.0000
  Fe  Fe297     1.0  0.72776  0.24949  0.59050  1.0000
  S   S595      1.0  0.69790  0.24695  0.59550  1.0000
  S   S596      1.0  0.73607  0.27636  0.58933  1.0000
  Fe  Fe298     1.0  0.70841  0.21724  0.60877  1.0000
  S   S597      1.0  0.69301  0.20052  0.63459  1.0000
  Fe  Fe299     1.0  0.70638  0.23627  0.56883  1.0000
  S   S598      1.0  0.69228  0.24681  0.54434  1.0000
  S   S599      1.0  0.73794  0.22052  0.60561  1.0000
  S   S600      1.0  0.73515  0.24142  0.56268  1.0000
  Fe  Fe300     1.0  0.85164  0.30568  0.61590  1.0000
  S   S601      1.0  0.82701  0.30852  0.63963  1.0000
  S   S602      1.0  0.88221  0.29713  0.61639  1.0000
  Fe  Fe301     1.0  0.82852  0.32176  0.58616  1.0000
  S   S603      1.0  0.80173  0.32681  0.60693  1.0000
  S   S604      1.0  0.83501  0.32658  0.55486  1.0000
  Fe  Fe302     1.0  0.81783  0.33666  0.62250  1.0000
  S   S605      1.0  0.80469  0.36242  0.63487  1.0000
  Fe  Fe303     1.0  0.81269  0.29838  0.62250  1.0000
  S   S606      1.0  0.79532  0.27650  0.63501  1.0000
  S   S607      1.0  0.84349  0.33464  0.59998  1.0000
  S   S608      1.0  0.83831  0.29263  0.60067  1.0000
  Fe  Fe304     1.0  0.83273  0.40592  0.70532  1.0000
  S   S609      1.0  0.81570  0.43477  0.69793  1.0000
  S   S610      1.0  0.84502  0.38363  0.68788  1.0000
  Fe  Fe305     1.0  0.83439  0.44435  0.71090  1.0000
  S   S611      1.0  0.84575  0.47088  0.69911  1.0000
  S   S612      1.0  0.85315  0.41620  0.71527  1.0000
  C   C1728     1.0  0.79927  0.09127  0.54377  1.0000
  C   C1729     1.0  0.67428  0.21117  0.65031  1.0000
  H   H1724     1.0  0.71012  0.27602  0.53897  1.0000
  C   C1730     1.0  0.92977  0.08976  0.50607  1.0000
  C   C1731     1.0  0.81971  0.06459  0.53236  1.0000
  H   H1725     1.0  0.88162  0.23267  0.51474  1.0000
  H   H1726     1.0  0.92438  0.09048  0.53529  1.0000
  H   H1727     1.0  0.67120  0.21295  0.60517  1.0000
  H   H1728     1.0  0.72339  0.29196  0.55566  1.0000
  C   C1732     1.0  0.66734  0.23037  0.64678  1.0000
  C   C1733     1.0  0.82102  0.01640  0.60060  1.0000
  C   C1734     1.0  0.81431  0.36709  0.65173  1.0000
  C   C1735     1.0  0.82903  0.35443  0.65877  1.0000
  C   C1736     1.0  0.83745  0.35918  0.67099  1.0000
  C   C1737     1.0  0.83138  0.37667  0.67611  1.0000
  C   C1738     1.0  0.81610  0.38900  0.66976  1.0000
  C   C1739     1.0  0.80758  0.38420  0.65762  1.0000
  H   H1729     1.0  0.83420  0.34113  0.65450  1.0000
  H   H1730     1.0  0.84909  0.34946  0.67608  1.0000
  H   H1731     1.0  0.81132  0.40253  0.67359  1.0000
  H   H1732     1.0  0.79610  0.39401  0.65232  1.0000
  H   H1733     1.0  0.90621  0.12868  0.52861  1.0000
  H   H1734     1.0  0.89350  0.46806  0.71307  1.0000
  S   S613      1.0  0.86697  0.04153  0.50741  1.0000
  C   C1740     1.0  0.75255  0.27589  0.60219  1.0000
  C   C1741     1.0  0.75644  0.26122  0.61699  1.0000
  C   C1742     1.0  0.76976  0.26135  0.62692  1.0000
  C   C1743     1.0  0.77956  0.27586  0.62174  1.0000
  C   C1744     1.0  0.77592  0.29024  0.60665  1.0000
  C   C1745     1.0  0.76221  0.29045  0.59716  1.0000
  H   H1735     1.0  0.74898  0.24995  0.62102  1.0000
  H   H1736     1.0  0.77248  0.25018  0.63861  1.0000
  H   H1737     1.0  0.78345  0.30137  0.60239  1.0000
  H   H1738     1.0  0.75928  0.30184  0.58570  1.0000
  C   C1746     1.0  0.69092  0.20057  0.51614  1.0000
  C   C1747     1.0  0.68939  0.19716  0.53548  1.0000
  C   C1748     1.0  0.68974  0.21133  0.54422  1.0000
  C   C1749     1.0  0.69126  0.22908  0.53369  1.0000
  C   C1750     1.0  0.69230  0.23266  0.51442  1.0000
  C   C1751     1.0  0.69231  0.21838  0.50563  1.0000
  H   H1739     1.0  0.68813  0.18346  0.54368  1.0000
  H   H1740     1.0  0.68846  0.20858  0.55914  1.0000
  H   H1741     1.0  0.69339  0.24638  0.50620  1.0000
  H   H1742     1.0  0.85304  0.25765  0.51803  1.0000
  C   C1752     1.0  0.78998  0.32506  0.52526  1.0000
  C   C1753     1.0  0.80806  0.32598  0.51531  1.0000
  C   C1754     1.0  0.82180  0.32627  0.52458  1.0000
  C   C1755     1.0  0.81760  0.32541  0.54388  1.0000
  C   C1756     1.0  0.79964  0.32397  0.55395  1.0000
  C   C1757     1.0  0.78581  0.32395  0.54462  1.0000
  C   C1758     1.0  0.91672  0.05687  0.51731  1.0000
  H   H1743     1.0  0.83564  0.32750  0.51673  1.0000
  H   H1744     1.0  0.79630  0.32328  0.56883  1.0000
  H   H1745     1.0  0.77183  0.32325  0.55238  1.0000
  C   C1759     1.0  0.90460  0.23437  0.62978  1.0000
  C   C1760     1.0  0.91678  0.24655  0.62123  1.0000
  C   C1761     1.0  0.90981  0.26585  0.61741  1.0000
  C   C1762     1.0  0.89062  0.27298  0.62175  1.0000
  C   C1763     1.0  0.87841  0.26082  0.63009  1.0000
  C   C1764     1.0  0.88543  0.24156  0.63434  1.0000
  H   H1746     1.0  0.93158  0.24112  0.61789  1.0000
  H   H1747     1.0  0.91929  0.27523  0.61097  1.0000
  H   H1748     1.0  0.86359  0.26624  0.63355  1.0000
  H   H1749     1.0  0.87598  0.23217  0.64103  1.0000
  C   C1765     1.0  0.83027  0.03580  0.55395  1.0000
  H   H1750     1.0  0.72654  0.18197  0.54848  1.0000
  H   H1751     1.0  0.91836  0.16995  0.56559  1.0000
  C   C1766     1.0  0.66535  0.19993  0.66600  1.0000
  C   C1767     1.0  0.91621  0.20305  0.52039  1.0000
  C   C1768     1.0  0.90977  0.20839  0.53766  1.0000
  C   C1769     1.0  0.92121  0.21537  0.54490  1.0000
  C   C1770     1.0  0.93906  0.21725  0.53482  1.0000
  H   H1752     1.0  0.89605  0.20678  0.54563  1.0000
  H   H1753     1.0  0.91619  0.21922  0.55835  1.0000
  C   C1771     1.0  0.78561  0.13525  0.58955  1.0000
  C   C1772     1.0  0.79770  0.14361  0.57440  1.0000
  C   C1773     1.0  0.79234  0.16234  0.56599  1.0000
  C   C1774     1.0  0.77498  0.17284  0.57284  1.0000
  C   C1775     1.0  0.76281  0.16448  0.58790  1.0000
  C   C1776     1.0  0.76806  0.14564  0.59612  1.0000
  H   H1754     1.0  0.81109  0.13558  0.56902  1.0000
  H   H1755     1.0  0.80174  0.16872  0.55427  1.0000
  H   H1756     1.0  0.74938  0.17249  0.59327  1.0000
  H   H1757     1.0  0.75865  0.13921  0.60781  1.0000
  C   C1777     1.0  0.92492  0.13329  0.59904  1.0000
  C   C1778     1.0  0.91382  0.14046  0.61450  1.0000
  C   C1779     1.0  0.89677  0.13501  0.62310  1.0000
  C   C1780     1.0  0.89060  0.12277  0.61598  1.0000
  C   C1781     1.0  0.90170  0.11575  0.60045  1.0000
  C   C1782     1.0  0.91891  0.12079  0.59217  1.0000
  H   H1758     1.0  0.91839  0.15014  0.61986  1.0000
  H   H1759     1.0  0.88825  0.14051  0.63511  1.0000
  H   H1760     1.0  0.89708  0.10649  0.59472  1.0000
  H   H1761     1.0  0.92742  0.11534  0.58013  1.0000
  H   H1762     1.0  0.82432  0.04211  0.60577  1.0000
  C   C1783     1.0  0.87017  0.05927  0.51649  1.0000
  C   C1784     1.0  0.87118  0.05611  0.53522  1.0000
  C   C1785     1.0  0.87288  0.07062  0.54266  1.0000
  C   C1786     1.0  0.87381  0.08819  0.53131  1.0000
  C   C1787     1.0  0.87360  0.09111  0.51242  1.0000
  C   C1788     1.0  0.87168  0.07664  0.50507  1.0000
  H   H1763     1.0  0.87048  0.04255  0.54403  1.0000
  H   H1764     1.0  0.87373  0.06809  0.55715  1.0000
  H   H1765     1.0  0.69346  0.22116  0.49075  1.0000
  N   N144      1.0  0.81958  0.05493  0.55027  1.0000
  N   N145      1.0  0.79274  0.23940  0.53794  1.0000
  C   C1789     1.0  0.79199  0.25684  0.52702  1.0000
  C   C1790     1.0  0.78697  0.23722  0.55688  1.0000
  C   C1791     1.0  0.78576  0.27266  0.53503  1.0000
  C   C1792     1.0  0.78063  0.25274  0.56535  1.0000
  C   C1793     1.0  0.78003  0.27056  0.55432  1.0000
  C   C1794     1.0  0.79874  0.22305  0.52920  1.0000
  H   H1766     1.0  0.79621  0.25861  0.51200  1.0000
  H   H1767     1.0  0.78715  0.22343  0.56558  1.0000
  H   H1768     1.0  0.78531  0.28646  0.52634  1.0000
  H   H1769     1.0  0.77601  0.25093  0.58037  1.0000
  H   H1770     1.0  0.77501  0.28275  0.56067  1.0000
  H   H1771     1.0  0.80904  0.22557  0.51590  1.0000
  H   H1772     1.0  0.80539  0.21070  0.53853  1.0000
  H   H1773     1.0  0.78648  0.21962  0.52632  1.0000
  N   N146      1.0  0.86432  0.37490  0.63327  1.0000
  C   C1795     1.0  0.86383  0.36327  0.62226  1.0000
  C   C1796     1.0  0.87551  0.36904  0.64612  1.0000
  C   C1797     1.0  0.87442  0.34511  0.62426  1.0000
  C   C1798     1.0  0.88605  0.35084  0.64868  1.0000
  C   C1799     1.0  0.88542  0.33880  0.63768  1.0000
  C   C1800     1.0  0.85317  0.39391  0.63084  1.0000
  H   H1774     1.0  0.85489  0.36786  0.61212  1.0000
  H   H1775     1.0  0.87574  0.37818  0.65503  1.0000
  H   H1776     1.0  0.87399  0.33585  0.61561  1.0000
  H   H1777     1.0  0.89435  0.34603  0.65936  1.0000
  H   H1778     1.0  0.89329  0.32454  0.63957  1.0000
  H   H1779     1.0  0.83930  0.39403  0.62833  1.0000
  H   H1780     1.0  0.85047  0.39978  0.64360  1.0000
  H   H1781     1.0  0.86047  0.40303  0.61889  1.0000
  H   H1782     1.0  0.84585  0.28152  0.49021  1.0000
  H   H1783     1.0  0.78340  0.49098  0.69211  1.0000
  C   C1801     1.0  0.82963  0.99809  0.59847  1.0000
  H   H1784     1.0  0.73643  0.31993  0.53865  1.0000
  C   C1802     1.0  0.84275  0.05711  0.66450  1.0000
  H   H1785     1.0  0.83901  0.03135  0.54100  1.0000
  C   C1803     1.0  0.93393  0.20518  0.51008  1.0000
  C   C1804     1.0  0.74126  0.22653  0.51175  1.0000
  C   C1805     1.0  0.73031  0.31298  0.53150  1.0000
  H   H1786     1.0  0.76693  0.35909  0.63436  1.0000
  C   C1806     1.0  0.77180  0.33180  0.65191  1.0000
  H   H1787     1.0  0.88999  0.16670  0.59026  1.0000
  C   C1807     1.0  0.92415  0.08281  0.52504  1.0000
  H   H1788     1.0  0.80646  0.47707  0.69353  1.0000
  H   H1789     1.0  0.87459  0.10462  0.50357  1.0000
  H   H1790     1.0  0.73876  0.21046  0.53968  1.0000
  C   C1808     1.0  0.73701  0.19492  0.50241  1.0000
  H   H1791     1.0  0.67071  0.18506  0.66884  1.0000
  C   C1809     1.0  0.84586  0.48426  0.71517  1.0000
  H   H1792     1.0  0.81132  0.32715  0.50038  1.0000
  H   H1793     1.0  0.91450  0.45966  0.73553  1.0000
  H   H1794     1.0  0.71914  0.27370  0.49786  1.0000
  H   H1795     1.0  0.87161  0.07883  0.49052  1.0000
  C   C1810     1.0  0.87845  0.24337  0.50279  1.0000
  C   C1811     1.0  0.79228  0.48158  0.70170  1.0000
  C   C1812     1.0  0.92873  0.08000  0.49304  1.0000
  H   H1796     1.0  0.82074  0.02596  0.56069  1.0000
  H   H1797     1.0  0.77259  0.28688  0.67370  1.0000
  C   C1813     1.0  0.72230  0.31030  0.50352  1.0000
  C   C1814     1.0  0.74977  0.32219  0.63310  1.0000
  N   N147      1.0  0.71513  0.29493  0.51299  1.0000
  C   C1815     1.0  0.74156  0.22659  0.49321  1.0000
  N   N148      1.0  0.76853  0.31412  0.65635  1.0000
  C   C1816     1.0  0.72989  0.31960  0.51264  1.0000
  H   H1798     1.0  0.79260  0.29720  0.66564  1.0000
  H   H1799     1.0  0.95917  0.21377  0.50944  1.0000
  C   C1817     1.0  0.76398  0.34518  0.63804  1.0000
  C   C1818     1.0  0.79914  0.08130  0.56197  1.0000
  C   C1819     1.0  0.75299  0.34028  0.62853  1.0000
  H   H1800     1.0  0.74725  0.35038  0.61741  1.0000
  C   C1820     1.0  0.89576  0.42136  0.72513  1.0000
  H   H1801     1.0  0.69618  0.27861  0.51236  1.0000
  C   C1821     1.0  0.91789  0.06609  0.53074  1.0000
  C   C1822     1.0  0.70787  0.28489  0.50308  1.0000
  H   H1802     1.0  0.87257  0.99775  0.60490  1.0000
  H   H1803     1.0  0.73497  0.18275  0.49868  1.0000
  H   H1804     1.0  0.91323  0.06071  0.54545  1.0000
  H   H1805     1.0  0.91122  0.04421  0.52183  1.0000
  C   C1823     1.0  0.73457  0.17825  0.53496  1.0000
  C   C1824     1.0  0.86390  0.07774  0.65942  1.0000
  C   C1825     1.0  0.80950  0.08285  0.52884  1.0000
  N   N149      1.0  0.89174  0.28000  0.56908  1.0000
  C   C1826     1.0  0.88580  0.26482  0.58094  1.0000
  Fe  Fe306     1.0  0.79950  0.42837  0.72730  1.0000
  C   C1827     1.0  0.89840  0.24803  0.58475  1.0000
  C   C1828     1.0  0.92319  0.26247  0.56464  1.0000
  C   C1829     1.0  0.91720  0.24696  0.57662  1.0000
  H   H1806     1.0  0.87129  0.26569  0.58777  1.0000
  H   H1807     1.0  0.89374  0.23606  0.59437  1.0000
  H   H1808     1.0  0.93782  0.26154  0.55817  1.0000
  H   H1809     1.0  0.92717  0.23414  0.57969  1.0000
  H   H1810     1.0  0.88352  0.30709  0.55265  1.0000
  N   N150      1.0  0.89650  0.15011  0.54426  1.0000
  C   C1830     1.0  0.88112  0.14772  0.55799  1.0000
  C   C1831     1.0  0.90989  0.15772  0.54700  1.0000
  C   C1832     1.0  0.87845  0.15379  0.57468  1.0000
  C   C1833     1.0  0.90764  0.16401  0.56346  1.0000
  C   C1834     1.0  0.89172  0.16218  0.57729  1.0000
  C   C1835     1.0  0.89910  0.14355  0.52693  1.0000
  H   H1811     1.0  0.87087  0.14103  0.55607  1.0000
  H   H1812     1.0  0.92229  0.15929  0.53630  1.0000
  H   H1813     1.0  0.86638  0.15166  0.58568  1.0000
  H   H1814     1.0  0.90737  0.15192  0.51507  1.0000
  H   H1815     1.0  0.88550  0.14490  0.52317  1.0000
  C   C1836     1.0  0.89775  0.45362  0.71966  1.0000
  C   C1837     1.0  0.94531  0.21248  0.51723  1.0000
  H   H1816     1.0  0.70255  0.29435  0.49091  1.0000
  C   C1838     1.0  0.91020  0.27905  0.56110  1.0000
  S   S614      1.0  0.86262  0.03567  0.60970  1.0000
  H   H1817     1.0  0.67420  0.23919  0.63487  1.0000
  H   H1818     1.0  0.74160  0.31804  0.62554  1.0000
  H   H1819     1.0  0.74851  0.16989  0.53697  1.0000
  H   H1820     1.0  0.82774  0.05823  0.52067  1.0000
  H   H1821     1.0  0.75538  0.29509  0.65035  1.0000
  H   H1822     1.0  0.88317  0.04366  0.63501  1.0000
  H   H1823     1.0  0.90653  0.06041  0.64121  1.0000
  H   H1824     1.0  0.72677  0.16960  0.53114  1.0000
  C   C1839     1.0  0.80929  0.06297  0.56497  1.0000
  C   C1840     1.0  0.73892  0.21046  0.52530  1.0000
  C   C1841     1.0  0.87831  0.29756  0.56560  1.0000
  C   C1842     1.0  0.87314  0.05175  0.64454  1.0000
  N   N151      1.0  0.73661  0.19503  0.52057  1.0000
  H   H1825     1.0  0.89540  0.07748  0.62379  1.0000
  H   H1826     1.0  0.91499  0.29113  0.55196  1.0000
  H   H1827     1.0  0.87522  0.30475  0.57750  1.0000
  C   C1843     1.0  0.89486  0.07245  0.63897  1.0000
  C   C1844     1.0  0.75763  0.30924  0.64719  1.0000
  C   C1845     1.0  0.71559  0.28829  0.53146  1.0000
  N   N152      1.0  0.87693  0.06713  0.64803  1.0000
  C   C1846     1.0  0.85608  0.04642  0.65283  1.0000
  H   H1828     1.0  0.89695  0.08397  0.64441  1.0000
  H   H1829     1.0  0.83981  0.03464  0.56336  1.0000
  H   H1830     1.0  0.85305  0.03439  0.64972  1.0000
  H   H1831     1.0  0.79142  0.10548  0.54128  1.0000
  H   H1832     1.0  0.80911  0.05533  0.57915  1.0000
  H   H1833     1.0  0.82929  0.05340  0.67058  1.0000
  H   H1834     1.0  0.77391  0.30558  0.68380  1.0000
  H   H1835     1.0  0.86512  0.29500  0.56384  1.0000
  H   H1836     1.0  0.79138  0.08779  0.57372  1.0000
  H   H1837     1.0  0.74267  0.23885  0.51566  1.0000
  H   H1838     1.0  0.86662  0.09028  0.66175  1.0000
  N   N153      1.0  0.79329  0.49123  0.71585  1.0000
  H   H1839     1.0  0.80653  0.02149  0.59970  1.0000
  H   H1840     1.0  0.78627  0.46893  0.70802  1.0000
  C   C1847     1.0  0.77726  0.30031  0.67065  1.0000
  C   C1848     1.0  0.84663  0.07292  0.66780  1.0000
  C   C1849     1.0  0.72310  0.29724  0.54101  1.0000
  S   S615      1.0  0.69204  0.18206  0.50550  1.0000
  C   C1850     1.0  0.83106  0.02809  0.60393  1.0000
  H   H1841     1.0  0.83620  0.08164  0.67643  1.0000
  H   H1842     1.0  0.88122  0.44348  0.70657  1.0000
  Fe  Fe307     1.0  0.97837  0.18460  0.60078  1.0000
  H   H1843     1.0  0.80949  0.09039  0.51462  1.0000
  H   H1844     1.0  0.73574  0.33168  0.50505  1.0000
  C   C1851     1.0  0.84971  0.02144  0.60536  1.0000
  H   H1845     1.0  0.78078  0.33560  0.65886  1.0000
  S   S616      1.0  0.81528  0.39891  0.73401  1.0000
  H   H1846     1.0  0.89020  0.41052  0.72273  1.0000
  H   H1847     1.0  0.93906  0.20090  0.49679  1.0000
  N   N154      1.0  0.92170  0.06410  0.49873  1.0000
  H   H1848     1.0  0.75255  0.11454  0.49380  1.0000
  C   C1852     1.0  0.78466  0.48625  0.73403  1.0000
  H   H1849     1.0  0.93450  0.10286  0.50137  1.0000
  C   C1853     1.0  0.89078  0.43981  0.71606  1.0000
  S   S617      1.0  0.76927  0.44062  0.73646  1.0000
  C   C1854     1.0  0.83977  0.47817  0.73421  1.0000
  C   C1855     1.0  0.90962  0.44876  0.73235  1.0000
  H   H1850     1.0  0.90631  0.04977  0.48913  1.0000
  H   H1851     1.0  0.99334  0.21156  0.54021  1.0000
  H   H1852     1.0  0.77717  0.47494  0.73823  1.0000
  C   C1856     1.0  0.90751  0.41703  0.73784  1.0000
  C   C1857     1.0  0.85849  0.27083  0.48904  1.0000
  Fe  Fe308     1.0  0.90326  0.45811  0.83813  1.0000
  S   S618      1.0  0.91999  0.46404  0.80926  1.0000
  S   S619      1.0  0.88929  0.48149  0.85310  1.0000
  Fe  Fe309     1.0  0.90834  0.41739  0.83852  1.0000
  S   S620      1.0  0.92565  0.41951  0.80949  1.0000
  S   S621      1.0  0.90134  0.39044  0.85551  1.0000
  Fe  Fe310     1.0  0.93967  0.43765  0.81849  1.0000
  Fe  Fe311     1.0  0.90451  0.44557  0.80311  1.0000
  S   S622      1.0  0.89221  0.45476  0.77759  1.0000
  S   S623      1.0  0.92412  0.43316  0.84821  1.0000
  S   S624      1.0  0.88590  0.44194  0.83127  1.0000
  S   S625      1.0  0.82993  0.44975  0.91257  1.0000
  S   S626      1.0  0.78152  0.46201  0.90200  1.0000
  Fe  Fe312     1.0  0.83179  0.42556  0.93651  1.0000
  S   S627      1.0  0.84887  0.39710  0.93385  1.0000
  Fe  Fe313     1.0  0.72098  0.41017  0.87461  1.0000
  S   S628      1.0  0.72880  0.42807  0.84660  1.0000
  S   S629      1.0  0.73807  0.40278  0.89686  1.0000
  Fe  Fe314     1.0  0.68556  0.40435  0.86561  1.0000
  S   S630      1.0  0.69017  0.42278  0.83730  1.0000
  C   C1858     1.0  0.69437  0.37526  0.81111  1.0000
  Fe  Fe315     1.0  0.71990  0.40765  0.83541  1.0000
  S   S631      1.0  0.73617  0.39227  0.81266  1.0000
  Fe  Fe316     1.0  0.69841  0.44149  0.85160  1.0000
  S   S632      1.0  0.68923  0.47283  0.84728  1.0000
  S   S633      1.0  0.71500  0.38837  0.86303  1.0000
  S   S634      1.0  0.69095  0.42442  0.88019  1.0000
  C   C1859     1.0  0.85290  0.48303  0.95892  1.0000
  H   H1853     1.0  0.87963  0.45058  0.88752  1.0000
  S   S635      1.0  0.84622  0.39963  0.76919  1.0000
  H   H1854     1.0  0.91086  0.40275  0.74523  1.0000
  H   H1855     1.0  0.85262  0.43521  0.74789  1.0000
  C   C1860     1.0  0.93349  0.45730  0.90464  1.0000
  N   N155      1.0  0.69190  0.45733  0.91692  1.0000
  C   C1861     1.0  0.87923  0.45825  0.89839  1.0000
  C   C1862     1.0  0.71037  0.47517  0.87112  1.0000
  C   C1863     1.0  0.92660  0.42554  0.75471  1.0000
  H   H1856     1.0  0.91036  0.43380  0.88850  1.0000
  H   H1857     1.0  0.66456  0.32981  0.85623  1.0000
  C   C1864     1.0  0.68740  0.48707  0.92510  1.0000
  H   H1858     1.0  0.71582  0.46045  0.87170  1.0000
  H   H1859     1.0  0.72593  0.47725  0.89050  1.0000
  C   C1865     1.0  0.74425  0.40591  0.79118  1.0000
  C   C1866     1.0  0.73776  0.42519  0.78729  1.0000
  C   C1867     1.0  0.74510  0.43581  0.77018  1.0000
  C   C1868     1.0  0.85621  0.48871  0.97381  1.0000
  C   C1869     1.0  0.76563  0.40792  0.76118  1.0000
  C   C1870     1.0  0.75800  0.39727  0.77802  1.0000
  H   H1860     1.0  0.72704  0.43190  0.79739  1.0000
  H   H1861     1.0  0.74001  0.45072  0.76711  1.0000
  H   H1862     1.0  0.71193  0.43353  0.92680  1.0000
  H   H1863     1.0  0.76294  0.38234  0.78095  1.0000
  H   H1864     1.0  0.77896  0.49133  0.76198  1.0000
  H   H1865     1.0  0.84436  0.43437  0.84941  1.0000
  Fe  Fe317     1.0  0.79921  0.45421  0.92381  1.0000
  H   H1866     1.0  0.80683  0.42431  0.90205  1.0000
  H   H1867     1.0  0.87083  0.45234  0.91184  1.0000
  H   H1868     1.0  0.66651  0.34883  0.80628  1.0000
  H   H1869     1.0  0.66745  0.19724  0.96154  1.0000
  C   C1871     1.0  0.76920  0.44560  0.90093  1.0000
  C   C1872     1.0  0.76808  0.42951  0.91474  1.0000
  C   C1873     1.0  0.75866  0.41638  0.91326  1.0000
  C   C1874     1.0  0.75015  0.41932  0.89806  1.0000
  C   C1875     1.0  0.75116  0.43547  0.88433  1.0000
  C   C1876     1.0  0.76067  0.44857  0.88575  1.0000
  H   H1870     1.0  0.77432  0.42721  0.92665  1.0000
  H   H1871     1.0  0.75780  0.40398  0.92401  1.0000
  H   H1872     1.0  0.74471  0.43785  0.87255  1.0000
  H   H1873     1.0  0.76145  0.46098  0.87502  1.0000
  H   H1874     1.0  0.71131  0.43758  0.90257  1.0000
  H   H1875     1.0  0.83358  0.48430  0.76160  1.0000
  H   H1876     1.0  0.77618  0.40113  0.75107  1.0000
  C   C1877     1.0  0.93059  0.44394  0.89648  1.0000
  H   H1877     1.0  0.81388  0.39475  0.92283  1.0000
  N   N156      1.0  0.67676  0.34609  0.83082  1.0000
  C   C1878     1.0  0.87857  0.43970  0.77646  1.0000
  C   C1879     1.0  0.86898  0.44431  0.76192  1.0000
  C   C1880     1.0  0.85927  0.43188  0.75964  1.0000
  C   C1881     1.0  0.85856  0.41501  0.77225  1.0000
  C   C1882     1.0  0.86785  0.41048  0.78711  1.0000
  C   C1883     1.0  0.87796  0.42279  0.78917  1.0000
  H   H1878     1.0  0.94747  0.45771  0.90543  1.0000
  C   C1884     1.0  0.70254  0.43829  0.91665  1.0000
  H   H1879     1.0  0.86743  0.39736  0.79687  1.0000
  H   H1880     1.0  0.88544  0.41906  0.80042  1.0000
  C   C1885     1.0  0.88827  0.39253  0.87785  1.0000
  C   C1886     1.0  0.88093  0.41005  0.88258  1.0000
  C   C1887     1.0  0.86911  0.41154  0.89997  1.0000
  C   C1888     1.0  0.86480  0.39557  0.91268  1.0000
  C   C1889     1.0  0.87268  0.37804  0.90815  1.0000
  C   C1890     1.0  0.88428  0.37654  0.89071  1.0000
  H   H1881     1.0  0.88397  0.42243  0.87266  1.0000
  H   H1882     1.0  0.86329  0.42500  0.90354  1.0000
  H   H1883     1.0  0.86952  0.36562  0.91798  1.0000
  H   H1884     1.0  0.89003  0.36297  0.88711  1.0000
  C   C1891     1.0  0.81918  0.38770  0.91070  1.0000
  H   H1885     1.0  0.67424  0.45549  0.89978  1.0000
  C   C1892     1.0  0.92483  0.47994  0.85606  1.0000
  H   H1886     1.0  0.68822  0.34684  0.85360  1.0000
  H   H1887     1.0  0.83049  0.37582  0.91465  1.0000
  Fe  Fe318     1.0  0.80415  0.44748  0.96393  1.0000
  H   H1888     1.0  0.95242  0.47743  0.86042  1.0000
  H   H1889     1.0  0.92914  0.46909  0.84802  1.0000
  C   C1893     1.0  0.69736  0.48462  0.86000  1.0000
  H   H1890     1.0  0.84683  0.37915  0.88233  1.0000
  H   H1891     1.0  0.97933  0.44103  0.86934  1.0000
  H   H1892     1.0  0.92058  0.48126  0.91718  1.0000
  H   H1893     1.0  0.85874  0.40060  0.85387  1.0000
  H   H1894     1.0  0.68203  0.37483  0.78854  1.0000
  N   N157      1.0  0.82623  0.40052  0.89390  1.0000
  H   H1895     1.0  0.80775  0.38240  0.90838  1.0000
  H   H1896     1.0  0.84953  0.46959  0.96111  1.0000
  C   C1894     1.0  0.69686  0.46856  0.92567  1.0000
  C   C1895     1.0  0.84033  0.39382  0.88040  1.0000
  C   C1896     1.0  0.67509  0.35374  0.81277  1.0000
  C   C1897     1.0  0.82438  0.43149  0.87540  1.0000
  S   S636      1.0  0.79968  0.47337  0.94196  1.0000
  C   C1898     1.0  0.83861  0.48922  0.74690  1.0000
  H   H1897     1.0  0.91957  0.41832  0.76836  1.0000
  H   H1898     1.0  0.70112  0.38679  0.80355  1.0000
  H   H1899     1.0  0.85899  0.47627  0.80467  1.0000
  C   C1899     1.0  0.81809  0.41903  0.89144  1.0000
  N   N158      1.0  0.78529  0.40556  0.80174  1.0000
  C   C1900     1.0  0.77826  0.39292  0.81650  1.0000
  C   C1901     1.0  0.79934  0.39967  0.78780  1.0000
  C   C1902     1.0  0.78472  0.37380  0.81711  1.0000
  C   C1903     1.0  0.80629  0.38066  0.78808  1.0000
  C   C1904     1.0  0.79883  0.36767  0.80277  1.0000
  C   C1905     1.0  0.77821  0.42555  0.80112  1.0000
  H   H1900     1.0  0.76707  0.39754  0.82756  1.0000
  H   H1901     1.0  0.80517  0.40968  0.77628  1.0000
  H   H1902     1.0  0.77855  0.36388  0.82848  1.0000
  H   H1903     1.0  0.81744  0.37612  0.77694  1.0000
  H   H1904     1.0  0.80394  0.35289  0.80302  1.0000
  H   H1905     1.0  0.77790  0.43311  0.78653  1.0000
  H   H1906     1.0  0.76365  0.42834  0.80915  1.0000
  H   H1907     1.0  0.78720  0.43113  0.80695  1.0000
  H   H1908     1.0  0.92998  0.43798  0.75737  1.0000
  S   S637      1.0  0.97046  0.43680  0.80855  1.0000
  C   C1906     1.0  0.75922  0.42719  0.75723  1.0000
  S   S638      1.0  0.83530  0.44170  0.95600  1.0000
  H   H1909     1.0  0.85891  0.48479  0.78048  1.0000
  C   C1907     1.0  0.67776  0.46415  0.90730  1.0000
  H   H1910     1.0  0.96108  0.43676  0.84832  1.0000
  H   H1911     1.0  0.67742  0.31703  0.83804  1.0000
  H   H1912     1.0  0.81795  0.44619  0.87376  1.0000
  Fe  Fe319     1.0  0.83442  0.41133  0.74326  1.0000
  C   C1908     1.0  0.83907  0.42486  0.86177  1.0000
  S   S639      1.0  0.84743  0.48897  0.92325  1.0000
  C   C1909     1.0  0.69610  0.36727  0.82945  1.0000
  S   S640      1.0  0.80092  0.42877  0.94657  1.0000
  C   C1910     1.0  0.84706  0.40589  0.86421  1.0000
  Fe  Fe320     1.0  0.83073  0.46643  0.93283  1.0000
  C   C1911     1.0  0.93806  0.48475  0.86296  1.0000
  N   N159      1.0  0.89795  0.45771  0.90071  1.0000
  H   H1913     1.0  0.70409  0.37263  0.83616  1.0000
  H   H1914     1.0  0.70857  0.46344  0.93262  1.0000
  C   C1912     1.0  0.66815  0.48265  0.90628  1.0000
  C   C1913     1.0  0.97458  0.44027  0.84263  1.0000
  C   C1914     1.0  0.98200  0.44187  0.82353  1.0000
  H   H1915     1.0  0.87221  0.47284  0.89356  1.0000
  C   C1915     1.0  0.68377  0.36850  0.80268  1.0000
  C   C1916     1.0  0.91256  0.44422  0.89482  1.0000
  C   C1917     1.0  0.71605  0.48472  0.88174  1.0000
  C   C1918     1.0  0.68716  0.35261  0.83918  1.0000
  H   H1916     1.0  0.86941  0.45738  0.75214  1.0000
  H   H1917     1.0  0.69309  0.42832  0.92003  1.0000
  H   H1918     1.0  0.85523  0.47968  0.98742  1.0000
  H   H1919     1.0  0.93980  0.41625  0.74953  1.0000
  C   C1919     1.0  0.98498  0.44260  0.85453  1.0000
  S   S641      1.0  0.66334  0.38694  0.87720  1.0000
  H   H1920     1.0  0.88892  0.48118  0.91388  1.0000
  C   C1920     1.0  0.85805  0.48914  0.79373  1.0000
  H   H1921     1.0  0.94225  0.43367  0.89113  1.0000
  C   C1921     1.0  0.91838  0.47056  0.91124  1.0000
  N   N160      1.0  0.91431  0.43064  0.74128  1.0000
  C   C1922     1.0  0.90615  0.48896  0.85980  1.0000
  H   H1922     1.0  0.98538  0.48789  0.85720  1.0000
  C   C1923     1.0  0.66801  0.33027  0.84095  1.0000
  C   C1924     1.0  0.90057  0.47055  0.90918  1.0000
  S   S642      1.0  0.81678  0.43993  0.73956  1.0000
  H   H1923     1.0  0.83584  0.46495  0.73931  1.0000
  Fe  Fe321     1.0  0.82251  0.53350  0.16890  1.0000
  S   S643      1.0  0.85240  0.52601  0.15493  1.0000
  S   S644      1.0  0.80560  0.51176  0.18373  1.0000
  Fe  Fe322     1.0  0.82205  0.57446  0.15798  1.0000
  S   S645      1.0  0.85219  0.57074  0.14354  1.0000
  S   S646      1.0  0.80180  0.60177  0.15659  1.0000
  Fe  Fe323     1.0  0.84538  0.54956  0.13152  1.0000
  S   S647      1.0  0.85700  0.54695  0.10142  1.0000
  Fe  Fe324     1.0  0.85660  0.54766  0.16827  1.0000
  S   S648      1.0  0.88025  0.53855  0.18377  1.0000
  S   S649      1.0  0.81503  0.55496  0.14427  1.0000
  S   S650      1.0  0.82706  0.55338  0.18390  1.0000
  Fe  Fe325     1.0  0.93650  0.58170  0.22361  1.0000
  C   C1925     1.0  0.77702  0.50552  0.14030  1.0000
  S   S651      1.0  0.91080  0.59524  0.21158  1.0000
  C   C1926     1.0  0.82356  0.51401  0.11204  1.0000
  H   H1924     1.0  0.79772  0.60965  0.11464  1.0000
  N   N161      1.0  0.80854  0.60633  0.08637  1.0000
  H   H1925     1.0  0.91834  0.54059  0.16451  1.0000
  C   C1927     1.0  0.94494  0.50517  0.23253  1.0000
  H   H1926     1.0  0.81908  0.51747  0.12578  1.0000
  H   H1927     1.0  0.79033  0.60490  0.06952  1.0000
  S   S652      1.0  0.96164  0.56610  0.20677  1.0000
  H   H1928     1.0  0.82860  0.60215  0.12274  1.0000
  N   N162      1.0  0.73846  0.51684  0.18900  1.0000
  S   S653      1.0  0.81053  0.54093  0.00997  1.0000
  S   S654      1.0  0.72176  0.58768  0.19856  1.0000
  C   C1928     1.0  0.91559  0.50958  0.15579  1.0000
  C   C1929     1.0  0.67184  0.60514  0.22238  1.0000
  H   H1929     1.0  0.78227  0.49898  0.22002  1.0000
  C   C1930     1.0  0.70240  0.50700  0.23223  1.0000
  C   C1931     1.0  0.81812  0.56409  0.05992  1.0000
  C   C1932     1.0  0.83467  0.50570  0.07667  1.0000
  C   C1933     1.0  0.73467  0.52532  0.17178  1.0000
  H   H1930     1.0  0.69938  0.62350  0.21373  1.0000
  C   C1934     1.0  0.82417  0.60260  0.07299  1.0000
  Fe  Fe326     1.0  0.97808  0.57675  0.22123  1.0000
  C   C1935     1.0  0.84895  0.55195  0.06698  1.0000
  C   C1936     1.0  0.79387  0.50926  0.16770  1.0000
  C   C1937     1.0  0.83719  0.55762  0.05403  1.0000
  H   H1931     1.0  0.80648  0.50640  0.06214  1.0000
  H   H1932     1.0  0.73597  0.54230  0.19767  1.0000
  N   N163      1.0  0.81641  0.51312  0.08312  1.0000
  H   H1933     1.0  0.86376  0.54730  0.06232  1.0000
  C   C1938     1.0  0.95653  0.51604  0.18164  1.0000
  H   H1934     1.0  0.76716  0.53524  0.13661  1.0000
  H   H1935     1.0  0.85703  0.59333  0.09919  1.0000
  N   N164      1.0  0.93019  0.51193  0.16402  1.0000
  C   C1939     1.0  0.81004  0.60644  0.10400  1.0000
  Fe  Fe327     1.0  0.72150  0.57245  0.22809  1.0000
  S   S655      1.0  0.86040  0.51478  0.99068  1.0000
  C   C1940     1.0  0.94253  0.53116  0.17678  1.0000
  S   S656      1.0  0.96529  0.51390  0.22795  1.0000
  H   H1936     1.0  0.84297  0.55745  0.03945  1.0000
  H   H1937     1.0  0.79650  0.52403  0.10526  1.0000
  C   C1941     1.0  0.79009  0.61084  0.08168  1.0000
  S   S657      1.0  0.84259  0.56641  0.99783  1.0000
  S   S658      1.0  0.80330  0.57361  0.04391  1.0000
  C   C1942     1.0  0.84346  0.59748  0.09543  1.0000
  H   H1938     1.0  0.79806  0.52434  0.21901  1.0000
  H   H1939     1.0  0.78526  0.62618  0.07830  1.0000
  H   H1940     1.0  0.83912  0.50233  0.06288  1.0000
  C   C1943     1.0  0.80510  0.50541  0.99317  1.0000
  H   H1941     1.0  0.77987  0.60479  0.09352  1.0000
  C   C1944     1.0  0.77957  0.59777  0.16825  1.0000
  C   C1945     1.0  0.76372  0.61127  0.16484  1.0000
  C   C1946     1.0  0.74594  0.60797  0.17393  1.0000
  C   C1947     1.0  0.74401  0.59142  0.18687  1.0000
  C   C1948     1.0  0.75984  0.57794  0.19030  1.0000
  C   C1949     1.0  0.77757  0.58100  0.18079  1.0000
  H   H1942     1.0  0.76519  0.62422  0.15512  1.0000
  H   H1943     1.0  0.73372  0.61841  0.17120  1.0000
  H   H1944     1.0  0.75846  0.56505  0.20009  1.0000
  H   H1945     1.0  0.78966  0.57047  0.18341  1.0000
  C   C1950     1.0  0.88736  0.55459  0.19247  1.0000
  C   C1951     1.0  0.90125  0.54792  0.20308  1.0000
  C   C1952     1.0  0.90852  0.56031  0.20887  1.0000
  C   C1953     1.0  0.90166  0.57951  0.20448  1.0000
  C   C1954     1.0  0.88729  0.58618  0.19441  1.0000
  C   C1955     1.0  0.88023  0.57375  0.18830  1.0000
  H   H1946     1.0  0.90666  0.53308  0.20660  1.0000
  H   H1947     1.0  0.91953  0.55496  0.21665  1.0000
  H   H1948     1.0  0.88190  0.60100  0.19097  1.0000
  H   H1949     1.0  0.86951  0.57903  0.18011  1.0000
  C   C1956     1.0  0.84169  0.55274  0.08583  1.0000
  C   C1957     1.0  0.82252  0.55862  0.09176  1.0000
  C   C1958     1.0  0.81076  0.56411  0.07887  1.0000
  H   H1950     1.0  0.81674  0.55920  0.10619  1.0000
  H   H1951     1.0  0.79596  0.56881  0.08356  1.0000
  C   C1959     1.0  0.81084  0.51760  0.10040  1.0000
  C   C1960     1.0  0.78348  0.52494  0.15797  1.0000
  C   C1961     1.0  0.77502  0.52306  0.14428  1.0000
  H   H1952     1.0  0.73961  0.52178  0.21523  1.0000
  C   C1962     1.0  0.78207  0.50312  0.23281  1.0000
  H   H1953     1.0  0.85414  0.59393  0.06704  1.0000
  H   H1954     1.0  0.85231  0.50404  0.11427  1.0000
  H   H1955     1.0  0.82300  0.60246  0.05901  1.0000
  H   H1956     1.0  0.68695  0.64501  0.20243  1.0000
  C   C1963     1.0  0.84218  0.50633  0.10563  1.0000
  C   C1964     1.0  0.84184  0.59787  0.07738  1.0000
  H   H1957     1.0  0.78196  0.53854  0.16100  1.0000
  H   H1958     1.0  0.89474  0.57194  0.99260  1.0000
  C   C1965     1.0  0.82751  0.60211  0.10874  1.0000
  Fe  Fe328     1.0  0.95992  0.54324  0.23192  1.0000
  C   C1966     1.0  0.74347  0.52749  0.20006  1.0000
  C   C1967     1.0  0.69443  0.49931  0.22179  1.0000
  Fe  Fe329     1.0  0.81341  0.56801  0.01461  1.0000
  H   H1959     1.0  0.94160  0.54450  0.18023  1.0000
  H   H1960     1.0  0.72804  0.52180  0.14685  1.0000
  C   C1968     1.0  0.92940  0.52884  0.16793  1.0000
  H   H1961     1.0  0.86231  0.49637  0.08271  1.0000
  H   H1962     1.0  0.75870  0.52709  0.19616  1.0000
  C   C1969     1.0  0.73854  0.49827  0.19551  1.0000
  C   C1970     1.0  0.79100  0.51730  0.23225  1.0000
  H   H1963     1.0  0.86745  0.50415  0.18651  1.0000
  S   S659      1.0  0.76714  0.50337  0.12259  1.0000
  S   S660      1.0  0.95310  0.59476  0.23590  1.0000
  H   H1964     1.0  0.68508  0.59544  0.22230  1.0000
  C   C1971     1.0  0.84783  0.50218  0.08783  1.0000
  H   H1965     1.0  0.73518  0.53990  0.16636  1.0000
  H   H1966     1.0  0.78866  0.51605  0.07970  1.0000
  H   H1967     1.0  0.96661  0.51755  0.18880  1.0000
  H   H1968     1.0  0.68509  0.50830  0.21304  1.0000
  C   C1972     1.0  0.73053  0.51521  0.16072  1.0000
  H   H1969     1.0  0.69428  0.62494  0.19138  1.0000
  N   N165      1.0  0.67127  0.62345  0.21407  1.0000
  C   C1973     1.0  0.68876  0.62963  0.20489  1.0000
  C   C1974     1.0  0.80284  0.51688  0.07118  1.0000
  C   C1975     1.0  0.79565  0.49168  0.16393  1.0000
  H   H1970     1.0  0.69911  0.52187  0.23156  1.0000
  H   H1971     1.0  0.80247  0.53102  0.06228  1.0000
  C   C1976     1.0  0.95726  0.49885  0.17758  1.0000
  H   H1972     1.0  0.87024  0.50594  0.21781  1.0000
  H   H1973     1.0  0.90326  0.50696  0.16693  1.0000
  C   C1977     1.0  0.85854  0.49780  0.19877  1.0000
  C   C1978     1.0  0.86021  0.49863  0.21642  1.0000
  H   H1974     1.0  0.92038  0.49768  0.14842  1.0000
  Fe  Fe330     1.0  0.83851  0.54078  0.99117  1.0000
  C   C1979     1.0  0.94389  0.49702  0.16876  1.0000
  S   S661      1.0  0.79986  0.58509  0.99076  1.0000
  H   H1975     1.0  0.91106  0.52230  0.14562  1.0000
  H   H1976     1.0  0.87253  0.60772  0.23340  1.0000
  C   C1980     1.0  0.77020  0.49714  0.99954  1.0000
  C   C1981     1.0  0.79536  0.50086  0.01147  1.0000
  C   C1982     1.0  0.77775  0.49684  0.01464  1.0000
  H   H1977     1.0  0.80161  0.50010  0.02312  1.0000
  C   C1983     1.0  0.73020  0.49637  0.16742  1.0000
  S   S662      1.0  0.74300  0.54860  0.23854  1.0000
  H   H1978     1.0  0.75677  0.49349  0.00184  1.0000
  H   H1979     1.0  0.77021  0.49298  0.02878  1.0000
  H   H1980     1.0  0.81890  0.50823  0.99084  1.0000
  H   H1981     1.0  0.99126  0.60170  0.23874  1.0000
  C   C1984     1.0  0.86152  0.49974  0.31178  1.0000
  C   C1985     1.0  0.66826  0.62111  0.26074  1.0000
  H   H1982     1.0  0.76393  0.53211  0.31313  1.0000
  H   H1983     1.0  0.78187  0.54449  0.37748  1.0000
  H   H1984     1.0  0.66845  0.64926  0.24551  1.0000
  Fe  Fe331     1.0  0.89960  0.82495  0.45673  1.0000
  S   S663      1.0  0.89366  0.83804  0.42823  1.0000
  C   C1986     1.0  0.88478  0.88215  0.47149  1.0000
  Fe  Fe332     1.0  0.95276  0.56921  0.25864  1.0000
  S   S664      1.0  0.91487  0.79527  0.46226  1.0000
  H   H1985     1.0  0.80853  0.59493  0.26530  1.0000
  Fe  Fe333     1.0  0.80765  0.91220  0.44643  1.0000
  S   S665      1.0  0.78027  0.93276  0.44787  1.0000
  S   S666      1.0  0.82777  0.90772  0.41987  1.0000
  H   H1986     1.0  0.83957  0.58733  0.24489  1.0000
  H   H1987     1.0  0.86437  0.85474  0.45621  1.0000
  N   N166      1.0  0.88368  0.89163  0.45227  1.0000
  Fe  Fe334     1.0  0.76936  0.90951  0.46926  1.0000
  S   S667      1.0  0.74161  0.90185  0.47384  1.0000
  Fe  Fe335     1.0  0.78821  0.93965  0.47166  1.0000
  H   H1988     1.0  0.75289  0.56733  0.33241  1.0000
  S   S668      1.0  0.81656  0.92123  0.46826  1.0000
  Fe  Fe336     1.0  0.73817  0.56251  0.26280  1.0000
  S   S669      1.0  0.71531  0.54782  0.27980  1.0000
  S   S670      1.0  0.76484  0.55808  0.27293  1.0000
  C   C1987     1.0  0.81307  0.97746  0.45342  1.0000
  Fe  Fe337     1.0  0.84430  0.59612  0.33205  1.0000
  S   S671      1.0  0.81790  0.61414  0.34425  1.0000
  S   S672      1.0  0.86507  0.61131  0.31138  1.0000
  Fe  Fe338     1.0  0.83128  0.56022  0.35183  1.0000
  S   S673      1.0  0.80408  0.57542  0.36608  1.0000
  S   S674      1.0  0.83760  0.52873  0.35676  1.0000
  Fe  Fe339     1.0  0.80381  0.59428  0.33802  1.0000
  S   S675      1.0  0.77785  0.60441  0.32580  1.0000
  Fe  Fe340     1.0  0.82083  0.59378  0.37102  1.0000
  S   S676      1.0  0.81705  0.60093  0.39940  1.0000
  S   S677      1.0  0.83009  0.57805  0.32346  1.0000
  S   S678      1.0  0.84828  0.57682  0.35913  1.0000
  Fe  Fe341     1.0  0.85977  0.70441  0.44933  1.0000
  H   H1989     1.0  0.88274  0.59460  0.25303  1.0000
  S   S679      1.0  0.88605  0.71498  0.44497  1.0000
  Fe  Fe342     1.0  0.83665  0.68442  0.43577  1.0000
  S   S680      1.0  0.81075  0.69292  0.45696  1.0000
  S   S681      1.0  0.83903  0.67246  0.41020  1.0000
  Fe  Fe343     1.0  0.81870  0.72092  0.44938  1.0000
  S   S682      1.0  0.80267  0.75053  0.44603  1.0000
  C   C1988     1.0  0.99172  0.50783  0.28173  1.0000
  C   C1989     1.0  0.89926  0.60498  0.28897  1.0000
  S   S683      1.0  0.84307  0.71320  0.42704  1.0000
  S   S684      1.0  0.85594  0.67483  0.45626  1.0000
  Fe  Fe344     1.0  0.71410  0.83442  0.43390  1.0000
  S   S685      1.0  0.71750  0.81087  0.45825  1.0000
  S   S686      1.0  0.73672  0.85074  0.42160  1.0000
  Fe  Fe345     1.0  0.67689  0.82824  0.43137  1.0000
  S   S687      1.0  0.67697  0.80450  0.45599  1.0000
  Fe  Fe346     1.0  0.69615  0.57213  0.26558  1.0000
  Fe  Fe347     1.0  0.93052  0.80496  0.47814  1.0000
  C   C1990     1.0  0.86795  0.91558  0.43075  1.0000
  Fe  Fe348     1.0  0.70684  0.79558  0.44273  1.0000
  S   S688      1.0  0.71844  0.76556  0.44119  1.0000
  S   S689      1.0  0.68463  0.84693  0.44588  1.0000
  S   S690      1.0  0.70619  0.81805  0.41716  1.0000
  C   C1991     1.0  0.78007  0.75415  0.44221  1.0000
  C   C1992     1.0  0.77025  0.77244  0.43774  1.0000
  C   C1993     1.0  0.75160  0.77589  0.43632  1.0000
  C   C1994     1.0  0.74260  0.76108  0.43957  1.0000
  C   C1995     1.0  0.75256  0.74273  0.44345  1.0000
  C   C1996     1.0  0.77133  0.73926  0.44476  1.0000
  H   H1990     1.0  0.77699  0.78401  0.43562  1.0000
  H   H1991     1.0  0.74416  0.79007  0.43286  1.0000
  H   H1992     1.0  0.74565  0.73121  0.44595  1.0000
  H   H1993     1.0  0.77887  0.72510  0.44815  1.0000
  H   H1994     1.0  0.71576  0.87901  0.47685  1.0000
  Fe  Fe349     1.0  0.71908  0.53538  0.25477  1.0000
  H   H1995     1.0  0.92619  0.60024  0.27096  1.0000
  Fe  Fe350     1.0  0.68753  0.82211  0.46925  1.0000
  H   H1996     1.0  0.71297  0.83431  0.48471  1.0000
  C   C1997     1.0  0.82051  0.62216  0.40249  1.0000
  C   C1998     1.0  0.81991  0.62442  0.42055  1.0000
  C   C1999     1.0  0.82452  0.64030  0.42334  1.0000
  C   C2000     1.0  0.82979  0.65402  0.40804  1.0000
  C   C2001     1.0  0.82967  0.65206  0.39007  1.0000
  C   C2002     1.0  0.82500  0.63626  0.38729  1.0000
  H   H1997     1.0  0.81634  0.61362  0.43240  1.0000
  H   H1998     1.0  0.82459  0.64161  0.43723  1.0000
  H   H1999     1.0  0.83363  0.66267  0.37817  1.0000
  H   H2000     1.0  0.82523  0.63483  0.37338  1.0000
  C   C2003     1.0  0.76829  0.57202  0.28665  1.0000
  C   C2004     1.0  0.75472  0.58717  0.29191  1.0000
  C   C2005     1.0  0.75798  0.59743  0.30351  1.0000
  C   C2006     1.0  0.77463  0.59233  0.31014  1.0000
  C   C2007     1.0  0.78817  0.57725  0.30473  1.0000
  C   C2008     1.0  0.78509  0.56729  0.29287  1.0000
  H   H2001     1.0  0.74174  0.59097  0.28709  1.0000
  H   H2002     1.0  0.74744  0.60911  0.30764  1.0000
  H   H2003     1.0  0.80097  0.57315  0.30975  1.0000
  H   H2004     1.0  0.79572  0.55573  0.28863  1.0000
  C   C2009     1.0  0.91749  0.59517  0.28400  1.0000
  N   N167      1.0  0.75883  0.53772  0.34020  1.0000
  H   H2005     1.0  0.87709  0.62755  0.34111  1.0000
  C   C2010     1.0  0.77509  0.54262  0.36724  1.0000
  H   H2006     1.0  0.87805  0.91428  0.40173  1.0000
  H   H2007     1.0  0.78034  0.51822  0.27839  1.0000
  H   H2008     1.0  0.68299  0.80828  0.36290  1.0000
  S   S691      1.0  0.87687  0.82185  0.48203  1.0000
  C   C2011     1.0  0.82039  0.59937  0.26710  1.0000
  H   H2009     1.0  0.87551  0.60385  0.35083  1.0000
  H   H2010     1.0  0.85015  0.82685  0.43469  1.0000
  C   C2012     1.0  0.86997  0.90702  0.44897  1.0000
  H   H2011     1.0  0.86257  0.61525  0.27318  1.0000
  H   H2012     1.0  0.83189  0.62310  0.29373  1.0000
  C   C2013     1.0  0.96263  0.49805  0.27298  1.0000
  S   S692      1.0  0.66715  0.58482  0.27943  1.0000
  Fe  Fe351     1.0  0.83056  0.68540  0.47677  1.0000
  C   C2014     1.0  0.80611  0.52140  0.32422  1.0000
  C   C2015     1.0  0.81548  0.52964  0.33273  1.0000
  C   C2016     1.0  0.82516  0.51877  0.34646  1.0000
  H   H2013     1.0  0.66692  0.76843  0.37308  1.0000
  H   H2014     1.0  0.73054  0.75540  0.47718  1.0000
  H   H2015     1.0  0.79852  0.52992  0.31373  1.0000
  H   H2016     1.0  0.81520  0.54440  0.32866  1.0000
  H   H2017     1.0  0.95778  0.83082  0.46154  1.0000
  H   H2018     1.0  0.76666  0.50857  0.35064  1.0000
  C   C2017     1.0  0.74105  0.88686  0.45976  1.0000
  C   C2018     1.0  0.72642  0.87733  0.46446  1.0000
  C   C2019     1.0  0.72545  0.86566  0.45313  1.0000
  C   C2020     1.0  0.73894  0.86371  0.43690  1.0000
  C   C2021     1.0  0.75368  0.87312  0.43227  1.0000
  C   C2022     1.0  0.75484  0.88456  0.44379  1.0000
  H   H2019     1.0  0.90570  0.87145  0.44035  1.0000
  H   H2020     1.0  0.71401  0.85852  0.45675  1.0000
  H   H2021     1.0  0.76413  0.87170  0.41969  1.0000
  H   H2022     1.0  0.76615  0.89194  0.44006  1.0000
  C   C2023     1.0  0.76706  0.55803  0.35525  1.0000
  H   H2023     1.0  0.81360  0.96555  0.44770  1.0000
  H   H2024     1.0  0.89925  0.51299  0.25432  1.0000
  H   H2025     1.0  0.84249  0.98382  0.48673  1.0000
  C   C2024     1.0  0.89201  0.75634  0.46655  1.0000
  C   C2025     1.0  0.89405  0.74402  0.45472  1.0000
  C   C2026     1.0  0.88474  0.72919  0.46061  1.0000
  S   S693      1.0  0.71878  0.58796  0.25065  1.0000
  N   N168      1.0  0.85294  0.60047  0.25816  1.0000
  H   H2026     1.0  0.89877  0.76797  0.46158  1.0000
  H   H2027     1.0  0.90256  0.74619  0.44084  1.0000
  S   S694      1.0  0.83581  0.71415  0.47101  1.0000
  H   H2028     1.0  0.97196  0.58556  0.30407  1.0000
  C   C2027     1.0  0.87387  0.85597  0.42665  1.0000
  C   C2028     1.0  0.86196  0.86179  0.44251  1.0000
  C   C2029     1.0  0.84720  0.87726  0.44060  1.0000
  C   C2030     1.0  0.84444  0.88695  0.42282  1.0000
  C   C2031     1.0  0.85602  0.88075  0.40705  1.0000
  C   C2032     1.0  0.87062  0.86525  0.40896  1.0000
  C   C2033     1.0  0.66994  0.81478  0.37069  1.0000
  H   H2029     1.0  0.83836  0.88205  0.45285  1.0000
  H   H2030     1.0  0.85391  0.88817  0.39330  1.0000
  H   H2031     1.0  0.87974  0.86077  0.39666  1.0000
  H   H2032     1.0  0.70350  0.89273  0.42928  1.0000
  C   C2034     1.0  0.79938  0.98148  0.46896  1.0000
  C   C2035     1.0  0.91316  0.57279  0.31300  1.0000
  C   C2036     1.0  0.98014  0.59345  0.29167  1.0000
  C   C2037     1.0  0.83797  0.59504  0.25571  1.0000
  C   C2038     1.0  0.89463  0.58228  0.31770  1.0000
  C   C2039     1.0  0.88776  0.59850  0.30572  1.0000
  H   H2033     1.0  0.88579  0.57718  0.33064  1.0000
  H   H2034     1.0  0.82162  0.78327  0.43843  1.0000
  C   C2040     1.0  0.66976  0.82105  0.38674  1.0000
  H   H2035     1.0  0.67164  0.89412  0.42140  1.0000
  H   H2036     1.0  0.78122  0.51265  0.37475  1.0000
  H   H2037     1.0  0.94477  0.52038  0.28620  1.0000
  S   S695      1.0  0.96062  0.79148  0.47844  1.0000
  H   H2038     1.0  0.86019  0.91250  0.46045  1.0000
  C   C2041     1.0  0.81817  0.60952  0.28086  1.0000
  C   C2042     1.0  0.66998  0.77071  0.38550  1.0000
  H   H2039     1.0  0.91853  0.56034  0.32230  1.0000
  C   C2043     1.0  0.85079  0.61067  0.27142  1.0000
  H   H2040     1.0  0.98151  0.85049  0.45025  1.0000
  C   C2044     1.0  0.77464  0.52474  0.36579  1.0000
  S   S696      1.0  0.72402  0.50421  0.25757  1.0000
  H   H2041     1.0  0.86765  0.71432  0.48360  1.0000
  C   C2045     1.0  0.70953  0.87560  0.39255  1.0000
  N   N169      1.0  0.87060  0.62067  0.37103  1.0000
  C   C2046     1.0  0.86603  0.60745  0.38645  1.0000
  C   C2047     1.0  0.87505  0.63647  0.37280  1.0000
  C   C2048     1.0  0.86616  0.60972  0.40420  1.0000
  C   C2049     1.0  0.87534  0.63918  0.39035  1.0000
  C   C2050     1.0  0.87084  0.62571  0.40612  1.0000
  C   C2051     1.0  0.86941  0.61839  0.35273  1.0000
  H   H2042     1.0  0.86144  0.59544  0.38518  1.0000
  H   H2043     1.0  0.87782  0.64737  0.36073  1.0000
  H   H2044     1.0  0.86169  0.59962  0.41643  1.0000
  H   H2045     1.0  0.87799  0.65211  0.39187  1.0000
  H   H2046     1.0  0.87004  0.62816  0.41986  1.0000
  H   H2047     1.0  0.71015  0.85709  0.37472  1.0000
  H   H2048     1.0  0.84710  0.50532  0.30940  1.0000
  C   C2052     1.0  0.83454  0.78805  0.43602  1.0000
  H   H2049     1.0  0.68264  0.81944  0.39115  1.0000
  H   H2050     1.0  0.90283  0.88617  0.40795  1.0000
  H   H2051     1.0  0.92172  0.72250  0.48694  1.0000
  S   S697      1.0  0.94739  0.56702  0.28954  1.0000
  C   C2053     1.0  0.89392  0.89251  0.41935  1.0000
  H   H2052     1.0  0.97218  0.59758  0.28028  1.0000
  H   H2053     1.0  0.85461  0.62179  0.35137  1.0000
  H   H2054     1.0  0.98145  0.60648  0.29500  1.0000
  H   H2055     1.0  0.76743  0.57204  0.35611  1.0000
  C   C2054     1.0  0.76636  0.52254  0.35212  1.0000
  S   S698      1.0  0.79600  0.88835  0.46571  1.0000
  C   C2055     1.0  0.85041  0.81261  0.43403  1.0000
  C   C2056     1.0  0.70723  0.89634  0.41381  1.0000
  C   C2057     1.0  0.75199  0.53503  0.32478  1.0000
  C   C2058     1.0  0.80617  0.50230  0.32950  1.0000
  H   H2056     1.0  0.80465  0.61295  0.28986  1.0000
  H   H2057     1.0  0.68319  0.61657  0.25720  1.0000
  C   C2059     1.0  0.89547  0.88423  0.43776  1.0000
  C   C2060     1.0  0.75892  0.55529  0.34177  1.0000
  C   C2061     1.0  0.78098  0.51373  0.26564  1.0000
  H   H2058     1.0  0.82054  0.81593  0.43986  1.0000
  H   H2059     1.0  0.88045  0.89213  0.48108  1.0000
  C   C2062     1.0  0.97204  0.82478  0.46270  1.0000
  H   H2060     1.0  0.89408  0.61760  0.27974  1.0000
  H   H2061     1.0  0.72445  0.87489  0.38853  1.0000
  C   C2063     1.0  0.83343  0.61527  0.28302  1.0000
  C   C2064     1.0  0.83384  0.80648  0.43693  1.0000
  C   C2065     1.0  0.88002  0.90825  0.41587  1.0000
  H   H2062     1.0  0.74470  0.52317  0.32929  1.0000
  H   H2063     1.0  0.68133  0.78010  0.42877  1.0000
  C   C2066     1.0  0.87114  0.59627  0.24582  1.0000
  C   C2067     1.0  0.92453  0.57918  0.29606  1.0000
  C   C2068     1.0  0.68856  0.76716  0.38726  1.0000
  C   C2069     1.0  0.87424  0.72615  0.47875  1.0000
  H   H2064     1.0  0.87075  0.50881  0.30205  1.0000
  C   C2070     1.0  0.95889  0.51266  0.28252  1.0000
  H   H2065     1.0  0.85655  0.92727  0.42818  1.0000
  N   N170      1.0  0.69883  0.88573  0.40559  1.0000
  S   S699      1.0  0.93382  0.55813  0.24798  1.0000
  C   C2071     1.0  0.82532  0.49961  0.35172  1.0000
  C   C2072     1.0  0.68245  0.86598  0.39003  1.0000
  N   N171      1.0  0.85129  0.77618  0.43208  1.0000
  C   C2073     1.0  0.86759  0.78205  0.42933  1.0000
  C   C2074     1.0  0.86741  0.80032  0.43026  1.0000
  C   C2075     1.0  0.85165  0.75684  0.43172  1.0000
  H   H2066     1.0  0.88086  0.77262  0.42635  1.0000
  H   H2067     1.0  0.88037  0.80494  0.42807  1.0000
  H   H2068     1.0  0.84056  0.75605  0.42491  1.0000
  H   H2069     1.0  0.76099  0.76077  0.47841  1.0000
  H   H2070     1.0  0.84940  0.74861  0.44617  1.0000
  C   C2076     1.0  0.91216  0.50628  0.24650  1.0000
  H   H2071     1.0  0.74719  0.50071  0.28628  1.0000
  H   H2072     1.0  0.87559  0.87183  0.47641  1.0000
  H   H2073     1.0  0.74210  0.54763  0.31937  1.0000
  H   H2074     1.0  0.72270  0.89309  0.40994  1.0000
  H   H2075     1.0  0.98698  0.56539  0.27433  1.0000
  H   H2076     1.0  0.89922  0.87476  0.47268  1.0000
  C   C2077     1.0  0.70154  0.86548  0.38468  1.0000
  C   C2078     1.0  0.97715  0.80584  0.47024  1.0000
  H   H2077     1.0  0.70233  0.91151  0.40908  1.0000
  N   N172      1.0  0.77220  0.49990  0.26606  1.0000
  S   S700      1.0  0.69781  0.55803  0.24220  1.0000
  H   H2078     1.0  0.95119  0.49447  0.26945  1.0000
  H   H2079     1.0  0.69970  0.76202  0.37644  1.0000
  S   S701      1.0  0.97880  0.55212  0.24481  1.0000
  S   S702      1.0  0.91755  0.83508  0.46984  1.0000
  C   C2079     1.0  0.92824  0.51353  0.24291  1.0000
  H   H2080     1.0  0.70699  0.76783  0.40458  1.0000
  S   S703      1.0  0.78260  0.96777  0.47932  1.0000
  C   C2080     1.0  0.98552  0.83591  0.45630  1.0000
  S   S704      1.0  0.79298  0.49297  0.31948  1.0000
  H   H2081     1.0  0.86516  0.75013  0.42389  1.0000
  H   H2082     1.0  0.67605  0.85808  0.38419  1.0000
  C   C2081     1.0  0.68009  0.88629  0.41090  1.0000
  C   C2082     1.0  0.97356  0.51752  0.28694  1.0000
  C   C2083     1.0  0.79046  0.52267  0.24875  1.0000
  H   H2083     1.0  0.79679  0.53410  0.24848  1.0000
  C   C2084     1.0  0.88133  0.75345  0.48464  1.0000
  H   H2084     1.0  0.86175  0.50071  0.32616  1.0000
  C   C2085     1.0  0.69266  0.77050  0.40296  1.0000
  C   C2086     1.0  0.67821  0.77741  0.41659  1.0000
  H   H2085     1.0  0.84063  0.96466  0.47803  1.0000
  H   H2086     1.0  0.92765  0.52536  0.24849  1.0000
  C   C2087     1.0  0.71434  0.49537  0.24366  1.0000
  H   H2087     1.0  0.97082  0.52891  0.29423  1.0000
  H   H2088     1.0  0.87313  0.58308  0.24095  1.0000
  H   H2089     1.0  0.83605  0.98640  0.43256  1.0000
  C   C2088     1.0  0.67163  0.87643  0.40322  1.0000
  C   C2089     1.0  0.82574  0.98927  0.44487  1.0000
  H   H2090     1.0  0.94216  0.74538  0.48069  1.0000
  C   C2090     1.0  0.73104  0.76439  0.48608  1.0000
  H   H2091     1.0  0.69752  0.76773  0.48076  1.0000
  C   C2091     1.0  0.77254  0.49462  0.24993  1.0000
  C   C2092     1.0  0.74832  0.76724  0.48687  1.0000
  Fe  Fe352     1.0  0.80253  0.89902  0.48777  1.0000
  C   C2093     1.0  0.76128  0.49172  0.28373  1.0000
  Fe  Fe353     1.0  0.89331  0.79273  0.48866  1.0000
  Fe  Fe354     1.0  0.94522  0.81930  0.60393  1.0000
  S   S705      1.0  0.96368  0.79094  0.60588  1.0000
  S   S706      1.0  0.92113  0.82814  0.62615  1.0000
  Fe  Fe355     1.0  0.96199  0.83182  0.56349  1.0000
  S   S707      1.0  0.98233  0.80474  0.56173  1.0000
  S   S708      1.0  0.95796  0.85599  0.53964  1.0000
  Fe  Fe356     1.0  0.95818  0.79160  0.57798  1.0000
  S   S709      1.0  0.95388  0.76626  0.57033  1.0000
  Fe  Fe357     1.0  0.98632  0.80633  0.58964  1.0000
  C   C2094     1.0  0.74907  0.77872  0.49838  1.0000
  S   S710      1.0  0.93755  0.81857  0.57763  1.0000
  S   S711      1.0  0.96816  0.83483  0.58997  1.0000
  H   H2092     1.0  0.81261  0.89177  0.54643  1.0000
  Fe  Fe358     1.0  0.84963  0.93254  0.56007  1.0000
  S   S712      1.0  0.82030  0.93953  0.57561  1.0000
  S   S713      1.0  0.85788  0.93207  0.52964  1.0000
  Fe  Fe359     1.0  0.86595  0.92377  0.59451  1.0000
  S   S714      1.0  0.83798  0.92985  0.61344  1.0000
  S   S715      1.0  0.89432  0.91500  0.60166  1.0000
  Fe  Fe360     1.0  0.82861  0.91421  0.59686  1.0000
  S   S716      1.0  0.81462  0.88949  0.60763  1.0000
  Fe  Fe361     1.0  0.83213  0.95473  0.59046  1.0000
  S   S717      1.0  0.87904  0.76827  0.50008  1.0000
  S   S718      1.0  0.85719  0.90614  0.58004  1.0000
  S   S719      1.0  0.86084  0.94975  0.57286  1.0000
  H   H2093     1.0  0.85611  0.50642  0.69416  1.0000
  H   H2094     1.0  0.71165  0.89304  0.53069  1.0000
  C   C2095     1.0  0.92299  0.88719  0.56513  1.0000
  C   C2096     1.0  0.82373  0.97341  0.52133  1.0000
  S   S720      1.0  0.81356  0.88081  0.51238  1.0000
  C   C2097     1.0  0.87276  0.73806  0.49082  1.0000
  H   H2095     1.0  0.69613  0.84379  0.64878  1.0000
  H   H2096     1.0  0.68593  0.78299  0.49664  1.0000
  S   S721      1.0  0.83418  0.61091  0.70958  1.0000
  H   H2097     1.0  0.78691  0.95525  0.54853  1.0000
  H   H2098     1.0  0.87960  0.73563  0.54185  1.0000
  N   N173      1.0  0.83721  0.85485  0.55889  1.0000
  Fe  Fe362     1.0  0.86439  0.68267  0.61828  1.0000
  S   S722      1.0  0.84647  0.70954  0.62559  1.0000
  S   S723      1.0  0.87787  0.65769  0.63756  1.0000
  Fe  Fe363     1.0  0.86711  0.69727  0.57658  1.0000
  S   S724      1.0  0.84996  0.72520  0.58031  1.0000
  S   S725      1.0  0.87911  0.69288  0.54727  1.0000
  Fe  Fe364     1.0  0.86614  0.72333  0.60179  1.0000
  S   S726      1.0  0.87323  0.74999  0.60308  1.0000
  Fe  Fe365     1.0  0.83168  0.70939  0.60336  1.0000
  S   S727      1.0  0.80132  0.71977  0.60243  1.0000
  S   S728      1.0  0.88528  0.69667  0.59600  1.0000
  S   S729      1.0  0.84772  0.68115  0.59815  1.0000
  Fe  Fe366     1.0  0.73309  0.86226  0.59226  1.0000
  S   S730      1.0  0.73633  0.89123  0.59094  1.0000
  Fe  Fe367     1.0  0.75059  0.82134  0.60178  1.0000
  S   S731      1.0  0.72883  0.81210  0.59305  1.0000
  S   S732      1.0  0.77572  0.80352  0.61250  1.0000
  Fe  Fe368     1.0  0.73182  0.83577  0.56852  1.0000
  S   S733      1.0  0.73783  0.83383  0.53827  1.0000
  S   S734      1.0  0.75525  0.84330  0.57622  1.0000
  C   C2098     1.0  0.70287  0.82912  0.53847  1.0000
  C   C2099     1.0  0.71992  0.83301  0.52782  1.0000
  H   H2099     1.0  0.93911  0.76168  0.61391  1.0000
  C   C2100     1.0  0.86378  0.68725  0.53653  1.0000
  C   C2101     1.0  0.86886  0.68684  0.51750  1.0000
  H   H2100     1.0  0.88198  0.69023  0.50949  1.0000
  C   C2102     1.0  0.79472  0.74342  0.60399  1.0000
  C   C2103     1.0  0.77857  0.75447  0.59816  1.0000
  C   C2104     1.0  0.77303  0.77325  0.59991  1.0000
  C   C2105     1.0  0.78338  0.78085  0.60791  1.0000
  C   C2106     1.0  0.79966  0.76985  0.61344  1.0000
  C   C2107     1.0  0.80542  0.75126  0.61129  1.0000
  H   H2101     1.0  0.77033  0.74852  0.59235  1.0000
  H   H2102     1.0  0.76053  0.78166  0.59549  1.0000
  H   H2103     1.0  0.80780  0.77566  0.61951  1.0000
  H   H2104     1.0  0.81798  0.74291  0.61568  1.0000
  C   C2108     1.0  0.84667  0.62413  0.69001  1.0000
  C   C2109     1.0  0.83670  0.63865  0.67846  1.0000
  C   C2110     1.0  0.84607  0.64934  0.66256  1.0000
  C   C2111     1.0  0.86551  0.64544  0.65800  1.0000
  C   C2112     1.0  0.87549  0.63091  0.66952  1.0000
  C   C2113     1.0  0.86612  0.62034  0.68553  1.0000
  H   H2105     1.0  0.82165  0.64165  0.68184  1.0000
  H   H2106     1.0  0.83825  0.66049  0.65379  1.0000
  H   H2107     1.0  0.89054  0.62780  0.66604  1.0000
  H   H2108     1.0  0.87393  0.60917  0.69429  1.0000
  C   C2114     1.0  0.84047  0.90121  0.50373  1.0000
  H   H2109     1.0  0.94019  0.90564  0.56572  1.0000
  S   S735      1.0  0.73025  0.84105  0.61881  1.0000
  C   C2115     1.0  0.79289  0.89054  0.60260  1.0000
  C   C2116     1.0  0.78575  0.87424  0.60750  1.0000
  C   C2117     1.0  0.76858  0.87437  0.60362  1.0000
  C   C2118     1.0  0.75817  0.89095  0.59524  1.0000
  C   C2119     1.0  0.76520  0.90733  0.59042  1.0000
  C   C2120     1.0  0.78263  0.90709  0.59393  1.0000
  H   H2110     1.0  0.79350  0.86147  0.61443  1.0000
  H   H2111     1.0  0.76327  0.86169  0.60747  1.0000
  H   H2112     1.0  0.75719  0.92020  0.58395  1.0000
  H   H2113     1.0  0.78795  0.91976  0.59025  1.0000
  N   N174      1.0  0.80216  0.71457  0.53797  1.0000
  H   H2114     1.0  0.86041  0.91900  0.49654  1.0000
  H   H2115     1.0  0.89777  0.72214  0.55412  1.0000
  C   C2121     1.0  0.70506  0.89856  0.63340  1.0000
  N   N175      1.0  0.68783  0.89252  0.63457  1.0000
  H   H2116     1.0  0.81808  0.94682  0.49449  1.0000
  H   H2117     1.0  0.69753  0.88445  0.60818  1.0000
  H   H2118     1.0  0.89944  0.71796  0.51702  1.0000
  H   H2119     1.0  0.95867  0.79313  0.53592  1.0000
  S   S736      1.0  0.67753  0.82298  0.49981  1.0000
  C   C2122     1.0  0.83310  0.90892  0.53941  1.0000
  C   C2123     1.0  0.84636  0.91684  0.52527  1.0000
  C   C2124     1.0  0.85014  0.91290  0.50745  1.0000
  C   C2125     1.0  0.82329  0.89740  0.53562  1.0000
  H   H2120     1.0  0.83012  0.91185  0.55323  1.0000
  C   C2126     1.0  0.80348  0.51536  0.72364  1.0000
  C   C2127     1.0  0.93102  0.76239  0.57711  1.0000
  C   C2128     1.0  0.91616  0.77638  0.58275  1.0000
  C   C2129     1.0  0.89826  0.77263  0.58972  1.0000
  C   C2130     1.0  0.89514  0.75480  0.59136  1.0000
  C   C2131     1.0  0.90984  0.74093  0.58509  1.0000
  C   C2132     1.0  0.92775  0.74478  0.57784  1.0000
  H   H2121     1.0  0.91844  0.79002  0.58205  1.0000
  H   H2122     1.0  0.88689  0.78345  0.59441  1.0000
  H   H2123     1.0  0.90756  0.72710  0.58642  1.0000
  H   H2124     1.0  0.93923  0.73389  0.57349  1.0000
  C   C2133     1.0  0.91334  0.85234  0.62031  1.0000
  C   C2134     1.0  0.89445  0.85993  0.62040  1.0000
  C   C2135     1.0  0.88841  0.87923  0.61480  1.0000
  C   C2136     1.0  0.90121  0.89096  0.60956  1.0000
  C   C2137     1.0  0.92000  0.88338  0.61000  1.0000
  C   C2138     1.0  0.92611  0.86408  0.61505  1.0000
  H   H2125     1.0  0.88451  0.85090  0.62455  1.0000
  H   H2126     1.0  0.87383  0.88505  0.61474  1.0000
  H   H2127     1.0  0.92987  0.89246  0.60611  1.0000
  H   H2128     1.0  0.94064  0.85832  0.61525  1.0000
  C   C2139     1.0  0.71004  0.83290  0.49965  1.0000
  H   H2129     1.0  0.81119  0.52649  0.71949  1.0000
  C   C2140     1.0  0.89194  0.79512  0.63360  1.0000
  H   H2130     1.0  0.84289  0.68274  0.56150  1.0000
  H   H2131     1.0  0.75922  0.89075  0.55294  1.0000
  H   H2132     1.0  0.73191  0.87444  0.50788  1.0000
  Fe  Fe369     1.0  0.89589  0.82970  0.49578  1.0000
  H   H2133     1.0  0.85543  0.96067  0.49454  1.0000
  C   C2141     1.0  0.81571  0.95345  0.50626  1.0000
  C   C2142     1.0  0.93433  0.83778  0.53287  1.0000
  C   C2143     1.0  0.93920  0.85490  0.53064  1.0000
  C   C2144     1.0  0.92839  0.87119  0.52217  1.0000
  H   H2134     1.0  0.94285  0.82517  0.53897  1.0000
  H   H2135     1.0  0.93218  0.88447  0.52031  1.0000
  C   C2145     1.0  0.84208  0.96875  0.49062  1.0000
  H   H2136     1.0  0.86563  0.76272  0.64111  1.0000
  H   H2137     1.0  0.76232  0.78136  0.49885  1.0000
  C   C2146     1.0  0.98943  0.85397  0.61930  1.0000
  C   C2147     1.0  0.90119  0.86795  0.56592  1.0000
  H   H2138     1.0  0.85226  0.64016  0.62474  1.0000
  C   C2148     1.0  0.74382  0.76369  0.63859  1.0000
  H   H2139     1.0  0.92175  0.78974  0.62589  1.0000
  H   H2140     1.0  0.92894  0.74184  0.61873  1.0000
  C   C2149     1.0  0.80930  0.97008  0.53665  1.0000
  C   C2150     1.0  0.91219  0.87036  0.51687  1.0000
  C   C2151     1.0  0.69323  0.82844  0.51028  1.0000
  H   H2141     1.0  0.94029  0.76295  0.50495  1.0000
  N   N176      1.0  0.98125  0.80265  0.51613  1.0000
  C   C2152     1.0  0.73798  0.87818  0.51763  1.0000
  H   H2142     1.0  0.71711  0.88661  0.63251  1.0000
  H   H2143     1.0  0.93572  0.74799  0.63738  1.0000
  C   C2153     1.0  0.67018  0.87911  0.62104  1.0000
  C   C2154     1.0  0.81662  0.73269  0.54982  1.0000
  H   H2144     1.0  0.68194  0.85360  0.67910  1.0000
  H   H2145     1.0  0.70291  0.79011  0.51646  1.0000
  C   C2155     1.0  0.89319  0.73560  0.54492  1.0000
  C   C2156     1.0  0.81238  0.71945  0.52047  1.0000
  C   C2157     1.0  0.67225  0.83395  0.64768  1.0000
  H   H2146     1.0  0.76719  0.84658  0.50909  1.0000
  H   H2147     1.0  0.79271  0.69355  0.53070  1.0000
  S   S737      1.0  0.91007  0.80026  0.50522  1.0000
  H   H2148     1.0  0.79572  0.71758  0.56637  1.0000
  S   S738      1.0  0.68145  0.82743  0.62581  1.0000
  N   N177      1.0  0.75667  0.87265  0.51725  1.0000
  H   H2149     1.0  0.79253  0.94046  0.52111  1.0000
  H   H2150     1.0  0.83752  0.74605  0.52988  1.0000
  C   C2158     1.0  0.90243  0.91809  0.54561  1.0000
  H   H2151     1.0  0.76405  0.86627  0.49015  1.0000
  H   H2152     1.0  0.85494  0.97728  0.59869  1.0000
  H   H2153     1.0  0.92142  0.93347  0.54863  1.0000
  H   H2154     1.0  0.96768  0.83041  0.50600  1.0000
  C   C2159     1.0  0.74886  0.77620  0.64631  1.0000
  H   H2155     1.0  0.70013  0.82744  0.55348  1.0000
  C   C2160     1.0  0.84691  0.68254  0.54682  1.0000
  C   C2161     1.0  0.89754  0.90069  0.54992  1.0000
  H   H2156     1.0  0.69296  0.75831  0.50556  1.0000
  C   C2162     1.0  0.91850  0.83687  0.52716  1.0000
  H   H2157     1.0  0.84343  0.89796  0.49004  1.0000
  H   H2158     1.0  0.91472  0.82356  0.52920  1.0000
  H   H2159     1.0  0.67655  0.82336  0.53800  1.0000
  C   C2163     1.0  0.82747  0.73734  0.53212  1.0000
  N   N178      1.0  0.90761  0.88560  0.55983  1.0000
  H   H2160     1.0  0.90358  0.88299  0.51074  1.0000
  C   C2164     1.0  0.80397  0.72121  0.55252  1.0000
  N   N179      1.0  0.73643  0.79198  0.65032  1.0000
  C   C2165     1.0  0.75313  0.88735  0.54300  1.0000
  H   H2161     1.0  0.72535  0.90138  0.55346  1.0000
  C   C2166     1.0  0.73266  0.78678  0.50929  1.0000
  H   H2162     1.0  0.81796  0.73788  0.56146  1.0000
  C   C2167     1.0  0.93147  0.75293  0.50761  1.0000
  H   H2163     1.0  0.79907  0.84165  0.58863  1.0000
  H   H2164     1.0  0.82410  0.85809  0.58674  1.0000
  C   C2168     1.0  0.76843  0.86135  0.50381  1.0000
  H   H2165     1.0  0.75385  0.75132  0.63522  1.0000
  C   C2169     1.0  0.71898  0.79588  0.64654  1.0000
  H   H2166     1.0  0.74876  0.79735  0.67021  1.0000
  H   H2167     1.0  0.89142  0.86783  0.57962  1.0000
  C   C2170     1.0  0.90856  0.72766  0.51454  1.0000
  C   C2171     1.0  0.74223  0.80495  0.65814  1.0000
  H   H2168     1.0  0.75254  0.81203  0.64736  1.0000
  H   H2169     1.0  0.70915  0.80846  0.64947  1.0000
  S   S739      1.0  0.88711  0.85186  0.51295  1.0000
  C   C2172     1.0  0.96436  0.79503  0.52070  1.0000
  H   H2170     1.0  0.89071  0.80978  0.63335  1.0000
  H   H2171     1.0  0.70459  0.90440  0.64565  1.0000
  C   C2173     1.0  0.73410  0.89330  0.54329  1.0000
  C   C2174     1.0  0.85133  0.50154  0.70891  1.0000
  C   C2175     1.0  0.80964  0.84345  0.57597  1.0000
  C   C2176     1.0  0.82385  0.85266  0.57483  1.0000
  C   C2177     1.0  0.91781  0.91994  0.55138  1.0000
  H   H2172     1.0  0.73028  0.81580  0.66302  1.0000
  H   H2173     1.0  0.96745  0.78136  0.51646  1.0000
  H   H2174     1.0  0.86402  0.85299  0.56347  1.0000
  C   C2178     1.0  0.79800  0.95815  0.53664  1.0000
  H   H2175     1.0  0.89407  0.93013  0.53821  1.0000
  H   H2176     1.0  0.83278  0.98231  0.52162  1.0000
  N   N180      1.0  0.90706  0.73799  0.52753  1.0000
  H   H2177     1.0  0.85502  0.61657  0.62171  1.0000
  H   H2178     1.0  0.84800  0.62808  0.59055  1.0000
  H   H2179     1.0  0.88542  0.89945  0.54555  1.0000
  C   C2179     1.0  0.91855  0.75024  0.52443  1.0000
  C   C2180     1.0  0.86224  0.62826  0.61930  1.0000
  C   C2181     1.0  0.80916  0.83652  0.56070  1.0000
  H   H2180     1.0  0.79821  0.82935  0.56145  1.0000
  C   C2182     1.0  0.85250  0.86369  0.55826  1.0000
  S   S740      1.0  0.70978  0.85681  0.58245  1.0000
  H   H2181     1.0  0.78326  0.86227  0.50136  1.0000
  H   H2182     1.0  0.85790  0.87058  0.54375  1.0000
  H   H2183     1.0  0.86085  0.68227  0.49388  1.0000
  C   C2183     1.0  0.72335  0.83516  0.50838  1.0000
  H   H2184     1.0  0.89685  0.74311  0.63390  1.0000
  S   S741      1.0  0.77492  0.91811  0.49322  1.0000
  C   C2184     1.0  0.68955  0.82682  0.52969  1.0000
  H   H2185     1.0  0.77892  0.87198  0.53002  1.0000
  C   C2185     1.0  0.86077  0.63334  0.58636  1.0000
  H   H2186     1.0  0.87340  0.62339  0.62757  1.0000
  H   H2187     1.0  0.84771  0.87463  0.56686  1.0000
  C   C2186     1.0  0.85690  0.68230  0.50865  1.0000
  C   C2187     1.0  0.71355  0.78382  0.63861  1.0000
  N   N181      1.0  0.86994  0.63420  0.59946  1.0000
  C   C2188     1.0  0.83693  0.84796  0.54391  1.0000
  H   H2188     1.0  0.89078  0.74709  0.55252  1.0000
  C   C2189     1.0  0.82284  0.83883  0.54452  1.0000
  H   H2189     1.0  0.89246  0.64301  0.60458  1.0000
  C   C2190     1.0  0.69696  0.77032  0.49477  1.0000
  C   C2191     1.0  0.88377  0.64664  0.56188  1.0000
  H   H2190     1.0  0.95349  0.80433  0.51325  1.0000
  H   H2191     1.0  0.80715  0.97643  0.54863  1.0000
  C   C2192     1.0  0.86761  0.63942  0.56737  1.0000
  H   H2192     1.0  0.86026  0.63896  0.55696  1.0000
  C   C2193     1.0  0.92963  0.75359  0.62473  1.0000
  H   H2193     1.0  0.82250  0.83379  0.53242  1.0000
  H   H2194     1.0  0.84746  0.84979  0.53121  1.0000
  H   H2195     1.0  0.85398  0.52625  0.71681  1.0000
  C   C2194     1.0  0.82693  0.89364  0.51774  1.0000
  H   H2196     1.0  0.81089  0.71422  0.50891  1.0000
  C   C2195     1.0  0.88556  0.64167  0.59419  1.0000
  C   C2196     1.0  0.68231  0.84174  0.65581  1.0000
  C   C2197     1.0  0.83526  0.67737  0.53809  1.0000
  C   C2198     1.0  0.89564  0.75764  0.63413  1.0000
  C   C2199     1.0  0.92121  0.73011  0.49752  1.0000
  S   S742      1.0  0.82427  0.67345  0.50764  1.0000
  C   C2200     1.0  0.89271  0.64800  0.57533  1.0000
  C   C2201     1.0  0.90949  0.78370  0.62938  1.0000
  C   C2202     1.0  0.87788  0.76869  0.63828  1.0000
  C   C2203     1.0  0.71563  0.78370  0.50805  1.0000
  Fe  Fe370     1.0  0.70869  0.83382  0.60793  1.0000
  C   C2204     1.0  0.67424  0.84734  0.67297  1.0000
  H   H2197     1.0  0.82234  0.67355  0.54613  1.0000
  H   H2198     1.0  0.90484  0.65432  0.57117  1.0000
  H   H2199     1.0  0.88902  0.65179  0.54721  1.0000
  C   C2205     1.0  0.76423  0.87680  0.52994  1.0000
  C   C2206     1.0  0.90724  0.85316  0.51944  1.0000
  C   C2207     1.0  0.84001  0.67769  0.51888  1.0000
  N   N182      1.0  0.91113  0.76529  0.62936  1.0000
  C   C2208     1.0  0.87605  0.78756  0.63794  1.0000
  H   H2200     1.0  0.91308  0.85597  0.56735  1.0000
  C   C2209     1.0  0.85016  0.51277  0.72170  1.0000
  H   H2201     1.0  0.83359  0.73425  0.50346  1.0000
  H   H2202     1.0  0.76294  0.77345  0.64863  1.0000
  C   C2210     1.0  0.72643  0.88864  0.53058  1.0000
  H   H2203     1.0  0.67497  0.89896  0.66145  1.0000
  C   C2211     1.0  0.68623  0.88542  0.62023  1.0000
  H   H2204     1.0  0.70762  0.90947  0.62067  1.0000
  H   H2205     1.0  0.91753  0.75827  0.53481  1.0000
  H   H2206     1.0  0.86235  0.79634  0.64088  1.0000
  H   H2207     1.0  0.89414  0.86593  0.55561  1.0000
  C   C2212     1.0  0.80120  0.94976  0.52136  1.0000
  H   H2208     1.0  0.69977  0.78722  0.63536  1.0000
  H   H2209     1.0  0.97695  0.85952  0.61354  1.0000
  C   C2213     1.0  0.82528  0.73075  0.51731  1.0000
  C   C2214     1.0  0.78853  0.70289  0.54098  1.0000
  H   H2210     1.0  0.77467  0.71179  0.53957  1.0000
  C   C2215     1.0  0.98050  0.82127  0.50912  1.0000
  C   C2216     1.0  0.92832  0.90436  0.56100  1.0000
  H   H2211     1.0  0.98452  0.82596  0.62814  1.0000
  S   S743      1.0  0.81697  0.98404  0.59341  1.0000
  H   H2212     1.0  0.93105  0.87519  0.57287  1.0000
  C   C2217     1.0  0.67366  0.89368  0.64987  1.0000
  H   H2213     1.0  0.86516  0.73523  0.50501  1.0000
  C   C2218     1.0  0.72609  0.76763  0.63461  1.0000
  N   N183      1.0  0.82661  0.96531  0.50630  1.0000
  C   C2219     1.0  0.93259  0.74297  0.49400  1.0000
  C   C2220     1.0  0.84823  0.99142  0.60008  1.0000
  H   H2214     1.0  0.73647  0.83826  0.50002  1.0000
  H   H2215     1.0  0.72216  0.75827  0.62821  1.0000
  H   H2216     1.0  0.78751  0.69371  0.55502  1.0000
  H   H2217     1.0  0.73306  0.79561  0.51843  1.0000
  H   H2218     1.0  0.66920  0.87287  0.60995  1.0000
  C   C2221     1.0  0.99361  0.83517  0.62759  1.0000
  S   S744      1.0  0.86866  0.56228  0.73113  1.0000
  H   H2219     1.0  0.80976  0.50925  0.69622  1.0000
  N   N184      1.0  0.71496  0.77307  0.49615  1.0000
  H   H2220     1.0  0.79583  0.61434  0.73071  1.0000
  Fe  Fe371     1.0  0.84679  0.58890  0.73194  1.0000
  C   C2222     1.0  0.80259  0.50559  0.71056  1.0000
  Fe  Fe372     1.0  0.93612  0.57018  0.89134  1.0000
  S   S745      1.0  0.94272  0.58771  0.86286  1.0000
  S   S746      1.0  0.92657  0.58380  0.91621  1.0000
  Fe  Fe373     1.0  0.94604  0.53479  0.87663  1.0000
  S   S747      1.0  0.95345  0.54914  0.84686  1.0000
  S   S748      1.0  0.94890  0.50393  0.88303  1.0000
  Fe  Fe374     1.0  0.96802  0.56494  0.85824  1.0000
  H   H2221     1.0  0.68032  0.51115  0.85069  1.0000
  Fe  Fe375     1.0  0.92762  0.57033  0.85426  1.0000
  S   S749      1.0  0.90459  0.58386  0.83832  1.0000
  S   S750      1.0  0.96262  0.54870  0.88753  1.0000
  S   S751      1.0  0.91900  0.55464  0.88329  1.0000
  C   C2223     1.0  0.91936  0.56410  0.80988  1.0000
  Fe  Fe376     1.0  0.82897  0.58087  0.97353  1.0000
  H   H2222     1.0  0.73650  0.50563  0.84658  1.0000
  S   S752      1.0  0.84085  0.60313  0.95162  1.0000
  H   H2223     1.0  0.74120  0.52436  0.82738  1.0000
  H   H2224     1.0  0.81697  0.62570  0.74320  1.0000
  H   H2225     1.0  0.72753  0.52953  0.84935  1.0000
  H   H2226     1.0  0.91139  0.52540  0.78848  1.0000
  S   S753      1.0  0.77526  0.54957  0.97835  1.0000
  Fe  Fe377     1.0  0.79930  0.55769  0.98475  1.0000
  C   C2224     1.0  0.92093  0.55822  0.95870  1.0000
  S   S754      1.0  0.82720  0.55504  0.96550  1.0000
  H   H2227     1.0  0.98669  0.50849  0.87750  1.0000
  Fe  Fe378     1.0  0.73108  0.57738  0.89062  1.0000
  S   S755      1.0  0.75233  0.58676  0.90044  1.0000
  Fe  Fe379     1.0  0.72284  0.57616  0.85380  1.0000
  S   S756      1.0  0.69668  0.56536  0.86714  1.0000
  S   S757      1.0  0.73459  0.57767  0.82321  1.0000
  Fe  Fe380     1.0  0.71349  0.54635  0.88740  1.0000
  S   S758      1.0  0.71577  0.59883  0.87022  1.0000
  S   S759      1.0  0.74007  0.55587  0.87286  1.0000
  C   C2225     1.0  0.75773  0.58040  0.81729  1.0000
  C   C2226     1.0  0.76906  0.57572  0.80072  1.0000
  C   C2227     1.0  0.78354  0.58931  0.82393  1.0000
  C   C2228     1.0  0.76506  0.58688  0.82908  1.0000
  H   H2228     1.0  0.76346  0.57052  0.79167  1.0000
  H   H2229     1.0  0.78904  0.59477  0.83285  1.0000
  H   H2230     1.0  0.75640  0.59035  0.84200  1.0000
  C   C2229     1.0  0.76958  0.55937  0.95632  1.0000
  C   C2230     1.0  0.77817  0.57331  0.94410  1.0000
  C   C2231     1.0  0.77299  0.58132  0.92683  1.0000
  C   C2232     1.0  0.75936  0.57532  0.92160  1.0000
  C   C2233     1.0  0.75098  0.56115  0.93368  1.0000
  C   C2234     1.0  0.75604  0.55324  0.95105  1.0000
  H   H2231     1.0  0.78856  0.57815  0.94811  1.0000
  H   H2232     1.0  0.77945  0.59234  0.91756  1.0000
  H   H2233     1.0  0.74045  0.55646  0.92975  1.0000
  H   H2234     1.0  0.74939  0.54243  0.96046  1.0000
  C   C2235     1.0  0.68305  0.60007  0.93356  1.0000
  C   C2236     1.0  0.91913  0.55973  0.79293  1.0000
  C   C2237     1.0  0.89491  0.54394  0.97250  1.0000
  C   C2238     1.0  0.77515  0.51009  0.87222  1.0000
  N   N185      1.0  0.90335  0.55871  0.96932  1.0000
  C   C2239     1.0  0.90402  0.57593  0.81850  1.0000
  C   C2240     1.0  0.88823  0.58272  0.81050  1.0000
  H   H2235     1.0  0.87629  0.59182  0.81712  1.0000
  C   C2241     1.0  0.90248  0.58888  0.92498  1.0000
  C   C2242     1.0  0.89449  0.60621  0.92990  1.0000
  C   C2243     1.0  0.87557  0.61039  0.93805  1.0000
  C   C2244     1.0  0.86469  0.59696  0.94221  1.0000
  C   C2245     1.0  0.87274  0.57934  0.93782  1.0000
  C   C2246     1.0  0.89155  0.57546  0.92874  1.0000
  H   H2236     1.0  0.90293  0.61654  0.92721  1.0000
  H   H2237     1.0  0.86941  0.62402  0.94137  1.0000
  H   H2238     1.0  0.86440  0.56887  0.94106  1.0000
  H   H2239     1.0  0.89776  0.56191  0.92526  1.0000
  H   H2240     1.0  0.92767  0.56992  0.95609  1.0000
  C   C2247     1.0  0.79156  0.61739  0.74464  1.0000
  H   H2241     1.0  0.93160  0.55880  0.81595  1.0000
  C   C2248     1.0  0.84508  0.56318  0.90781  1.0000
  C   C2249     1.0  0.71605  0.62962  0.90262  1.0000
  C   C2250     1.0  0.85759  0.55487  0.89371  1.0000
  H   H2242     1.0  0.96698  0.59079  0.82213  1.0000
  C   C2251     1.0  0.90082  0.50342  0.86971  1.0000
  H   H2243     1.0  0.88636  0.51038  0.87265  1.0000
  C   C2252     1.0  0.84553  0.58122  0.90897  1.0000
  H   H2244     1.0  0.85559  0.61945  0.88466  1.0000
  H   H2245     1.0  0.80796  0.63159  0.79211  1.0000
  C   C2253     1.0  0.78639  0.52274  0.86215  1.0000
  H   H2246     1.0  0.98104  0.57481  0.79547  1.0000
  N   N186      1.0  0.85820  0.59063  0.89651  1.0000
  C   C2254     1.0  0.87043  0.56461  0.88108  1.0000
  H   H2247     1.0  0.76502  0.60945  0.75036  1.0000
  H   H2248     1.0  0.70959  0.63223  0.89031  1.0000
  C   C2255     1.0  0.78766  0.57768  0.79583  1.0000
  C   C2256     1.0  0.78246  0.53405  0.84539  1.0000
  H   H2249     1.0  0.87261  0.61003  0.89938  1.0000
  C   C2257     1.0  0.81122  0.63408  0.77661  1.0000
  H   H2250     1.0  0.77753  0.62740  0.79441  1.0000
  H   H2251     1.0  0.93514  0.61058  0.82401  1.0000
  H   H2252     1.0  0.90987  0.51930  0.88441  1.0000
  S   S760      1.0  0.85540  0.55307  0.77697  1.0000
  C   C2258     1.0  0.87058  0.58255  0.88275  1.0000
  H   H2253     1.0  0.92833  0.51645  0.94613  1.0000
  H   H2254     1.0  0.73123  0.62449  0.89783  1.0000
  N   N187      1.0  0.79849  0.62722  0.76951  1.0000
  C   C2259     1.0  0.89604  0.51613  0.77344  1.0000
  S   S761      1.0  0.81730  0.58961  0.80026  1.0000
  H   H2255     1.0  0.84825  0.61440  0.90963  1.0000
  H   H2256     1.0  0.93318  0.58780  0.76184  1.0000
  C   C2260     1.0  0.90343  0.56685  0.78476  1.0000
  H   H2257     1.0  0.89698  0.51686  0.96680  1.0000
  H   H2258     1.0  0.93350  0.61237  0.75720  1.0000
  H   H2259     1.0  0.91449  0.60308  0.77346  1.0000
  H   H2260     1.0  0.79626  0.57407  0.78303  1.0000
  C   C2261     1.0  0.94161  0.60391  0.81215  1.0000
  H   H2261     1.0  0.83583  0.58754  0.92004  1.0000
  H   H2262     1.0  0.71909  0.58495  0.95634  1.0000
  H   H2263     1.0  0.86425  0.53173  0.95173  1.0000
  C   C2262     1.0  0.92143  0.52818  0.95287  1.0000
  S   S762      1.0  0.83978  0.52037  0.75747  1.0000
  C   C2263     1.0  0.69073  0.61318  0.91906  1.0000
  C   C2264     1.0  0.85864  0.60957  0.89760  1.0000
  C   C2265     1.0  0.79482  0.58485  0.80722  1.0000
  C   C2266     1.0  0.88785  0.57803  0.79381  1.0000
  C   C2267     1.0  0.88212  0.50642  0.77502  1.0000
  C   C2268     1.0  0.93011  0.54311  0.95008  1.0000
  H   H2264     1.0  0.93123  0.55104  0.78601  1.0000
  C   C2269     1.0  0.69607  0.51332  0.86988  1.0000
  H   H2265     1.0  0.87564  0.58352  0.78770  1.0000
  N   N188      1.0  0.93982  0.59728  0.78327  1.0000
  C   C2270     1.0  0.95728  0.58625  0.78218  1.0000
  C   C2271     1.0  0.93200  0.60614  0.79796  1.0000
  C   C2272     1.0  0.73960  0.51984  0.84274  1.0000
  H   H2266     1.0  0.75588  0.61622  0.78237  1.0000
  C   C2273     1.0  0.96728  0.58370  0.79617  1.0000
  C   C2274     1.0  0.76726  0.53252  0.83899  1.0000
  N   N189      1.0  0.70819  0.61584  0.91791  1.0000
  H   H2267     1.0  0.75113  0.49942  0.87361  1.0000
  Fe  Fe381     1.0  0.87533  0.56880  0.75602  1.0000
  H   H2268     1.0  0.76396  0.54166  0.82624  1.0000
  H   H2269     1.0  0.96350  0.57925  0.77053  1.0000
  N   N190      1.0  0.75630  0.52009  0.84896  1.0000
  H   H2270     1.0  0.88067  0.58999  0.87295  1.0000
  C   C2275     1.0  0.93268  0.49895  0.87318  1.0000
  C   C2276     1.0  0.70884  0.50380  0.88125  1.0000
  H   H2271     1.0  0.77785  0.50141  0.88542  1.0000
  H   H2272     1.0  0.68274  0.62098  0.90857  1.0000
  S   S763      1.0  0.70588  0.56612  0.90727  1.0000
  C   C2277     1.0  0.84350  0.50665  0.74074  1.0000
  C   C2278     1.0  0.91413  0.50852  0.87627  1.0000
  H   H2273     1.0  0.85915  0.52131  0.92518  1.0000
  C   C2279     1.0  0.79506  0.51015  0.74227  1.0000
  H   H2274     1.0  0.94367  0.54328  0.94092  1.0000
  Fe  Fe382     1.0  0.84699  0.54858  0.75234  1.0000
  S   S764      1.0  0.71554  0.51513  0.89551  1.0000
  Fe  Fe383     1.0  0.69102  0.58621  0.88557  1.0000
  C   C2280     1.0  0.77430  0.61470  0.75564  1.0000
  H   H2275     1.0  0.79735  0.52130  0.95056  1.0000
  H   H2276     1.0  0.69026  0.52796  0.86950  1.0000
  C   C2281     1.0  0.92982  0.60035  0.76817  1.0000
  C   C2282     1.0  0.78145  0.62493  0.78028  1.0000
  H   H2277     1.0  0.71387  0.64292  0.90730  1.0000
  C   C2283     1.0  0.71088  0.59295  0.94605  1.0000
  H   H2278     1.0  0.85735  0.54093  0.89257  1.0000
  H   H2279     1.0  0.87020  0.49448  0.82164  1.0000
  H   H2280     1.0  0.83507  0.55572  0.91777  1.0000
  H   H2281     1.0  0.81040  0.64919  0.77090  1.0000
  C   C2284     1.0  0.69327  0.58981  0.94706  1.0000
  C   C2285     1.0  0.90068  0.51786  0.78953  1.0000
  C   C2286     1.0  0.95938  0.59266  0.81119  1.0000
  Fe  Fe384     1.0  0.83482  0.57994  0.77428  1.0000
  S   S765      1.0  0.82466  0.57440  0.75135  1.0000
  H   H2282     1.0  0.88026  0.55837  0.87001  1.0000
  H   H2283     1.0  0.73191  0.60839  0.93052  1.0000
  C   C2287     1.0  0.90380  0.52848  0.96432  1.0000
  H   H2284     1.0  0.69185  0.49616  0.93139  1.0000
  S   S766      1.0  0.66178  0.60201  0.89544  1.0000
  S   S767      1.0  0.85532  0.59642  0.75506  1.0000
  C   C2288     1.0  0.71809  0.60623  0.93138  1.0000
  C   C2289     1.0  0.76912  0.61860  0.77354  1.0000
  H   H2285     1.0  0.68057  0.63087  0.87038  1.0000
  H   H2286     1.0  0.89941  0.58749  0.97025  1.0000
  C   C2290     1.0  0.86125  0.51807  0.95372  1.0000
  H   H2287     1.0  0.81764  0.52025  0.95890  1.0000
  C   C2291     1.0  0.85839  0.51219  0.93871  1.0000
  H   H2288     1.0  0.82575  0.62642  0.77266  1.0000
  H   H2289     1.0  0.79082  0.54427  0.83762  1.0000
  S   S768      1.0  0.90398  0.56286  0.76263  1.0000
  H   H2290     1.0  0.91803  0.61460  0.79908  1.0000
  C   C2292     1.0  0.69038  0.50375  0.85928  1.0000
  C   C2293     1.0  0.78020  0.50205  0.98142  1.0000
  C   C2294     1.0  0.76004  0.50898  0.86541  1.0000
  H   H2291     1.0  0.79793  0.52397  0.86748  1.0000
  C   C2295     1.0  0.85982  0.50643  0.97135  1.0000
  H   H2292     1.0  0.84440  0.49869  0.79691  1.0000
  C   C2296     1.0  0.89363  0.57492  0.97775  1.0000
  C   C2297     1.0  0.89132  0.51005  0.80696  1.0000
  H   H2293     1.0  0.89479  0.51137  0.81957  1.0000
  C   C2298     1.0  0.80352  0.62377  0.75182  1.0000
  H   H2294     1.0  0.90295  0.52260  0.75986  1.0000
  H   H2295     1.0  0.68764  0.57933  0.95817  1.0000
  C   C2299     1.0  0.87744  0.50047  0.80803  1.0000
  H   H2296     1.0  0.79627  0.51724  0.75261  1.0000
  C   C2300     1.0  0.67303  0.49416  0.91526  1.0000
  H   H2297     1.0  0.77419  0.50247  0.96973  1.0000
  N   N191      1.0  0.87313  0.49863  0.79217  1.0000
  H   H2298     1.0  0.66914  0.66483  0.86023  1.0000
  H   H2299     1.0  0.66942  0.59764  0.93399  1.0000
  H   H2300     1.0  0.87868  0.57849  0.97686  1.0000
  C   C2301     1.0  0.80717  0.51216  0.95935  1.0000
  H   H2301     1.0  0.88115  0.54413  0.98125  1.0000
  C   C2302     1.0  0.66617  0.63710  0.87511  1.0000
  N   N192      1.0  0.79721  0.50655  0.97845  1.0000
  H   H2302     1.0  0.66621  0.50873  0.91398  1.0000
  C   C2303     1.0  0.85364  0.49489  0.94145  1.0000
  H   H2303     1.0  0.81437  0.49967  0.95335  1.0000
  C   C2304     1.0  0.78554  0.49553  0.74753  1.0000
  H   H2304     1.0  0.87844  0.50527  0.76246  1.0000
