data_image0
_chemical_formula_structural       CHSH3CHC3HC2HCHCNH2CH2CH2C2NHC2H3C4SC2SCH3SHSHCFeCSH2FeHFeCSNS2FeHS2C2S2FeSFeSCH2FeSFe3CFeSHS2CSCSCFeS2FeCSHFeS2FeS2FeSFeS3FeS2FeSFeSC6H5C6H4C6H4C3H3CH3SHS2C3HC2H3CH2SC6H4SHFeS2HCH3C6H4C6H2SNC6H9CSHC2HC2NC2SC3H2CHFeH5NH3SC2NCH2CNC6H8NC6H8SC3H2CSC5SNHSHSHFeHC2NHC2H3CNHFeC2HCFe2C2H7CH2CHC2SCSCH4CSC2HCHCH3CHNHCH4C2HCHCFeC2HC5H2FeS2FeSH2C6H2C2HC3H3SH5NCH2SC3HCH2C4H3SCFeNSFeS2C3HSHFeSFeS2FeS2FeSFeS3FeSHFeS2FeSFeS3FeS2CHSHFeS3CHCHC7H4C6H8CSCH2C4HCH2FeHC4HC7H4C3H2C6H4C8HCH2FeS2H4NHCHCHCHC3H2NC6H6CHNC6H11C2H3C3FeSH2CH5C2SH4SHCHC2FeCHSHCH2C3H4C2FeH2CN2CHC2H4CN2H2CH2CHC4H2CH3CNHFeSCHCNCFeSH2NCH2CSHCHCFeHFeHSFeS2CFeS4HFeS2FeS2FeSFeS3FeS2FeH2FeS2FeS2FeS2FeSFeS3H2C6H4CH2C7H4C7H3C6H3C6H4C4H2CNC6H7SH4C4H2C3H3NCH3CN2C3S2HNC6H8NC6H8C2HCHCHCH2CHCH4C4HCH3CH2CH3C5SFeCHNH2CHNHC8H3CSNH5CHCHC2FeCH2CSCH4FeS2FeS2CFeS2FeS2FeSFeS3FeSNFeSHFeSFeS5HC2H3NHCS2CSH2C2HCH2CHCHCHFeC6H4C6H4C6H4C2H2CHC3HC3HCH3CHC6H4C2HCSH6NHC2H3CFeCH2C2HFeC3H2NC2HSHFeC3HNHC3H4CH3CH3CH2CH2CFeHSC3HCHCHNH3CSC2H3CH2SFeS2FeS2FeSFeS3FeS2FeS2FeSFeS3FeS2FeCSHFeSCSHSHFeS2FeSFeCS2HSHC6HSCHC2FeC3SH2C7H4C6H4C6H4CH3C5H2C6H4C4H3C6H4C2HCH2CHCHFeH3FeCHCFeCNC6H8NCSHCH2CH3C2H2C3HC5NCH4C2SCHCHC2H2C2SHC4SHCH2SHCH2CHC3HCNC2H5NCNC2HSCH3CH3SH3NCH3CHNHCH2CNH3CH3SHFeHFeS2FeSHFeS2FeS2Fe2S3FeS2FeSHFeSFeS3HCSFeS2FeSCSFeS2FeS2FeSFeS3HCHCS2H2C6H9C2HCHC6H4C3H2CH2CHNH3NH3C8H4C3HC6H4C6H6CHC3FeSH2C2HC2NC7H5NH2C3H2C2HCHC2HN2C6H7C2HCH2NH2CHCH2C2HC3H4FeSH2NHCH2CHCHCFeHS3FeS2FeS2FeNFeS3FeS2FeS2FeSFeS3H2CHCHNHSCSCH2FeSHSNHFeH4C6H4C6H4C6H4C4H3C6H7C2HC4HCNCHCNCH3C2NC6H6C5H8FeHCHCHC2SHC2HCHSH5C2H2FeHC3NHFeH3CHSHC2H2CHSCSCHCHC2H5CHSC2H3FeS2FeS2FeSFeS3FeS2FeS2FeSFeS3HFeS2CFeSCSC6H3C6H4C6H4C6H5NC5H3C6H3CH2C2SC2H2CH5C6H5NC6H8SCHCSHC3HNC6H3FeH5CSNHNHCH2CH2CSCHCHSHCH2C5H2C2HNC5HNCSH2C2HCH2CH2CH2C2HCHC3HC3H5SH2CSFeS2FeSFeS3FeS2FeSCFeSFeS3FeS2HSFeSFeSNS3HFeSHSCH2S3HFeSCHC6H4SCH3C6H4C7H5C6H2CHC6H4C6HNC6H4CH3SHFeHCSH2CNC6H4SH6CHC2H2C2H2CH2NC4HN2HFeCFeC2H4CHC2H2CHSCHCH3CH2CH2CNCFeC2H5CH3CH3CHCH2SH2SFeC3HC2FeH2CNCFeH2FeHCH2NFeS2FeS2FeSFeS3FeCSFeS2CSFeS3FeCFeH2FeS2H2FeS2FeS3CS2HC4H3SC3HCH2NC4HCH3C6H4C6H4C6H4CH2C5H2SC2SCHCHC2HC2H3CSCH5CH2CSHCNC2FeHC2FeH3CS2HSHNC6H4CHCHNC2HC3H2CH5NC6H10SCH3CSHFeCH2CHC3HC3NCHC2H3NHCHFeS2FeS2FeSFeS3HCS2FeSCFeS2FeS2FeSFeS3C3HNSFeS2FeS2FeSFeS3FeHS2HC7H4C3HC2H4C6H4C6H4C4H2C4HCH2C8H4C3HCH4C7H4C6H4C2HNC2HSH4CHCHC3H4CHC2H3CHC2HNC2H2CHCH2C3HCH5CH2NHC2HC5NH2NC2H5C2HSC3H2C3H2FeHC2HC2SH6C2H2N2C3H2CHNC4HC2H2C2HNH5CSCFeNH3SHSHSCNHCHNCH2C2HCH9C2H2CHCHCHC2S2C2FeS2FeS2FeS2FeSHFeSFeS3FeS2FeS2FeSFeS3HS2FeS2FeS2CS2C2SHSCFeH2CH2C2HC6H8C8H4C2H2C2HCH2C6H4C6H4C6H4CHC3H2CH2C2NSCHC2NCH2FeNC3HCNC2H2C3HCH2NFeHCNH2FeHSCNH2FeCH2NC6H8C2HCH3C3HC2NC6H7SC2H2C3H4C2H5S2H6CH2CH3CFeSHC2FeSHCSCHCSCHSFeS2FeS2FeSFeS3CSCHNS2HFeSCSFeC8H4C2H2C6H6CHCHC4HFeH2C7H5CH3C2H4NCH2CFeH2NCH2CHC2SHNC6H3NCH2CHCH2S2CH3CHFeHNHC3HCHC4H2CSHFeH2CSFeSFeS2FeSFeS3HFeSHFeS2FeSFeS4H2S2CFeSCFeSFeSHCFeH3SHC6H4C4H3CHC3H2C3H2CHC2SC6H4C6HSHC6H4C6H3FeH3C2H3C3HCFeCNC5SH4CHCHCHCH3SFeCNC6H3N2H4SHCH3CHCSCHSC2HC2HNCFeCHCSH7C3H2CH4CHCH2FeNHSHCSFeS2Fe2S2CHFeS2FeSHSH2SCSFeSFeS2FeS2FeSFeS3FeSNSHFeCHC2SC4SFeHC6H4C6H4C3H2C6H4C6H3SC6H4CFeHC3NH2C2HNC6H8NC6H8SHCSCNC6H8SCHCH2C2HS2CSNC2HCSCHFeSFeSHCHSHCHCH2NC6H8FeHCSC2H2FeH2FeH2CNC6H3SC2H3CH2SCFe2HCH3CHCHCH2SC3HCFeHCSH3CH2CNFeSH2CSNFeH3C2H2SC4FeHC5SHSH5CH2FeC4HCHSCSH2CHCHCHC6SH4CHC2SH2SNFeH2SH3FeS2FeS2FeSFeS4FeS2FeC2FeS3HCFeHSNS2HCSH3C5H3SHNC4H3C7H4NC6H4C6H4C6H4C6H4NC6H8CNCH2C4H2CHNCH3CH2C2H3CHC3NCH2SCH4CHC2SHC2H6NHC3SH2CSHC2SC2HC3HCH2FeHCHFeH4CHC2HSHC2H6FeCHCHCSH2CHC3H2S2H3SHFeSNH2NHFeS2FeS2CSCHFeS2FeH3C6SCH3CH2C7H4NCHCH2SHC3HSHNCSHC7HFeCHC3SHC2HC3H2C2H5CH4SHFeHCHC3HFeCHCHSFe2HCH
_chemical_formula_sum              "C1728 H1728 S576 N144 Fe288"
_cell_length_a       71.2745
_cell_length_b       71.4468
_cell_length_c       71.4462
_cell_angle_alpha    78.6064
_cell_angle_beta     78.6972
_cell_angle_gamma    78.7674

_space_group_name_H-M_alt    "P 1"
_space_group_IT_number       1

loop_
  _space_group_symop_operation_xyz
  'x, y, z'

loop_
  _atom_site_type_symbol
  _atom_site_label
  _atom_site_symmetry_multiplicity
  _atom_site_fract_x
  _atom_site_fract_y
  _atom_site_fract_z
  _atom_site_occupancy
  C   C1        1.0  0.42051  0.16583  0.63113  1.0000
  H   H1        1.0  0.47492  0.02974  0.62586  1.0000
  S   S1        1.0  0.34248  0.00694  0.58604  1.0000
  H   H2        1.0  0.22479  0.16577  0.61981  1.0000
  H   H3        1.0  0.25825  0.14885  0.62193  1.0000
  H   H4        1.0  0.44785  0.07598  0.58845  1.0000
  C   C2        1.0  0.44628  0.13870  0.63710  1.0000
  H   H5        1.0  0.31776  0.05076  0.63424  1.0000
  C   C3        1.0  0.32617  0.02513  0.59694  1.0000
  C   C4        1.0  0.32912  0.03133  0.61345  1.0000
  C   C5        1.0  0.31546  0.04593  0.62157  1.0000
  H   H6        1.0  0.33053  0.99085  0.63448  1.0000
  C   C6        1.0  0.44227  0.07501  0.60380  1.0000
  C   C7        1.0  0.30965  0.03352  0.58867  1.0000
  H   H7        1.0  0.34201  0.02511  0.61976  1.0000
  C   C8        1.0  0.29597  0.04777  0.59688  1.0000
  H   H8        1.0  0.30733  0.02888  0.57589  1.0000
  C   C9        1.0  0.25187  0.12113  0.61985  1.0000
  N   N1        1.0  0.21425  0.14035  0.61777  1.0000
  H   H9        1.0  0.36200  0.16493  0.63969  1.0000
  H   H10       1.0  0.20745  0.11287  0.61658  1.0000
  C   C10       1.0  0.43101  0.06090  0.61318  1.0000
  H   H11       1.0  0.45519  0.09884  0.60724  1.0000
  H   H12       1.0  0.26653  0.11357  0.62064  1.0000
  C   C11       1.0  0.22830  0.15042  0.61911  1.0000
  H   H13       1.0  0.41565  0.04850  0.64026  1.0000
  H   H14       1.0  0.28314  0.05395  0.59043  1.0000
  C   C12       1.0  0.43872  0.00328  0.62863  1.0000
  C   C13       1.0  0.19440  0.15031  0.61642  1.0000
  N   N2        1.0  0.42890  0.07182  0.64337  1.0000
  H   H15       1.0  0.41428  0.17781  0.62115  1.0000
  C   C14       1.0  0.45491  0.01264  0.62087  1.0000
  C   C15       1.0  0.29876  0.05404  0.61332  1.0000
  H   H16       1.0  0.24100  0.09550  0.61835  1.0000
  H   H17       1.0  0.30886  0.98967  0.62585  1.0000
  H   H18       1.0  0.46171  0.01204  0.60602  1.0000
  C   C16       1.0  0.44643  0.08778  0.61432  1.0000
  C   C17       1.0  0.43960  0.08595  0.63422  1.0000
  C   C18       1.0  0.23748  0.11097  0.61852  1.0000
  C   C19       1.0  0.21861  0.12087  0.61751  1.0000
  S   S2        1.0  0.46854  0.12552  0.62735  1.0000
  C   C20       1.0  0.43775  0.15418  0.62459  1.0000
  C   C21       1.0  0.46249  0.02266  0.63212  1.0000
  S   S3        1.0  0.28036  0.07117  0.62349  1.0000
  C   C22       1.0  0.24728  0.14094  0.62029  1.0000
  H   H19       1.0  0.44461  0.15729  0.60964  1.0000
  H   H20       1.0  0.18391  0.14337  0.62811  1.0000
  H   H21       1.0  0.42787  0.05067  0.60527  1.0000
  S   S4        1.0  0.43003  0.99073  0.61360  1.0000
  H   H22       1.0  0.44316  0.09574  0.64233  1.0000
  S   S5        1.0  0.37305  0.98873  0.63024  1.0000
  H   H23       1.0  0.19069  0.14990  0.60214  1.0000
  C   C23       1.0  0.31582  0.98689  0.63898  1.0000
  Fe  Fe1       1.0  0.48680  0.09862  0.64097  1.0000
  C   C24       1.0  0.42420  0.05967  0.63306  1.0000
  S   S6        1.0  0.29605  0.11002  0.64675  1.0000
  H   H24       1.0  0.19238  0.16572  0.61827  1.0000
  H   H25       1.0  0.34286  0.19681  0.64556  1.0000
  Fe  Fe2       1.0  0.36388  0.98640  0.60267  1.0000
  H   H26       1.0  0.28820  0.01793  0.63423  1.0000
  Fe  Fe3       1.0  0.00852  0.13500  0.85116  1.0000
  C   C25       1.0  0.09645  0.22454  0.77666  1.0000
  S   S7        1.0  0.03756  0.14624  0.84584  1.0000
  N   N3        1.0  0.42583  0.19758  0.68141  1.0000
  S   S8        1.0  0.01029  0.06245  0.86791  1.0000
  S   S9        1.0  0.00907  0.11299  0.83218  1.0000
  Fe  Fe4       1.0  0.15054  0.19722  0.67002  1.0000
  H   H27       1.0  0.43143  0.01413  0.67424  1.0000
  S   S10       1.0  0.15090  0.19447  0.73903  1.0000
  S   S11       1.0  0.12705  0.19183  0.69556  1.0000
  C   C26       1.0  0.34354  0.10550  0.69365  1.0000
  C   C27       1.0  0.19840  0.21401  0.74164  1.0000
  S   S12       1.0  0.11812  0.20978  0.83175  1.0000
  S   S13       1.0  0.06841  0.21758  0.86542  1.0000
  Fe  Fe5       1.0  0.14103  0.19936  0.85047  1.0000
  S   S14       1.0  0.15604  0.16864  0.85254  1.0000
  Fe  Fe6       1.0  0.26980  0.11819  0.66840  1.0000
  S   S15       1.0  0.12265  0.20938  0.87698  1.0000
  C   C28       1.0  0.22221  0.10776  0.88492  1.0000
  H   H28       1.0  0.41832  0.22776  0.67228  1.0000
  H   H29       1.0  0.02995  0.20790  0.87074  1.0000
  Fe  Fe7       1.0  0.37360  0.18151  0.68714  1.0000
  S   S16       1.0  0.38469  0.17106  0.71518  1.0000
  Fe  Fe8       1.0  0.33365  0.19990  0.70657  1.0000
  Fe  Fe9       1.0  0.48560  0.05632  0.65764  1.0000
  Fe  Fe10      1.0  0.36989  0.20013  0.72241  1.0000
  C   C29       1.0  0.18371  0.00649  0.89942  1.0000
  Fe  Fe11      1.0  0.35533  0.16277  0.72646  1.0000
  S   S17       1.0  0.34979  0.13397  0.74317  1.0000
  H   H30       1.0  0.21219  0.17694  0.86955  1.0000
  S   S18       1.0  0.37790  0.21730  0.82770  1.0000
  S   S19       1.0  0.46282  0.03604  0.66631  1.0000
  C   C30       1.0  0.28493  0.02024  0.68174  1.0000
  S   S20       1.0  0.37277  0.20509  0.87409  1.0000
  C   C31       1.0  0.20378  0.16736  0.86531  1.0000
  S   S21       1.0  0.47865  0.08349  0.67105  1.0000
  C   C32       1.0  0.19718  0.21341  0.72253  1.0000
  Fe  Fe12      1.0  0.36087  0.19740  0.85006  1.0000
  S   S22       1.0  0.35803  0.16832  0.84309  1.0000
  S   S23       1.0  0.38660  0.21606  0.73570  1.0000
  Fe  Fe13      1.0  0.11159  0.22126  0.68404  1.0000
  C   C33       1.0  0.08955  0.22899  0.79525  1.0000
  S   S24       1.0  0.09593  0.02215  0.83709  1.0000
  H   H31       1.0  0.44235  0.20660  0.89028  1.0000
  Fe  Fe14      1.0  0.23909  0.09155  0.83545  1.0000
  S   S25       1.0  0.24380  0.09524  0.80302  1.0000
  S   S26       1.0  0.21517  0.07605  0.85493  1.0000
  Fe  Fe15      1.0  0.26815  0.11967  0.83488  1.0000
  S   S27       1.0  0.27481  0.12484  0.80250  1.0000
  S   S28       1.0  0.27699  0.13851  0.85307  1.0000
  Fe  Fe16      1.0  0.24301  0.12667  0.80317  1.0000
  S   S29       1.0  0.22537  0.15121  0.78608  1.0000
  Fe  Fe17      1.0  0.27518  0.09287  0.80547  1.0000
  S   S30       1.0  0.29878  0.07669  0.78617  1.0000
  S   S31       1.0  0.23603  0.12354  0.83532  1.0000
  S   S32       1.0  0.27083  0.08716  0.83808  1.0000
  Fe  Fe18      1.0  0.14291  0.20759  0.70987  1.0000
  S   S33       1.0  0.28445  0.10532  0.69395  1.0000
  S   S34       1.0  0.30039  0.06627  0.67308  1.0000
  Fe  Fe19      1.0  0.27403  0.07806  0.69259  1.0000
  S   S35       1.0  0.26169  0.05960  0.71946  1.0000
  Fe  Fe20      1.0  0.30971  0.09462  0.67252  1.0000
  S   S36       1.0  0.25683  0.09191  0.66898  1.0000
  C   C34       1.0  0.28893  0.07050  0.76802  1.0000
  C   C35       1.0  0.27156  0.06300  0.77241  1.0000
  C   C36       1.0  0.26354  0.05878  0.75757  1.0000
  C   C37       1.0  0.27285  0.06220  0.73836  1.0000
  C   C38       1.0  0.29055  0.06902  0.73411  1.0000
  C   C39       1.0  0.29849  0.07330  0.74889  1.0000
  H   H32       1.0  0.26434  0.06035  0.78725  1.0000
  H   H33       1.0  0.24989  0.05336  0.76094  1.0000
  H   H34       1.0  0.29809  0.07112  0.71938  1.0000
  H   H35       1.0  0.31180  0.07922  0.74542  1.0000
  H   H36       1.0  0.18295  0.13896  0.87152  1.0000
  C   C40       1.0  0.19440  0.02160  0.84569  1.0000
  C   C41       1.0  0.21275  0.02596  0.83648  1.0000
  C   C42       1.0  0.21896  0.04297  0.83846  1.0000
  C   C43       1.0  0.20704  0.05567  0.85010  1.0000
  C   C44       1.0  0.18860  0.05140  0.85922  1.0000
  C   C45       1.0  0.18219  0.03463  0.85680  1.0000
  H   H37       1.0  0.22237  0.01599  0.82790  1.0000
  H   H38       1.0  0.23320  0.04595  0.83141  1.0000
  H   H39       1.0  0.17923  0.06113  0.86821  1.0000
  H   H40       1.0  0.16802  0.03152  0.86396  1.0000
  C   C46       1.0  0.33528  0.16055  0.84548  1.0000
  C   C47       1.0  0.33409  0.14500  0.83659  1.0000
  C   C48       1.0  0.31628  0.13842  0.83825  1.0000
  C   C49       1.0  0.29951  0.14708  0.84921  1.0000
  C   C50       1.0  0.30071  0.16265  0.85806  1.0000
  C   C51       1.0  0.31841  0.16946  0.85607  1.0000
  H   H41       1.0  0.34705  0.13791  0.82847  1.0000
  H   H42       1.0  0.31565  0.12627  0.83156  1.0000
  H   H43       1.0  0.28792  0.16926  0.86680  1.0000
  H   H44       1.0  0.31915  0.18115  0.86332  1.0000
  C   C52       1.0  0.34787  0.12189  0.72480  1.0000
  C   C53       1.0  0.33156  0.11334  0.72590  1.0000
  C   C54       1.0  0.32942  0.10515  0.71029  1.0000
  H   H45       1.0  0.32040  0.11341  0.73859  1.0000
  H   H46       1.0  0.31696  0.09838  0.71129  1.0000
  H   H47       1.0  0.42153  0.19500  0.71220  1.0000
  C   C55       1.0  0.07920  0.19803  0.78380  1.0000
  H   H48       1.0  0.19386  0.10399  0.88151  1.0000
  H   H49       1.0  0.37105  0.11396  0.67996  1.0000
  H   H50       1.0  0.40212  0.21788  0.69287  1.0000
  S   S37       1.0  0.16708  0.21154  0.68512  1.0000
  H   H51       1.0  0.19099  0.13462  0.66497  1.0000
  S   S38       1.0  0.30313  0.21351  0.70208  1.0000
  S   S39       1.0  0.13298  0.99784  0.87231  1.0000
  C   C56       1.0  0.36008  0.11362  0.69281  1.0000
  C   C57       1.0  0.07711  0.21775  0.80819  1.0000
  C   C58       1.0  0.41971  0.14676  0.66317  1.0000
  H   H52       1.0  0.40780  0.08011  0.66691  1.0000
  C   C59       1.0  0.33667  0.18370  0.65125  1.0000
  C   C60       1.0  0.28784  0.22200  0.84990  1.0000
  H   H53       1.0  0.41281  0.14399  0.67812  1.0000
  H   H54       1.0  0.44369  0.12292  0.66631  1.0000
  H   H55       1.0  0.40130  0.21320  0.66928  1.0000
  C   C61       1.0  0.21920  0.14058  0.66645  1.0000
  H   H56       1.0  0.23837  0.15080  0.87499  1.0000
  H   H57       1.0  0.22726  0.09235  0.88862  1.0000
  S   S40       1.0  0.34063  0.09633  0.67358  1.0000
  C   C62       1.0  0.17292  0.16410  0.83189  1.0000
  C   C63       1.0  0.17943  0.17930  0.81809  1.0000
  C   C64       1.0  0.19480  0.17536  0.80304  1.0000
  C   C65       1.0  0.20372  0.15624  0.80201  1.0000
  C   C66       1.0  0.19647  0.14105  0.81517  1.0000
  C   C67       1.0  0.18110  0.14498  0.83008  1.0000
  H   H58       1.0  0.17321  0.19408  0.81947  1.0000
  H   H59       1.0  0.20042  0.18713  0.79290  1.0000
  H   H60       1.0  0.20308  0.12622  0.81422  1.0000
  H   H61       1.0  0.17590  0.13314  0.84049  1.0000
  S   S41       1.0  0.25523  0.14924  0.66678  1.0000
  H   H62       1.0  0.18818  0.17217  0.87067  1.0000
  Fe  Fe21      1.0  0.34679  0.22853  0.87547  1.0000
  S   S42       1.0  0.33395  0.21915  0.85343  1.0000
  S   S43       1.0  0.16711  0.17169  0.65624  1.0000
  H   H63       1.0  0.01739  0.18041  0.86344  1.0000
  C   C68       1.0  0.15085  0.20521  0.77353  1.0000
  H   H64       1.0  0.99928  0.09536  0.79616  1.0000
  H   H65       1.0  0.15435  0.18991  0.77899  1.0000
  H   H66       1.0  0.14930  0.21370  0.80105  1.0000
  C   C69       1.0  0.03388  0.05109  0.85884  1.0000
  C   C70       1.0  0.04174  0.03315  0.86882  1.0000
  C   C71       1.0  0.06064  0.02393  0.86235  1.0000
  C   C72       1.0  0.07169  0.03238  0.84553  1.0000
  C   C73       1.0  0.06361  0.05009  0.83530  1.0000
  C   C74       1.0  0.04495  0.05955  0.84205  1.0000
  H   H67       1.0  0.03324  0.02641  0.88176  1.0000
  H   H68       1.0  0.06662  0.01027  0.87031  1.0000
  H   H69       1.0  0.07204  0.05673  0.82226  1.0000
  H   H70       1.0  0.03916  0.07334  0.83421  1.0000
  C   C75       1.0  0.04555  0.16597  0.85217  1.0000
  C   C76       1.0  0.06553  0.16689  0.84828  1.0000
  C   C77       1.0  0.07270  0.18241  0.85246  1.0000
  C   C78       1.0  0.05996  0.19736  0.86054  1.0000
  C   C79       1.0  0.03998  0.19644  0.86451  1.0000
  C   C80       1.0  0.03279  0.18084  0.86039  1.0000
  H   H71       1.0  0.07558  0.15549  0.84197  1.0000
  H   H72       1.0  0.08811  0.18274  0.84943  1.0000
  S   S44       1.0  0.34525  0.17088  0.69781  1.0000
  N   N4        1.0  0.22658  0.12290  0.73902  1.0000
  C   C81       1.0  0.22344  0.13223  0.72095  1.0000
  C   C82       1.0  0.21395  0.12757  0.75510  1.0000
  C   C83       1.0  0.20696  0.14627  0.71866  1.0000
  C   C84       1.0  0.19746  0.14167  0.75336  1.0000
  C   C85       1.0  0.19389  0.15094  0.73500  1.0000
  C   C86       1.0  0.24411  0.10856  0.74120  1.0000
  H   H73       1.0  0.23367  0.12886  0.70819  1.0000
  H   H74       1.0  0.21670  0.12060  0.76947  1.0000
  H   H75       1.0  0.20435  0.15351  0.70433  1.0000
  H   H76       1.0  0.18768  0.14553  0.76622  1.0000
  H   H77       1.0  0.18105  0.16179  0.73346  1.0000
  H   H78       1.0  0.25637  0.11586  0.74171  1.0000
  H   H79       1.0  0.24190  0.09788  0.75474  1.0000
  H   H80       1.0  0.24811  0.10014  0.72907  1.0000
  H   H81       1.0  0.31006  0.19843  0.66543  1.0000
  C   C87       1.0  0.20343  0.11429  0.88090  1.0000
  S   S45       1.0  0.18860  0.99863  0.84486  1.0000
  H   H82       1.0  0.08688  0.20364  0.74425  1.0000
  C   C88       1.0  0.45427  0.16503  0.68573  1.0000
  C   C89       1.0  0.19961  0.14576  0.66415  1.0000
  H   H83       1.0  0.38293  0.17564  0.77255  1.0000
  C   C90       1.0  0.20237  0.17962  0.65964  1.0000
  C   C91       1.0  0.42960  0.18913  0.69951  1.0000
  N   N5        1.0  0.33721  0.16609  0.78821  1.0000
  C   C92       1.0  0.35590  0.16440  0.77859  1.0000
  C   C93       1.0  0.33015  0.18025  0.79936  1.0000
  S   S46       1.0  0.39039  0.17890  0.65727  1.0000
  C   C94       1.0  0.34207  0.19286  0.80148  1.0000
  C   C95       1.0  0.36122  0.19099  0.79199  1.0000
  C   C96       1.0  0.32455  0.15313  0.78579  1.0000
  H   H84       1.0  0.36139  0.15340  0.76950  1.0000
  H   H85       1.0  0.31540  0.18152  0.80712  1.0000
  C   C97       1.0  0.19115  0.16531  0.66071  1.0000
  H   H86       1.0  0.33675  0.20371  0.81078  1.0000
  Fe  Fe22      1.0  0.28433  0.08252  0.64931  1.0000
  H   H87       1.0  0.33240  0.13800  0.78661  1.0000
  H   H88       1.0  0.31151  0.15300  0.79726  1.0000
  H   H89       1.0  0.31980  0.15769  0.77142  1.0000
  H   H90       1.0  0.45845  0.16802  0.65462  1.0000
  H   H91       1.0  0.06222  0.19334  0.81247  1.0000
  N   N6        1.0  0.20980  0.14699  0.87321  1.0000
  H   H92       1.0  0.10739  0.21532  0.74253  1.0000
  H   H93       1.0  0.31529  0.13703  0.67335  1.0000
  H   H94       1.0  0.27065  0.03788  0.65875  1.0000
  S   S47       1.0  0.07925  0.23160  0.68754  1.0000
  C   C98       1.0  0.43222  0.21523  0.89995  1.0000
  C   C99       1.0  0.34744  0.16578  0.64798  1.0000
  N   N7        1.0  0.09127  0.20922  0.77116  1.0000
  C   C100      1.0  0.43716  0.13482  0.65648  1.0000
  H   H95       1.0  0.19224  0.20363  0.75336  1.0000
  H   H96       1.0  0.44653  0.16582  0.71634  1.0000
  C   C101      1.0  0.22824  0.14072  0.87720  1.0000
  N   N8        1.0  0.06036  0.07846  0.87520  1.0000
  C   C102      1.0  0.07655  0.06506  0.87136  1.0000
  C   C103      1.0  0.05816  0.09624  0.86371  1.0000
  C   C104      1.0  0.09080  0.06908  0.85528  1.0000
  C   C105      1.0  0.07213  0.10076  0.84754  1.0000
  C   C106      1.0  0.08849  0.08703  0.84327  1.0000
  C   C107      1.0  0.04565  0.07410  0.89220  1.0000
  H   H97       1.0  0.07824  0.05087  0.88031  1.0000
  H   H98       1.0  0.04548  0.10700  0.86688  1.0000
  H   H99       1.0  0.10318  0.05806  0.85180  1.0000
  H   H100      1.0  0.07013  0.11482  0.83835  1.0000
  H   H101      1.0  0.09927  0.09019  0.83058  1.0000
  H   H102      1.0  0.04884  0.07909  0.90482  1.0000
  H   H103      1.0  0.03094  0.08129  0.88937  1.0000
  H   H104      1.0  0.04506  0.05833  0.89577  1.0000
  N   N9        1.0  0.34897  0.06676  0.75626  1.0000
  C   C108      1.0  0.35566  0.06931  0.73677  1.0000
  C   C109      1.0  0.33977  0.05140  0.76499  1.0000
  C   C110      1.0  0.35268  0.05667  0.72538  1.0000
  C   C111      1.0  0.33672  0.03833  0.75409  1.0000
  C   C112      1.0  0.34309  0.04111  0.73413  1.0000
  C   C113      1.0  0.35000  0.08149  0.76754  1.0000
  H   H105      1.0  0.36285  0.08153  0.72981  1.0000
  H   H106      1.0  0.33396  0.04966  0.78035  1.0000
  H   H107      1.0  0.35732  0.05926  0.70980  1.0000
  H   H108      1.0  0.32878  0.02661  0.76101  1.0000
  H   H109      1.0  0.34031  0.03142  0.72542  1.0000
  H   H110      1.0  0.36206  0.08970  0.76087  1.0000
  H   H111      1.0  0.33618  0.09194  0.76830  1.0000
  H   H112      1.0  0.35216  0.07483  0.78255  1.0000
  S   S48       1.0  0.13353  0.22519  0.65687  1.0000
  C   C114      1.0  0.36214  0.12200  0.70828  1.0000
  C   C115      1.0  0.14785  0.21866  0.78607  1.0000
  C   C116      1.0  0.21544  0.99359  0.88206  1.0000
  H   H113      1.0  0.39720  0.23196  0.76515  1.0000
  H   H114      1.0  0.37468  0.12881  0.70730  1.0000
  C   C117      1.0  0.33959  0.14895  0.65582  1.0000
  S   S49       1.0  0.14333  0.98642  0.82822  1.0000
  C   C118      1.0  0.23468  0.12105  0.88323  1.0000
  C   C119      1.0  0.07185  0.20219  0.80246  1.0000
  C   C120      1.0  0.23041  0.15496  0.66517  1.0000
  C   C121      1.0  0.43798  0.01389  0.65928  1.0000
  C   C122      1.0  0.29161  0.16918  0.68270  1.0000
  S   S50       1.0  0.36112  0.21155  0.69330  1.0000
  N   N10       1.0  0.30475  0.99813  0.65379  1.0000
  H   H115      1.0  0.30204  0.00032  0.70118  1.0000
  S   S51       1.0  0.15527  0.22578  0.84128  1.0000
  H   H116      1.0  0.29121  0.20731  0.84687  1.0000
  S   S52       1.0  0.34141  0.19076  0.73637  1.0000
  H   H117      1.0  0.18998  0.20262  0.71937  1.0000
  Fe  Fe23      1.0  0.99815  0.09434  0.85962  1.0000
  H   H118      1.0  0.07520  0.18580  0.77951  1.0000
  C   C123      1.0  0.41226  0.21571  0.90152  1.0000
  C   C124      1.0  0.36816  0.17687  0.78027  1.0000
  N   N11       1.0  0.19564  0.99146  0.89172  1.0000
  H   H119      1.0  0.15543  0.01643  0.91497  1.0000
  C   C125      1.0  0.37847  0.22852  0.91317  1.0000
  C   C126      1.0  0.19742  0.13407  0.87506  1.0000
  H   H120      1.0  0.27726  0.02895  0.69263  1.0000
  H   H121      1.0  0.07269  0.22155  0.90498  1.0000
  H   H122      1.0  0.41788  0.99690  0.65420  1.0000
  C   C127      1.0  0.15870  0.98664  0.91146  1.0000
  N   N12       1.0  0.31077  0.16787  0.67050  1.0000
  H   H123      1.0  0.37069  0.20047  0.79375  1.0000
  Fe  Fe24      1.0  0.38659  0.22783  0.85214  1.0000
  C   C128      1.0  0.14879  0.21152  0.75414  1.0000
  C   C129      1.0  0.29886  0.00421  0.68653  1.0000
  H   H124      1.0  0.28026  0.17639  0.67380  1.0000
  C   C130      1.0  0.31819  0.18449  0.66253  1.0000
  Fe  Fe25      1.0  0.11639  0.99557  0.84926  1.0000
  Fe  Fe26      1.0  0.10027  0.22137  0.85755  1.0000
  C   C131      1.0  0.37237  0.22823  0.75408  1.0000
  C   C132      1.0  0.42180  0.07026  0.66422  1.0000
  H   H125      1.0  0.24956  0.11612  0.88562  1.0000
  H   H126      1.0  0.10880  0.19024  0.75288  1.0000
  H   H127      1.0  0.43258  0.07387  0.67172  1.0000
  H   H128      1.0  0.43288  0.19678  0.65111  1.0000
  H   H129      1.0  0.20592  0.16921  0.84925  1.0000
  H   H130      1.0  0.22561  0.12550  0.66895  1.0000
  H   H131      1.0  0.28044  0.21332  0.88076  1.0000
  C   C133      1.0  0.22190  0.17446  0.66196  1.0000
  H   H132      1.0  0.21702  0.00907  0.87724  1.0000
  H   H133      1.0  0.29111  0.17766  0.69434  1.0000
  C   C134      1.0  0.30880  0.99333  0.67225  1.0000
  H   H134      1.0  0.18850  0.02034  0.89769  1.0000
  C   C135      1.0  0.45054  0.17397  0.66733  1.0000
  C   C136      1.0  0.43610  0.19026  0.66543  1.0000
  S   S53       1.0  0.41711  0.23335  0.85253  1.0000
  C   C137      1.0  0.09891  0.20438  0.75178  1.0000
  S   S54       1.0  0.99884  0.11554  0.87891  1.0000
  C   C138      1.0  0.35208  0.23143  0.75643  1.0000
  H   H135      1.0  0.40721  0.20730  0.89298  1.0000
  H   H136      1.0  0.10052  0.21935  0.92207  1.0000
  H   H137      1.0  0.46519  0.15215  0.68736  1.0000
  H   H138      1.0  0.28804  0.15469  0.68975  1.0000
  C   C139      1.0  0.32111  0.15025  0.66711  1.0000
  S   S55       1.0  0.33162  0.23193  0.90539  1.0000
  C   C140      1.0  0.20489  0.22708  0.70761  1.0000
  C   C141      1.0  0.99253  0.06525  0.82423  1.0000
  H   H139      1.0  0.21913  0.98682  0.86876  1.0000
  C   C142      1.0  0.16501  0.00438  0.90924  1.0000
  H   H140      1.0  0.07170  0.22100  0.82269  1.0000
  C   C143      1.0  0.28179  0.22536  0.86892  1.0000
  H   H141      1.0  0.45428  0.22731  0.90814  1.0000
  H   H142      1.0  0.20357  0.22675  0.69281  1.0000
  H   H143      1.0  0.34491  0.22730  0.74626  1.0000
  C   C144      1.0  0.44377  0.17265  0.70195  1.0000
  H   H144      1.0  0.41988  0.05513  0.67076  1.0000
  N   N13       1.0  0.39930  0.22737  0.91281  1.0000
  H   H145      1.0  0.34787  0.13493  0.65346  1.0000
  C   C145      1.0  0.28111  0.02518  0.66280  1.0000
  H   H146      1.0  0.14420  0.98472  0.91894  1.0000
  H   H147      1.0  0.00560  0.07186  0.82348  1.0000
  H   H148      1.0  0.20818  0.22886  0.76046  1.0000
  H   H149      1.0  0.37469  0.21390  0.91435  1.0000
  C   C146      1.0  0.45414  0.02328  0.65147  1.0000
  C   C147      1.0  0.41118  0.21497  0.67886  1.0000
  H   H150      1.0  0.19618  0.19472  0.65634  1.0000
  C   C148      1.0  0.14464  0.23130  0.74714  1.0000
  H   H151      1.0  0.99718  0.04930  0.82685  1.0000
  C   C149      1.0  0.20737  0.22815  0.74562  1.0000
  Fe  Fe27      1.0  0.15951  0.98753  0.85192  1.0000
  C   C150      1.0  0.41146  0.16241  0.65040  1.0000
  C   C151      1.0  0.43888  0.22689  0.90990  1.0000
  H   H152      1.0  0.23053  0.18565  0.66083  1.0000
  C   C152      1.0  0.09507  0.23293  0.91353  1.0000
  C   C153      1.0  0.38152  0.23419  0.76700  1.0000
  C   C154      1.0  0.29114  0.01384  0.64895  1.0000
  C   C155      1.0  0.07948  0.23416  0.90396  1.0000
  C   C156      1.0  0.43022  0.00411  0.64793  1.0000
  H   H153      1.0  0.10599  0.23342  0.76672  1.0000
  H   H154      1.0  0.22593  0.98666  0.89197  1.0000
  Fe  Fe28      1.0  0.02173  0.32389  0.62979  1.0000
  S   S56       1.0  0.01945  0.34729  0.60360  1.0000
  S   S57       1.0  0.04761  0.30040  0.62463  1.0000
  Fe  Fe29      1.0  0.01523  0.36757  0.62519  1.0000
  S   S58       1.0  0.02869  0.39532  0.61953  1.0000
  H   H155      1.0  0.18940  0.38060  0.61903  1.0000
  H   H156      1.0  0.11624  0.30640  0.61039  1.0000
  C   C157      1.0  0.07347  0.26933  0.63758  1.0000
  C   C158      1.0  0.08929  0.31905  0.62612  1.0000
  C   C159      1.0  0.05577  0.28131  0.64244  1.0000
  C   C160      1.0  0.10686  0.30635  0.62431  1.0000
  C   C161      1.0  0.16678  0.40547  0.61646  1.0000
  C   C162      1.0  0.14296  0.38257  0.64263  1.0000
  H   H157      1.0  0.20203  0.43129  0.63344  1.0000
  H   H158      1.0  0.99852  0.47050  0.35238  1.0000
  C   C163      1.0  0.14744  0.41285  0.62302  1.0000
  C   C164      1.0  0.07728  0.31871  0.64408  1.0000
  H   H159      1.0  0.17617  0.41485  0.60691  1.0000
  C   C165      1.0  0.04275  0.40358  0.63343  1.0000
  C   C166      1.0  0.05876  0.42954  0.63796  1.0000
  C   C167      1.0  0.04857  0.42184  0.62696  1.0000
  H   H160      1.0  0.06285  0.44371  0.63284  1.0000
  H   H161      1.0  0.04499  0.43021  0.61338  1.0000
  H   H162      1.0  0.08149  0.27172  0.62304  1.0000
  S   S59       1.0  0.10694  0.46413  0.63410  1.0000
  H   H163      1.0  0.06334  0.32812  0.64543  1.0000
  H   H164      1.0  0.21722  0.39758  0.64366  1.0000
  H   H165      1.0  0.99883  0.42879  0.63135  1.0000
  H   H166      1.0  0.16817  0.36006  0.64234  1.0000
  H   H167      1.0  0.08467  0.32881  0.61356  1.0000
  N   N14       1.0  0.13577  0.40135  0.63579  1.0000
  C   C168      1.0  0.17419  0.38629  0.62323  1.0000
  H   H168      1.0  0.12564  0.28326  0.63907  1.0000
  H   H169      1.0  0.14206  0.42803  0.61837  1.0000
  S   S60       1.0  0.16329  0.45094  0.63992  1.0000
  C   C169      1.0  0.11200  0.29322  0.64051  1.0000
  C   C170      1.0  0.19370  0.42162  0.64392  1.0000
  C   C171      1.0  0.16223  0.37472  0.63637  1.0000
  H   H170      1.0  0.10905  0.42009  0.63184  1.0000
  C   C172      1.0  0.11592  0.40971  0.64330  1.0000
  H   H171      1.0  0.09438  0.24497  0.64735  1.0000
  H   H172      1.0  0.30367  0.29822  0.72561  1.0000
  C   C173      1.0  0.44285  0.25253  0.86249  1.0000
  C   C174      1.0  0.00602  0.41870  0.66675  1.0000
  C   C175      1.0  0.00459  0.39309  0.69440  1.0000
  C   C176      1.0  0.44850  0.26489  0.87281  1.0000
  H   H173      1.0  0.19923  0.41099  0.69442  1.0000
  H   H174      1.0  0.22312  0.36487  0.92608  1.0000
  H   H175      1.0  0.17798  0.47800  0.67915  1.0000
  S   S61       1.0  0.13588  0.25473  0.79560  1.0000
  C   C177      1.0  0.35025  0.24500  0.78552  1.0000
  Fe  Fe30      1.0  0.46933  0.30129  0.89662  1.0000
  N   N15       1.0  0.09977  0.29251  0.65788  1.0000
  S   S62       1.0  0.44101  0.28909  0.90058  1.0000
  Fe  Fe31      1.0  0.48107  0.34134  0.88486  1.0000
  S   S63       1.0  0.46850  0.37278  0.87531  1.0000
  S   S64       1.0  0.46939  0.32495  0.91342  1.0000
  C   C178      1.0  0.16405  0.47250  0.68467  1.0000
  C   C179      1.0  0.28604  0.47663  0.86252  1.0000
  C   C180      1.0  0.30649  0.27051  0.69664  1.0000
  H   H176      1.0  0.28162  0.46413  0.87246  1.0000
  S   S65       1.0  0.11680  0.45237  0.67867  1.0000
  H   H177      1.0  0.37420  0.23756  0.89965  1.0000
  Fe  Fe32      1.0  0.09091  0.45483  0.66389  1.0000
  S   S66       1.0  0.07483  0.42863  0.67090  1.0000
  Fe  Fe33      1.0  0.21792  0.33092  0.86443  1.0000
  S   S67       1.0  0.24321  0.30691  0.86264  1.0000
  S   S68       1.0  0.18971  0.32608  0.85666  1.0000
  Fe  Fe34      1.0  0.24390  0.35929  0.87129  1.0000
  S   S69       1.0  0.27068  0.33686  0.86931  1.0000
  S   S70       1.0  0.24370  0.38916  0.87864  1.0000
  Fe  Fe35      1.0  0.25972  0.32968  0.84456  1.0000
  S   S71       1.0  0.27696  0.32247  0.81635  1.0000
  Fe  Fe36      1.0  0.25109  0.31682  0.88747  1.0000
  S   S72       1.0  0.25869  0.29742  0.91446  1.0000
  S   S73       1.0  0.23418  0.35354  0.84495  1.0000
  S   S74       1.0  0.22454  0.33939  0.89095  1.0000
  Fe  Fe37      1.0  0.21461  0.34680  0.68888  1.0000
  S   S75       1.0  0.19723  0.34282  0.71871  1.0000
  H   H178      1.0  0.03176  0.28723  0.66512  1.0000
  Fe  Fe38      1.0  0.24980  0.31801  0.70117  1.0000
  S   S76       1.0  0.23481  0.31143  0.73168  1.0000
  S   S77       1.0  0.28134  0.30481  0.69486  1.0000
  Fe  Fe39      1.0  0.20883  0.31140  0.71869  1.0000
  S   S78       1.0  0.19053  0.28849  0.73138  1.0000
  Fe  Fe40      1.0  0.22499  0.34340  0.72878  1.0000
  S   S79       1.0  0.22592  0.36085  0.75141  1.0000
  S   S80       1.0  0.22461  0.31492  0.68815  1.0000
  S   S81       1.0  0.24155  0.35033  0.69888  1.0000
  Fe  Fe41      1.0  0.36729  0.43745  0.90668  1.0000
  S   S82       1.0  0.34062  0.44743  0.92752  1.0000
  S   S83       1.0  0.38678  0.41004  0.91792  1.0000
  C   C181      1.0  0.10735  0.28301  0.89759  1.0000
  H   H179      1.0  0.45383  0.24378  0.85368  1.0000
  S   S84       1.0  0.33650  0.25355  0.80628  1.0000
  H   H180      1.0  0.18455  0.31032  0.69365  1.0000
  Fe  Fe42      1.0  0.32458  0.44934  0.90270  1.0000
  S   S85       1.0  0.29456  0.44096  0.90527  1.0000
  S   S86       1.0  0.37451  0.46744  0.89576  1.0000
  S   S87       1.0  0.35077  0.43782  0.88283  1.0000
  C   C182      1.0  0.31129  0.31403  0.77182  1.0000
  H   H181      1.0  0.06117  0.25241  0.88469  1.0000
  C   C183      1.0  0.48841  0.37419  0.91647  1.0000
  H   H182      1.0  0.14497  0.42288  0.73221  1.0000
  C   C184      1.0  0.48858  0.35582  0.94940  1.0000
  C   C185      1.0  0.28230  0.42582  0.89635  1.0000
  C   C186      1.0  0.26213  0.43087  0.89802  1.0000
  C   C187      1.0  0.25105  0.41971  0.89194  1.0000
  C   C188      1.0  0.25968  0.40280  0.88446  1.0000
  C   C189      1.0  0.28000  0.39747  0.88266  1.0000
  C   C190      1.0  0.29133  0.40910  0.88841  1.0000
  H   H183      1.0  0.25489  0.44361  0.90414  1.0000
  H   H184      1.0  0.23548  0.42407  0.89340  1.0000
  H   H185      1.0  0.28692  0.38448  0.87686  1.0000
  H   H186      1.0  0.30690  0.40493  0.88706  1.0000
  C   C191      1.0  0.26259  0.33294  0.79850  1.0000
  C   C192      1.0  0.25499  0.35267  0.79635  1.0000
  C   C193      1.0  0.24366  0.36106  0.78192  1.0000
  C   C194      1.0  0.23993  0.34979  0.76955  1.0000
  C   C195      1.0  0.24744  0.33000  0.77185  1.0000
  C   C196      1.0  0.25877  0.32158  0.78627  1.0000
  H   H187      1.0  0.25802  0.36155  0.80567  1.0000
  H   H188      1.0  0.23784  0.37635  0.78033  1.0000
  H   H189      1.0  0.24442  0.32108  0.76273  1.0000
  H   H190      1.0  0.26451  0.30628  0.78797  1.0000
  H   H191      1.0  0.27330  0.24711  0.88743  1.0000
  H   H192      1.0  0.22207  0.26881  0.70110  1.0000
  H   H193      1.0  0.27432  0.28209  0.82199  1.0000
  H   H194      1.0  0.39548  0.24870  0.93095  1.0000
  C   C197      1.0  0.17404  0.42784  0.65041  1.0000
  S   S88       1.0  0.36085  0.25152  0.85453  1.0000
  C   C198      1.0  0.29932  0.32612  0.75947  1.0000
  H   H195      1.0  0.17891  0.26561  0.82668  1.0000
  H   H196      1.0  0.29451  0.26803  0.80880  1.0000
  C   C199      1.0  0.29973  0.25122  0.92509  1.0000
  C   C200      1.0  0.28355  0.26573  0.92712  1.0000
  C   C201      1.0  0.27943  0.27989  0.91131  1.0000
  C   C202      1.0  0.29174  0.27976  0.89344  1.0000
  H   H197      1.0  0.37770  0.24686  0.79275  1.0000
  C   C203      1.0  0.07042  0.25076  0.67008  1.0000
  H   H198      1.0  0.27411  0.26584  0.94097  1.0000
  H   H199      1.0  0.28880  0.29099  0.88131  1.0000
  Fe  Fe43      1.0  0.13498  0.23716  0.86609  1.0000
  H   H200      1.0  0.26858  0.39464  0.93044  1.0000
  C   C204      1.0  0.06317  0.41911  0.65573  1.0000
  C   C205      1.0  0.28703  0.27937  0.69760  1.0000
  C   C206      1.0  0.27254  0.26789  0.70059  1.0000
  C   C207      1.0  0.27761  0.24766  0.70212  1.0000
  H   H201      1.0  0.25752  0.27465  0.70140  1.0000
  C   C208      1.0  0.01174  0.40980  0.68449  1.0000
  C   C209      1.0  0.44622  0.38362  0.88765  1.0000
  C   C210      1.0  0.43747  0.37441  0.90542  1.0000
  C   C211      1.0  0.41964  0.38313  0.91478  1.0000
  C   C212      1.0  0.41007  0.40092  0.90628  1.0000
  C   C213      1.0  0.41879  0.41025  0.88852  1.0000
  C   C214      1.0  0.43690  0.40168  0.87933  1.0000
  H   H202      1.0  0.44430  0.36055  0.91203  1.0000
  H   H203      1.0  0.41298  0.37582  0.92850  1.0000
  H   H204      1.0  0.41156  0.42400  0.88186  1.0000
  H   H205      1.0  0.44359  0.40899  0.86562  1.0000
  C   C215      1.0  0.43454  0.27572  0.88487  1.0000
  C   C216      1.0  0.21497  0.24158  0.73036  1.0000
  C   C217      1.0  0.41485  0.27464  0.88580  1.0000
  H   H206      1.0  0.46370  0.26548  0.87196  1.0000
  H   H207      1.0  0.40390  0.28296  0.89503  1.0000
  C   C218      1.0  0.16066  0.27142  0.87606  1.0000
  C   C219      1.0  0.17558  0.27380  0.88525  1.0000
  C   C220      1.0  0.18494  0.29019  0.87922  1.0000
  C   C221      1.0  0.17899  0.30475  0.86435  1.0000
  C   C222      1.0  0.16388  0.30246  0.85533  1.0000
  C   C223      1.0  0.15504  0.28574  0.86085  1.0000
  H   H208      1.0  0.17993  0.26293  0.89715  1.0000
  H   H209      1.0  0.19643  0.29179  0.88640  1.0000
  H   H210      1.0  0.15902  0.31373  0.84396  1.0000
  H   H211      1.0  0.14343  0.28426  0.85379  1.0000
  C   C224      1.0  0.16578  0.27421  0.68283  1.0000
  C   C225      1.0  0.17245  0.29183  0.68040  1.0000
  C   C226      1.0  0.17934  0.29673  0.69561  1.0000
  C   C227      1.0  0.17946  0.28403  0.71325  1.0000
  C   C228      1.0  0.17219  0.26676  0.71583  1.0000
  C   C229      1.0  0.16568  0.26171  0.70055  1.0000
  C   C230      1.0  0.05764  0.40070  0.66207  1.0000
  C   C231      1.0  0.04544  0.27809  0.66125  1.0000
  H   H212      1.0  0.33022  0.28669  0.77660  1.0000
  C   C232      1.0  0.10407  0.24915  0.91143  1.0000
  H   H213      1.0  0.09245  0.27540  0.68568  1.0000
  H   H214      1.0  0.13795  0.26008  0.75433  1.0000
  Fe  Fe44      1.0  0.34691  0.47764  0.91507  1.0000
  S   S89       1.0  0.14819  0.25137  0.88513  1.0000
  S   S90       1.0  0.01897  0.34435  0.65091  1.0000
  H   H215      1.0  0.15681  0.47275  0.67221  1.0000
  H   H216      1.0  0.27180  0.32509  0.72963  1.0000
  H   H217      1.0  0.06097  0.39247  0.67578  1.0000
  H   H218      1.0  0.04449  0.26005  0.68941  1.0000
  N   N16       1.0  0.09764  0.26614  0.90015  1.0000
  H   H219      1.0  0.29186  0.33994  0.76331  1.0000
  C   C233      1.0  0.15594  0.42761  0.72031  1.0000
  H   H220      1.0  0.02200  0.41563  0.69023  1.0000
  C   C234      1.0  0.17216  0.39599  0.66996  1.0000
  H   H221      1.0  0.07289  0.30445  0.67359  1.0000
  C   C235      1.0  0.15340  0.44664  0.71036  1.0000
  H   H222      1.0  0.14029  0.45651  0.71466  1.0000
  C   C236      1.0  0.31152  0.25028  0.69848  1.0000
  C   C237      1.0  0.05268  0.26271  0.67497  1.0000
  C   C238      1.0  0.29028  0.23768  0.83490  1.0000
  H   H223      1.0  0.43064  0.24852  0.92844  1.0000
  H   H224      1.0  0.15479  0.48264  0.69402  1.0000
  N   N17       1.0  0.18151  0.28861  0.80238  1.0000
  C   C239      1.0  0.17894  0.29526  0.78358  1.0000
  C   C240      1.0  0.19127  0.29809  0.81131  1.0000
  C   C241      1.0  0.18629  0.31178  0.77322  1.0000
  C   C242      1.0  0.19864  0.31475  0.80143  1.0000
  C   C243      1.0  0.19611  0.32161  0.78226  1.0000
  C   C244      1.0  0.19162  0.38952  0.66260  1.0000
  H   H225      1.0  0.17112  0.28781  0.77647  1.0000
  H   H226      1.0  0.19332  0.29294  0.82621  1.0000
  H   H227      1.0  0.18426  0.31694  0.75830  1.0000
  H   H228      1.0  0.20608  0.32242  0.80870  1.0000
  H   H229      1.0  0.20164  0.33458  0.77448  1.0000
  H   H230      1.0  0.32536  0.24193  0.77412  1.0000
  C   C245      1.0  0.40571  0.23889  0.92260  1.0000
  H   H231      1.0  0.19389  0.44470  0.67707  1.0000
  N   N18       1.0  0.42104  0.35753  0.86980  1.0000
  C   C246      1.0  0.42315  0.34008  0.88185  1.0000
  C   C247      1.0  0.40562  0.37164  0.87400  1.0000
  C   C248      1.0  0.41002  0.33667  0.89899  1.0000
  C   C249      1.0  0.39214  0.36868  0.89096  1.0000
  C   C250      1.0  0.39449  0.35113  0.90360  1.0000
  C   C251      1.0  0.43490  0.36090  0.85188  1.0000
  H   H232      1.0  0.43516  0.32872  0.87841  1.0000
  H   H233      1.0  0.40401  0.38555  0.86456  1.0000
  H   H234      1.0  0.41205  0.32293  0.90868  1.0000
  H   H235      1.0  0.38042  0.38025  0.89466  1.0000
  H   H236      1.0  0.38446  0.34890  0.91706  1.0000
  H   H237      1.0  0.43730  0.37622  0.84855  1.0000
  H   H238      1.0  0.44936  0.35201  0.85329  1.0000
  H   H239      1.0  0.42951  0.35732  0.83967  1.0000
  H   H240      1.0  0.31373  0.44674  0.86427  1.0000
  H   H241      1.0  0.36902  0.48165  0.95614  1.0000
  H   H242      1.0  0.11608  0.28306  0.68083  1.0000
  C   C252      1.0  0.28857  0.27265  0.82304  1.0000
  C   C253      1.0  0.31565  0.45602  0.84979  1.0000
  H   H243      1.0  0.48018  0.34604  0.94622  1.0000
  H   H244      1.0  0.47664  0.36610  0.91632  1.0000
  H   H245      1.0  0.27701  0.27432  0.86026  1.0000
  C   C254      1.0  0.14169  0.24478  0.75969  1.0000
  C   C255      1.0  0.22111  0.25544  0.69582  1.0000
  C   C256      1.0  0.28010  0.25963  0.85729  1.0000
  Fe  Fe45      1.0  0.35109  0.23932  0.83194  1.0000
  S   S91       1.0  0.11058  0.25044  0.84942  1.0000
  H   H246      1.0  0.09403  0.24095  0.79962  1.0000
  H   H247      1.0  0.00907  0.38590  0.70805  1.0000
  C   C257      1.0  0.17262  0.41476  0.71471  1.0000
  H   H248      1.0  0.31202  0.44854  0.83908  1.0000
  H   H249      1.0  0.17477  0.39992  0.72221  1.0000
  H   H250      1.0  0.29953  0.33139  0.92577  1.0000
  H   H251      1.0  0.17253  0.30157  0.66671  1.0000
  H   H252      1.0  0.14340  0.23627  0.73217  1.0000
  C   C258      1.0  0.07301  0.25154  0.89253  1.0000
  C   C259      1.0  0.40919  0.26246  0.87529  1.0000
  S   S92       1.0  0.15789  0.26748  0.66376  1.0000
  H   H253      1.0  0.17537  0.26021  0.80420  1.0000
  H   H254      1.0  0.09688  0.29561  0.90214  1.0000
  H   H255      1.0  0.16355  0.38585  0.67934  1.0000
  H   H256      1.0  0.11937  0.28013  0.90616  1.0000
  S   S93       1.0  0.20050  0.36457  0.66387  1.0000
  H   H257      1.0  0.11391  0.28671  0.88216  1.0000
  C   C260      1.0  0.28494  0.33027  0.92326  1.0000
  H   H258      1.0  0.13396  0.37367  0.65335  1.0000
  C   C261      1.0  0.42558  0.23878  0.92135  1.0000
  C   C262      1.0  0.30793  0.26503  0.89133  1.0000
  Fe  Fe46      1.0  0.35522  0.46889  0.87391  1.0000
  C   C263      1.0  0.16337  0.41516  0.66393  1.0000
  H   H259      1.0  0.31294  0.31845  0.78504  1.0000
  S   S94       1.0  0.47958  0.31844  0.86791  1.0000
  H   H260      1.0  0.15691  0.27616  0.81711  1.0000
  C   C264      1.0  0.28362  0.33278  0.73054  1.0000
  H   H261      1.0  0.11657  0.24787  0.91845  1.0000
  H   H262      1.0  0.24702  0.33496  0.92375  1.0000
  C   C265      1.0  0.27701  0.36447  0.92744  1.0000
  C   C266      1.0  0.26369  0.38144  0.92944  1.0000
  C   C267      1.0  0.24416  0.38157  0.92910  1.0000
  H   H263      1.0  0.29223  0.36473  0.92710  1.0000
  H   H264      1.0  0.23383  0.39486  0.92970  1.0000
  H   H265      1.0  0.14819  0.41977  0.66901  1.0000
  H   H266      1.0  0.33124  0.45762  0.84604  1.0000
  C   C268      1.0  0.31813  0.29044  0.75043  1.0000
  C   C269      1.0  0.42321  0.25098  0.86388  1.0000
  Fe  Fe47      1.0  0.14796  0.23884  0.67466  1.0000
  H   H267      1.0  0.01201  0.43143  0.65894  1.0000
  H   H268      1.0  0.39403  0.26160  0.87639  1.0000
  C   C270      1.0  0.20240  0.40256  0.64988  1.0000
  N   N19       1.0  0.16718  0.45272  0.69535  1.0000
  N   N20       1.0  0.27094  0.34797  0.92563  1.0000
  C   C271      1.0  0.23815  0.36475  0.92703  1.0000
  H   H269      1.0  0.28626  0.32712  0.90838  1.0000
  C   C272      1.0  0.32081  0.29613  0.76719  1.0000
  C   C273      1.0  0.04757  0.39294  0.65100  1.0000
  H   H270      1.0  0.16101  0.24793  0.70237  1.0000
  H   H271      1.0  0.29169  0.33640  0.71568  1.0000
  H   H272      1.0  0.27992  0.31775  0.93367  1.0000
  H   H273      1.0  0.27671  0.34647  0.73598  1.0000
  C   C274      1.0  0.25179  0.34796  0.92542  1.0000
  N   N21       1.0  0.29661  0.32034  0.74316  1.0000
  N   N22       1.0  0.30324  0.47494  0.85000  1.0000
  H   H274      1.0  0.26644  0.23881  0.70417  1.0000
  H   H275      1.0  0.32548  0.27654  0.74669  1.0000
  C   C275      1.0  0.31183  0.25071  0.90721  1.0000
  H   H276      1.0  0.22161  0.25275  0.73359  1.0000
  H   H277      1.0  0.31776  0.27931  0.69425  1.0000
  C   C276      1.0  0.30584  0.30278  0.73855  1.0000
  H   H278      1.0  0.17237  0.25691  0.72941  1.0000
  C   C277      1.0  0.34102  0.23991  0.77210  1.0000
  C   C278      1.0  0.14273  0.23839  0.77929  1.0000
  C   C279      1.0  0.17283  0.27183  0.81316  1.0000
  C   C280      1.0  0.08231  0.26749  0.89078  1.0000
  H   H279      1.0  0.21133  0.26001  0.68479  1.0000
  H   H280      1.0  0.32657  0.24363  0.69757  1.0000
  C   C281      1.0  0.08273  0.30520  0.65990  1.0000
  H   H281      1.0  0.11168  0.26413  0.66961  1.0000
  H   H282      1.0  0.29880  0.28132  0.82585  1.0000
  H   H283      1.0  0.31741  0.26478  0.87752  1.0000
  C   C282      1.0  0.10523  0.27819  0.67441  1.0000
  N   N23       1.0  0.28635  0.25620  0.83874  1.0000
  H   H284      1.0  0.23576  0.24932  0.68887  1.0000
  Fe  Fe48      1.0  0.13041  0.23742  0.82523  1.0000
  S   S95       1.0  0.12527  0.23634  0.70110  1.0000
  C   C283      1.0  0.18644  0.42102  0.69921  1.0000
  H   H285      1.0  0.07744  0.28083  0.88155  1.0000
  C   C284      1.0  0.29711  0.23881  0.70097  1.0000
  N   N24       1.0  0.99363  0.41109  0.65907  1.0000
  C   C285      1.0  0.18339  0.44012  0.68952  1.0000
  Fe  Fe49      1.0  0.13197  0.46330  0.64938  1.0000
  S   S96       1.0  0.36308  0.48030  0.84212  1.0000
  H   H286      1.0  0.11603  0.41747  0.65531  1.0000
  H   H287      1.0  0.30274  0.24020  0.93738  1.0000
  N   N25       1.0  0.21339  0.24109  0.71167  1.0000
  C   C286      1.0  0.37049  0.24248  0.78273  1.0000
  H   H288      1.0  0.04320  0.37891  0.65623  1.0000
  H   H289      1.0  0.10647  0.39848  0.64890  1.0000
  C   C287      1.0  0.08085  0.25423  0.65137  1.0000
  S   S97       1.0  0.32807  0.48063  0.89217  1.0000
  H   H290      1.0  0.48289  0.38975  0.91179  1.0000
  C   C288      1.0  0.27784  0.24430  0.87267  1.0000
  H   H291      1.0  0.29566  0.23494  0.82024  1.0000
  C   C289      1.0  0.99167  0.38564  0.68663  1.0000
  Fe  Fe50      1.0  0.10778  0.48388  0.68163  1.0000
  H   H292      1.0  0.36953  0.23492  0.92565  1.0000
  Fe  Fe51      1.0  0.10760  0.63929  0.27101  1.0000
  H   H293      1.0  0.11784  0.70904  0.30261  1.0000
  S   S98       1.0  0.07948  0.64752  0.29068  1.0000
  Fe  Fe52      1.0  0.13297  0.62699  0.23462  1.0000
  S   S99       1.0  0.15977  0.63428  0.24110  1.0000
  S   S100      1.0  0.13499  0.61391  0.20805  1.0000
  C   C290      1.0  0.18138  0.63905  0.28405  1.0000
  Fe  Fe53      1.0  0.14050  0.66080  0.24992  1.0000
  S   S101      1.0  0.15118  0.68924  0.24072  1.0000
  S   S102      1.0  0.12408  0.61045  0.26443  1.0000
  S   S103      1.0  0.11427  0.65504  0.24053  1.0000
  S   S104      1.0  0.45683  0.63949  0.14394  1.0000
  H   H294      1.0  0.06427  0.58159  0.30370  1.0000
  Fe  Fe54      1.0  0.37941  0.63606  0.23429  1.0000
  S   S105      1.0  0.37785  0.66787  0.22372  1.0000
  S   S106      1.0  0.40648  0.61525  0.22564  1.0000
  Fe  Fe55      1.0  0.33868  0.64078  0.25824  1.0000
  S   S107      1.0  0.33392  0.67301  0.24975  1.0000
  S   S108      1.0  0.31341  0.62686  0.27536  1.0000
  Fe  Fe56      1.0  0.34750  0.66708  0.22014  1.0000
  S   S109      1.0  0.33371  0.68345  0.19484  1.0000
  Fe  Fe57      1.0  0.36445  0.67087  0.25433  1.0000
  S   S110      1.0  0.37218  0.69160  0.27032  1.0000
  S   S111      1.0  0.35014  0.63483  0.22798  1.0000
  S   S112      1.0  0.36829  0.63894  0.26554  1.0000
  Fe  Fe58      1.0  0.40543  0.58050  0.02043  1.0000
  S   S113      1.0  0.38825  0.60897  0.00866  1.0000
  S   S114      1.0  0.42362  0.57660  0.04472  1.0000
  Fe  Fe59      1.0  0.38627  0.55721  0.99839  1.0000
  H   H295      1.0  0.31149  0.55957  0.98650  1.0000
  H   H296      1.0  0.11989  0.59510  0.31107  1.0000
  Fe  Fe60      1.0  0.36296  0.59290  0.01514  1.0000
  S   S115      1.0  0.33213  0.60606  0.02592  1.0000
  S   S116      1.0  0.37934  0.56502  0.02846  1.0000
  Fe  Fe61      1.0  0.27722  0.62923  0.12674  1.0000
  S   S117      1.0  0.27607  0.65688  0.13758  1.0000
  S   S118      1.0  0.30703  0.61438  0.11478  1.0000
  Fe  Fe62      1.0  0.23445  0.62791  0.14266  1.0000
  S   S119      1.0  0.22965  0.65529  0.15476  1.0000
  S   S120      1.0  0.21114  0.61002  0.14517  1.0000
  Fe  Fe63      1.0  0.24765  0.66628  0.12685  1.0000
  S   S121      1.0  0.23828  0.69673  0.11270  1.0000
  Fe  Fe64      1.0  0.25817  0.64379  0.16459  1.0000
  S   S122      1.0  0.26103  0.64518  0.19500  1.0000
  S   S123      1.0  0.25013  0.63976  0.11347  1.0000
  S   S124      1.0  0.26162  0.61517  0.15496  1.0000
  H   H297      1.0  0.18049  0.61744  0.12111  1.0000
  H   H298      1.0  0.25250  0.69080  0.14869  1.0000
  C   C291      1.0  0.32540  0.60845  0.05061  1.0000
  C   C292      1.0  0.30648  0.61715  0.05734  1.0000
  C   C293      1.0  0.30067  0.61914  0.07695  1.0000
  C   C294      1.0  0.31373  0.61233  0.08999  1.0000
  C   C295      1.0  0.33265  0.60360  0.08325  1.0000
  C   C296      1.0  0.33849  0.60169  0.06363  1.0000
  H   H299      1.0  0.29627  0.62240  0.04736  1.0000
  H   H300      1.0  0.28607  0.62588  0.08197  1.0000
  H   H301      1.0  0.34282  0.59827  0.09326  1.0000
  H   H302      1.0  0.35310  0.59496  0.05861  1.0000
  C   C297      1.0  0.25152  0.70594  0.14261  1.0000
  H   H303      1.0  0.46332  0.60655  0.17487  1.0000
  H   H304      1.0  0.25814  0.65156  0.25662  1.0000
  C   C298      1.0  0.16887  0.63007  0.12331  1.0000
  C   C299      1.0  0.31245  0.67426  0.19548  1.0000
  C   C300      1.0  0.30589  0.66095  0.21143  1.0000
  C   C301      1.0  0.28977  0.65244  0.21144  1.0000
  C   C302      1.0  0.28018  0.65717  0.19543  1.0000
  C   C303      1.0  0.28635  0.67093  0.17973  1.0000
  C   C304      1.0  0.30248  0.67948  0.17973  1.0000
  H   H305      1.0  0.31334  0.65704  0.22374  1.0000
  H   H306      1.0  0.28507  0.64182  0.22365  1.0000
  H   H307      1.0  0.27860  0.67522  0.16766  1.0000
  H   H308      1.0  0.30733  0.68993  0.16744  1.0000
  C   C305      1.0  0.47298  0.60369  0.05744  1.0000
  C   C306      1.0  0.46520  0.58875  0.07060  1.0000
  C   C307      1.0  0.45053  0.58038  0.06617  1.0000
  C   C308      1.0  0.44317  0.58693  0.04867  1.0000
  C   C309      1.0  0.45094  0.60187  0.03549  1.0000
  C   C310      1.0  0.46581  0.61008  0.03981  1.0000
  C   C311      1.0  0.24665  0.66342  0.28287  1.0000
  H   H309      1.0  0.44480  0.56875  0.07645  1.0000
  H   H310      1.0  0.44553  0.60707  0.02196  1.0000
  H   H311      1.0  0.47173  0.62156  0.02948  1.0000
  C   C312      1.0  0.41966  0.62092  0.20220  1.0000
  C   C313      1.0  0.41286  0.63705  0.18927  1.0000
  C   C314      1.0  0.42431  0.64230  0.17131  1.0000
  C   C315      1.0  0.44258  0.63142  0.16608  1.0000
  C   C316      1.0  0.44924  0.61502  0.17879  1.0000
  C   C317      1.0  0.43779  0.60981  0.19684  1.0000
  H   H312      1.0  0.39889  0.64564  0.19318  1.0000
  H   H313      1.0  0.41910  0.65500  0.16151  1.0000
  H   H314      1.0  0.44313  0.59730  0.20678  1.0000
  C   C318      1.0  0.15659  0.61343  0.19117  1.0000
  C   C319      1.0  0.16965  0.62624  0.18971  1.0000
  C   C320      1.0  0.18664  0.62537  0.17573  1.0000
  C   C321      1.0  0.19059  0.61160  0.16336  1.0000
  C   C322      1.0  0.17758  0.59882  0.16501  1.0000
  C   C323      1.0  0.16061  0.59984  0.17871  1.0000
  H   H315      1.0  0.16647  0.63704  0.19905  1.0000
  H   H316      1.0  0.19658  0.63536  0.17452  1.0000
  H   H317      1.0  0.18052  0.58814  0.15551  1.0000
  H   H318      1.0  0.15057  0.58995  0.17972  1.0000
  C   C324      1.0  0.12539  0.71349  0.28821  1.0000
  C   C325      1.0  0.13339  0.69976  0.27600  1.0000
  C   C326      1.0  0.14255  0.70556  0.25708  1.0000
  C   C327      1.0  0.09743  0.71054  0.24632  1.0000
  H   H319      1.0  0.31488  0.60315  0.17994  1.0000
  H   H320      1.0  0.13221  0.68484  0.28123  1.0000
  C   C328      1.0  0.32230  0.56278  0.01166  1.0000
  N   N26       1.0  0.32461  0.62915  0.16413  1.0000
  C   C329      1.0  0.32626  0.64099  0.14652  1.0000
  C   C330      1.0  0.33516  0.63057  0.17772  1.0000
  C   C331      1.0  0.33877  0.65466  0.14211  1.0000
  C   C332      1.0  0.34815  0.64376  0.17361  1.0000
  C   C333      1.0  0.34976  0.65603  0.15579  1.0000
  C   C334      1.0  0.31061  0.61569  0.16882  1.0000
  H   H321      1.0  0.31779  0.64000  0.13580  1.0000
  H   H322      1.0  0.33340  0.62169  0.19194  1.0000
  H   H323      1.0  0.33973  0.66426  0.12827  1.0000
  H   H324      1.0  0.35638  0.64502  0.18444  1.0000
  H   H325      1.0  0.35923  0.66684  0.15282  1.0000
  H   H326      1.0  0.29608  0.62333  0.17437  1.0000
  H   H327      1.0  0.30964  0.60980  0.15579  1.0000
  S   S125      1.0  0.17095  0.60332  0.28993  1.0000
  H   H328      1.0  0.41417  0.63462  0.25635  1.0000
  H   H329      1.0  0.26235  0.71309  0.16599  1.0000
  H   H330      1.0  0.15842  0.62525  0.13630  1.0000
  H   H331      1.0  0.20027  0.64289  0.10210  1.0000
  C   C335      1.0  0.31351  0.64302  0.30736  1.0000
  C   C336      1.0  0.27862  0.66577  0.26471  1.0000
  C   C337      1.0  0.06066  0.59581  0.30782  1.0000
  C   C338      1.0  0.07545  0.69624  0.29791  1.0000
  H   H332      1.0  0.42162  0.70648  0.21699  1.0000
  H   H333      1.0  0.38516  0.72436  0.27813  1.0000
  C   C339      1.0  0.24468  0.71289  0.12507  1.0000
  C   C340      1.0  0.19612  0.72602  0.21066  1.0000
  C   C341      1.0  0.21513  0.68889  0.20664  1.0000
  H   H334      1.0  0.31875  0.72441  0.19156  1.0000
  H   H335      1.0  0.15612  0.65285  0.15037  1.0000
  H   H336      1.0  0.19837  0.69090  0.13055  1.0000
  N   N27       1.0  0.42430  0.65986  0.23942  1.0000
  C   C342      1.0  0.09021  0.69961  0.26383  1.0000
  H   H337      1.0  0.35030  0.51066  0.04781  1.0000
  H   H338      1.0  0.41202  0.68681  0.24881  1.0000
  H   H339      1.0  0.32376  0.65161  0.99930  1.0000
  C   C343      1.0  0.27211  0.68945  0.30839  1.0000
  N   N28       1.0  0.17724  0.64643  0.12584  1.0000
  N   N29       1.0  0.26829  0.67900  0.29416  1.0000
  C   C344      1.0  0.07091  0.61058  0.29753  1.0000
  C   C345      1.0  0.19233  0.67847  0.12923  1.0000
  C   C346      1.0  0.31978  0.55249  0.99788  1.0000
  S   S126      1.0  0.41384  0.57007  0.99155  1.0000
  S   S127      1.0  0.48662  0.59574  0.11856  1.0000
  H   H340      1.0  0.47055  0.58357  0.08416  1.0000
  N   N30       1.0  0.41921  0.61346  0.08811  1.0000
  C   C347      1.0  0.42857  0.62675  0.07501  1.0000
  C   C348      1.0  0.42314  0.60850  0.10662  1.0000
  C   C349      1.0  0.44236  0.63535  0.08030  1.0000
  C   C350      1.0  0.43674  0.61694  0.11242  1.0000
  C   C351      1.0  0.44642  0.63040  0.09912  1.0000
  C   C352      1.0  0.40487  0.60436  0.08250  1.0000
  H   H341      1.0  0.42596  0.63028  0.06017  1.0000
  H   H342      1.0  0.41592  0.59780  0.11694  1.0000
  H   H343      1.0  0.45045  0.64520  0.06969  1.0000
  H   H344      1.0  0.44000  0.61292  0.12706  1.0000
  H   H345      1.0  0.45730  0.63674  0.10331  1.0000
  H   H346      1.0  0.40404  0.60855  0.06679  1.0000
  H   H347      1.0  0.40900  0.58833  0.08518  1.0000
  H   H348      1.0  0.39026  0.60852  0.09080  1.0000
  N   N31       1.0  0.19423  0.59175  0.22912  1.0000
  C   C353      1.0  0.20324  0.60177  0.23823  1.0000
  C   C354      1.0  0.20141  0.58901  0.21047  1.0000
  C   C355      1.0  0.21987  0.60941  0.22857  1.0000
  C   C356      1.0  0.21810  0.59630  0.20045  1.0000
  C   C357      1.0  0.22731  0.60664  0.20956  1.0000
  C   C358      1.0  0.17657  0.58411  0.23907  1.0000
  H   H349      1.0  0.19753  0.60405  0.25300  1.0000
  H   H350      1.0  0.19404  0.58142  0.20311  1.0000
  H   H351      1.0  0.22692  0.61748  0.23574  1.0000
  H   H352      1.0  0.22362  0.59428  0.18556  1.0000
  H   H353      1.0  0.24014  0.61256  0.20187  1.0000
  H   H354      1.0  0.17843  0.56834  0.23890  1.0000
  H   H355      1.0  0.40536  0.65620  0.26663  1.0000
  H   H356      1.0  0.16409  0.59155  0.23174  1.0000
  C   C359      1.0  0.26082  0.65955  0.26701  1.0000
  C   C360      1.0  0.41995  0.67962  0.23693  1.0000
  H   H357      1.0  0.35277  0.53375  0.05262  1.0000
  C   C361      1.0  0.35419  0.52506  0.04096  1.0000
  H   H358      1.0  0.43993  0.69010  0.18955  1.0000
  C   C362      1.0  0.20291  0.69206  0.22393  1.0000
  H   H359      1.0  0.28993  0.66239  0.25274  1.0000
  C   C363      1.0  0.32833  0.53312  0.99859  1.0000
  H   H360      1.0  0.21371  0.67159  0.10470  1.0000
  H   H361      1.0  0.29621  0.67987  0.27681  1.0000
  C   C364      1.0  0.20098  0.66760  0.11469  1.0000
  H   H362      1.0  0.28792  0.68797  0.30848  1.0000
  C   C365      1.0  0.16866  0.65700  0.14019  1.0000
  H   H363      1.0  0.43873  0.63516  0.22676  1.0000
  H   H364      1.0  0.22698  0.70190  0.17822  1.0000
  H   H365      1.0  0.08227  0.60775  0.28549  1.0000
  H   H366      1.0  0.37160  0.70569  0.22952  1.0000
  C   C366      1.0  0.33943  0.52434  0.01303  1.0000
  C   C367      1.0  0.37787  0.71295  0.25523  1.0000
  C   C368      1.0  0.44073  0.66154  0.20652  1.0000
  C   C369      1.0  0.25693  0.71861  0.15249  1.0000
  H   H367      1.0  0.22279  0.67447  0.20488  1.0000
  C   C370      1.0  0.06634  0.62896  0.30279  1.0000
  H   H368      1.0  0.43032  0.64472  0.26680  1.0000
  H   H369      1.0  0.32788  0.64594  0.30072  1.0000
  H   H370      1.0  0.20055  0.68011  0.23567  1.0000
  C   C371      1.0  0.19283  0.65188  0.30786  1.0000
  H   H371      1.0  0.17289  0.58625  0.25446  1.0000
  H   H372      1.0  0.33555  0.56180  0.03638  1.0000
  C   C372      1.0  0.18087  0.62129  0.29644  1.0000
  H   H373      1.0  0.17685  0.64130  0.27017  1.0000
  H   H374      1.0  0.26590  0.70500  0.30519  1.0000
  H   H375      1.0  0.16125  0.63420  0.11060  1.0000
  C   C373      1.0  0.25063  0.67332  0.29632  1.0000
  C   C374      1.0  0.24289  0.73271  0.11761  1.0000
  C   C375      1.0  0.17614  0.67309  0.14218  1.0000
  C   C376      1.0  0.43494  0.65081  0.22466  1.0000
  C   C377      1.0  0.30347  0.63355  0.29811  1.0000
  S   S128      1.0  0.13257  0.64721  0.28067  1.0000
  Fe  Fe65      1.0  0.14967  0.62013  0.27122  1.0000
  C   C378      1.0  0.19326  0.65148  0.11324  1.0000
  H   H376      1.0  0.18722  0.66812  0.28020  1.0000
  N   N32       1.0  0.08217  0.70829  0.27962  1.0000
  H   H377      1.0  0.44879  0.65423  0.19472  1.0000
  H   H378      1.0  0.08750  0.68466  0.30211  1.0000
  C   C379      1.0  0.41829  0.64830  0.25826  1.0000
  H   H379      1.0  0.23271  0.65864  0.28491  1.0000
  N   N33       1.0  0.20775  0.72271  0.19357  1.0000
  H   H380      1.0  0.16946  0.68128  0.15372  1.0000
  C   C380      1.0  0.42544  0.69082  0.21897  1.0000
  C   C381      1.0  0.43576  0.68165  0.20364  1.0000
  C   C382      1.0  0.28212  0.67559  0.27846  1.0000
  C   C383      1.0  0.18735  0.65429  0.28971  1.0000
  C   C384      1.0  0.37707  0.71589  0.23544  1.0000
  C   C385      1.0  0.33346  0.55353  0.02594  1.0000
  C   C386      1.0  0.21745  0.70450  0.19156  1.0000
  C   C387      1.0  0.14439  0.72497  0.25073  1.0000
  H   H381      1.0  0.09147  0.68407  0.26492  1.0000
  H   H382      1.0  0.27704  0.62255  0.29968  1.0000
  H   H383      1.0  0.36964  0.52303  0.03385  1.0000
  C   C388      1.0  0.12664  0.73304  0.28150  1.0000
  S   S129      1.0  0.38444  0.52726  0.99234  1.0000
  N   N34       1.0  0.34183  0.53451  0.02649  1.0000
  H   H384      1.0  0.31593  0.57793  0.01117  1.0000
  H   H385      1.0  0.23957  0.67618  0.30862  1.0000
  H   H386      1.0  0.34683  0.50955  0.01291  1.0000
  H   H387      1.0  0.06341  0.68921  0.29619  1.0000
  H   H388      1.0  0.15127  0.72972  0.23610  1.0000
  C   C389      1.0  0.08063  0.72788  0.27840  1.0000
  H   H389      1.0  0.32699  0.52509  0.98762  1.0000
  C   C390      1.0  0.09607  0.73051  0.24498  1.0000
  H   H390      1.0  0.10456  0.70348  0.23408  1.0000
  C   C391      1.0  0.38358  0.73201  0.22317  1.0000
  C   C392      1.0  0.38433  0.72668  0.26287  1.0000
  Fe  Fe66      1.0  0.48521  0.62247  0.13125  1.0000
  C   C393      1.0  0.19356  0.71075  0.22607  1.0000
  H   H391      1.0  0.38349  0.73394  0.20778  1.0000
  H   H392      1.0  0.18418  0.71331  0.23954  1.0000
  C   C394      1.0  0.28488  0.62979  0.30684  1.0000
  S   S130      1.0  0.36789  0.58401  0.98589  1.0000
  C   C395      1.0  0.32460  0.65159  0.98395  1.0000
  H   H393      1.0  0.34294  0.62379  0.98462  1.0000
  H   H394      1.0  0.07030  0.70473  0.30991  1.0000
  H   H395      1.0  0.21413  0.73408  0.16339  1.0000
  H   H396      1.0  0.23638  0.57820  0.37431  1.0000
  Fe  Fe67      1.0  0.01326  0.58187  0.40747  1.0000
  S   S131      1.0  0.00875  0.60646  0.38267  1.0000
  S   S132      1.0  0.03736  0.57889  0.42585  1.0000
  Fe  Fe68      1.0  0.01345  0.58298  0.36458  1.0000
  S   S133      1.0  0.03467  0.57981  0.33695  1.0000
  S   S134      1.0  0.01892  0.55850  0.38891  1.0000
  C   C396      1.0  0.09448  0.58795  0.60710  1.0000
  Fe  Fe69      1.0  0.10936  0.59115  0.52833  1.0000
  S   S135      1.0  0.07924  0.60631  0.53726  1.0000
  S   S136      1.0  0.11972  0.55961  0.53928  1.0000
  Fe  Fe70      1.0  0.12151  0.62715  0.50222  1.0000
  S   S137      1.0  0.09212  0.64480  0.50947  1.0000
  S   S138      1.0  0.14386  0.64399  0.48310  1.0000
  Fe  Fe71      1.0  0.09404  0.63064  0.54029  1.0000
  S   S139      1.0  0.08392  0.64551  0.56704  1.0000
  Fe  Fe72      1.0  0.08054  0.61883  0.50553  1.0000
  S   S140      1.0  0.05491  0.62262  0.48928  1.0000
  S   S141      1.0  0.12406  0.61449  0.53323  1.0000
  S   S142      1.0  0.10992  0.60217  0.49636  1.0000
  Fe  Fe73      1.0  0.20767  0.66460  0.34421  1.0000
  S   S143      1.0  0.22495  0.63701  0.35691  1.0000
  N   N35       1.0  0.12344  0.66272  0.44027  1.0000
  Fe  Fe74      1.0  0.20827  0.68507  0.37712  1.0000
  S   S144      1.0  0.22598  0.65952  0.39281  1.0000
  H   H397      1.0  0.29693  0.70249  0.60058  1.0000
  Fe  Fe75      1.0  0.24325  0.65638  0.36331  1.0000
  S   S145      1.0  0.27589  0.65212  0.35647  1.0000
  Fe  Fe76      1.0  0.20594  0.64261  0.38504  1.0000
  S   S146      1.0  0.19245  0.61862  0.40544  1.0000
  S   S147      1.0  0.22729  0.68358  0.34854  1.0000
  S   S148      1.0  0.18691  0.66853  0.37152  1.0000
  S   S149      1.0  0.15794  0.69801  0.61421  1.0000
  S   S150      1.0  0.10318  0.69532  0.62430  1.0000
  H   H398      1.0  0.12652  0.62415  0.41828  1.0000
  C   C397      1.0  0.21754  0.72674  0.38167  1.0000
  C   C398      1.0  0.26139  0.59266  0.36604  1.0000
  H   H399      1.0  0.24874  0.62682  0.41953  1.0000
  H   H400      1.0  0.10536  0.56512  0.32360  1.0000
  H   H401      1.0  0.13256  0.58397  0.57028  1.0000
  N   N36       1.0  0.06057  0.56233  0.51095  1.0000
  H   H402      1.0  0.28481  0.60891  0.36193  1.0000
  C   C399      1.0  0.12342  0.58047  0.58412  1.0000
  S   S151      1.0  0.25873  0.70263  0.62373  1.0000
  S   S152      1.0  0.19105  0.66033  0.64322  1.0000
  C   C400      1.0  0.08556  0.56507  0.63644  1.0000
  S   S153      1.0  0.08308  0.52104  0.62283  1.0000
  H   H403      1.0  0.07131  0.53975  0.49415  1.0000
  H   H404      1.0  0.22608  0.59023  0.40550  1.0000
  C   C401      1.0  0.28636  0.64487  0.33403  1.0000
  C   C402      1.0  0.10062  0.61122  0.33168  1.0000
  H   H405      1.0  0.08701  0.70894  0.57621  1.0000
  C   C403      1.0  0.23764  0.71548  0.61506  1.0000
  H   H406      1.0  0.07933  0.62357  0.35350  1.0000
  H   H407      1.0  0.18645  0.60497  0.32410  1.0000
  C   C404      1.0  0.08453  0.57781  0.34583  1.0000
  H   H408      1.0  0.04323  0.54703  0.47668  1.0000
  C   C405      1.0  0.08901  0.72260  0.58026  1.0000
  H   H409      1.0  0.05205  0.60791  0.37062  1.0000
  C   C406      1.0  0.13844  0.64909  0.64102  1.0000
  H   H410      1.0  0.23936  0.70143  0.37903  1.0000
  Fe  Fe77      1.0  0.09755  0.49440  0.64093  1.0000
  C   C407      1.0  0.10890  0.54836  0.56203  1.0000
  C   C408      1.0  0.09135  0.55704  0.57168  1.0000
  C   C409      1.0  0.08326  0.54802  0.58997  1.0000
  C   C410      1.0  0.09284  0.53048  0.59897  1.0000
  C   C411      1.0  0.11033  0.52168  0.58930  1.0000
  C   C412      1.0  0.11822  0.53053  0.57078  1.0000
  H   H411      1.0  0.08404  0.57076  0.56519  1.0000
  H   H412      1.0  0.06970  0.55488  0.59737  1.0000
  H   H413      1.0  0.11781  0.50817  0.59614  1.0000
  H   H414      1.0  0.13179  0.52370  0.56336  1.0000
  C   C413      1.0  0.09139  0.65847  0.58256  1.0000
  C   C414      1.0  0.07694  0.66603  0.59666  1.0000
  C   C415      1.0  0.08117  0.67670  0.60936  1.0000
  C   C416      1.0  0.10004  0.68005  0.60850  1.0000
  C   C417      1.0  0.11488  0.67224  0.59464  1.0000
  C   C418      1.0  0.11054  0.66156  0.58159  1.0000
  H   H415      1.0  0.06215  0.66380  0.59768  1.0000
  H   H416      1.0  0.06955  0.68259  0.61987  1.0000
  H   H417      1.0  0.12956  0.67470  0.59375  1.0000
  H   H418      1.0  0.12190  0.65575  0.57083  1.0000
  C   C419      1.0  0.15833  0.63567  0.46248  1.0000
  C   C420      1.0  0.17095  0.64748  0.45045  1.0000
  C   C421      1.0  0.18140  0.64233  0.43293  1.0000
  C   C422      1.0  0.17972  0.62504  0.42757  1.0000
  C   C423      1.0  0.16755  0.61288  0.43986  1.0000
  C   C424      1.0  0.15673  0.61825  0.45724  1.0000
  H   H419      1.0  0.17238  0.66087  0.45453  1.0000
  H   H420      1.0  0.19077  0.65178  0.42360  1.0000
  H   H421      1.0  0.16627  0.59943  0.43580  1.0000
  H   H422      1.0  0.14709  0.60903  0.46647  1.0000
  C   C425      1.0  0.22577  0.70536  0.60880  1.0000
  C   C426      1.0  0.32113  0.71676  0.58616  1.0000
  H   H423      1.0  0.14257  0.65233  0.41616  1.0000
  H   H424      1.0  0.12577  0.66027  0.64493  1.0000
  C   C427      1.0  0.24272  0.61360  0.41944  1.0000
  H   H425      1.0  0.08597  0.64182  0.46712  1.0000
  C   C428      1.0  0.04376  0.55535  0.48769  1.0000
  C   C429      1.0  0.12802  0.56289  0.59614  1.0000
  C   C430      1.0  0.08522  0.61060  0.34722  1.0000
  H   H426      1.0  0.26692  0.71954  0.37254  1.0000
  C   C431      1.0  0.30508  0.64837  0.32545  1.0000
  C   C432      1.0  0.28776  0.73019  0.58366  1.0000
  C   C433      1.0  0.10808  0.59472  0.32326  1.0000
  H   H427      1.0  0.19688  0.63210  0.33429  1.0000
  C   C434      1.0  0.20852  0.71509  0.60246  1.0000
  H   H428      1.0  0.01687  0.57427  0.48354  1.0000
  H   H429      1.0  0.11882  0.54406  0.62233  1.0000
  H   H430      1.0  0.27249  0.72902  0.58792  1.0000
  C   C435      1.0  0.04126  0.61767  0.32873  1.0000
  H   H431      1.0  0.10291  0.66945  0.46503  1.0000
  C   C436      1.0  0.04246  0.59229  0.44238  1.0000
  C   C437      1.0  0.06023  0.58680  0.44943  1.0000
  C   C438      1.0  0.06455  0.59620  0.46337  1.0000
  C   C439      1.0  0.05110  0.61127  0.47048  1.0000
  C   C440      1.0  0.03349  0.61698  0.46318  1.0000
  C   C441      1.0  0.02918  0.60760  0.44924  1.0000
  H   H432      1.0  0.07061  0.57496  0.44429  1.0000
  H   H433      1.0  0.07808  0.59149  0.46889  1.0000
  H   H434      1.0  0.02294  0.62859  0.46856  1.0000
  H   H435      1.0  0.01546  0.61203  0.44403  1.0000
  C   C442      1.0  0.27622  0.63569  0.32460  1.0000
  C   C443      1.0  0.04597  0.59923  0.32356  1.0000
  H   H436      1.0  0.08119  0.59770  0.61104  1.0000
  C   C444      1.0  0.11560  0.55815  0.61352  1.0000
  S   S154      1.0  0.19791  0.71418  0.38578  1.0000
  H   H437      1.0  0.24740  0.60216  0.43134  1.0000
  H   H438      1.0  0.06737  0.58920  0.38439  1.0000
  H   H439      1.0  0.02982  0.62048  0.34072  1.0000
  H   H440      1.0  0.09781  0.61885  0.44386  1.0000
  H   H441      1.0  0.27357  0.62139  0.39271  1.0000
  H   H442      1.0  0.11877  0.70355  0.55860  1.0000
  N   N37       1.0  0.24907  0.60665  0.40086  1.0000
  H   H443      1.0  0.08214  0.72233  0.59569  1.0000
  C   C445      1.0  0.02890  0.57064  0.49157  1.0000
  C   C446      1.0  0.23895  0.59442  0.39594  1.0000
  H   H444      1.0  0.07406  0.56295  0.53502  1.0000
  H   H445      1.0  0.13637  0.68004  0.45340  1.0000
  H   H446      1.0  0.14672  0.67892  0.42866  1.0000
  C   C447      1.0  0.03009  0.58181  0.50513  1.0000
  Fe  Fe78      1.0  0.16849  0.68688  0.64241  1.0000
  C   C448      1.0  0.23659  0.71695  0.37838  1.0000
  H   H447      1.0  0.13494  0.64169  0.63018  1.0000
  H   H448      1.0  0.07795  0.56486  0.35093  1.0000
  C   C449      1.0  0.19284  0.63399  0.32016  1.0000
  C   C450      1.0  0.12998  0.65027  0.42722  1.0000
  H   H449      1.0  0.19908  0.70699  0.59836  1.0000
  Fe  Fe79      1.0  0.27329  0.71952  0.63829  1.0000
  C   C451      1.0  0.12095  0.63425  0.42834  1.0000
  C   C452      1.0  0.10498  0.63121  0.44273  1.0000
  C   C453      1.0  0.09833  0.64408  0.45584  1.0000
  H   H450      1.0  0.12308  0.69308  0.43429  1.0000
  H   H451      1.0  0.04737  0.58686  0.52448  1.0000
  N   N38       1.0  0.07731  0.59407  0.35401  1.0000
  C   C454      1.0  0.10784  0.65980  0.45445  1.0000
  C   C455      1.0  0.27193  0.60466  0.37143  1.0000
  H   H452      1.0  0.22960  0.68985  0.60937  1.0000
  S   S155      1.0  0.30441  0.70953  0.64227  1.0000
  H   H453      1.0  0.18561  0.70970  0.33573  1.0000
  Fe  Fe80      1.0  0.12909  0.70417  0.63262  1.0000
  C   C456      1.0  0.10660  0.59315  0.58965  1.0000
  C   C457      1.0  0.04621  0.57756  0.51460  1.0000
  C   C458      1.0  0.09998  0.57789  0.33034  1.0000
  H   H454      1.0  0.33190  0.70552  0.59226  1.0000
  N   N39       1.0  0.09908  0.57064  0.61879  1.0000
  H   H455      1.0  0.22665  0.61754  0.42234  1.0000
  C   C459      1.0  0.24480  0.58744  0.37837  1.0000
  C   C460      1.0  0.13284  0.67956  0.43902  1.0000
  C   C461      1.0  0.26548  0.61166  0.38894  1.0000
  H   H456      1.0  0.14068  0.55263  0.59162  1.0000
  H   H457      1.0  0.26603  0.58755  0.35226  1.0000
  H   H458      1.0  0.08375  0.54279  0.52289  1.0000
  H   H459      1.0  0.05198  0.58314  0.37000  1.0000
  C   C462      1.0  0.05963  0.55141  0.49752  1.0000
  H   H460      1.0  0.26181  0.63292  0.33104  1.0000
  H   H461      1.0  0.31302  0.65543  0.33270  1.0000
  H   H462      1.0  0.01906  0.59429  0.50761  1.0000
  C   C463      1.0  0.06149  0.59357  0.37059  1.0000
  H   H463      1.0  0.10645  0.62453  0.32588  1.0000
  H   H464      1.0  0.10274  0.60675  0.58027  1.0000
  H   H465      1.0  0.08911  0.56649  0.51159  1.0000
  C   C464      1.0  0.07767  0.55847  0.52053  1.0000
  H   H466      1.0  0.15859  0.72175  0.31675  1.0000
  H   H467      1.0  0.17220  0.62615  0.64448  1.0000
  C   C465      1.0  0.12307  0.71372  0.56576  1.0000
  H   H468      1.0  0.04767  0.64678  0.32230  1.0000
  H   H469      1.0  0.15085  0.65682  0.63430  1.0000
  C   C466      1.0  0.30152  0.71513  0.59094  1.0000
  Fe  Fe81      1.0  0.16193  0.72691  0.61889  1.0000
  H   H470      1.0  0.15336  0.70717  0.55344  1.0000
  S   S156      1.0  0.17536  0.71511  0.64528  1.0000
  C   C467      1.0  0.25220  0.72719  0.37471  1.0000
  C   C468      1.0  0.18085  0.72516  0.33184  1.0000
  C   C469      1.0  0.14265  0.71573  0.56273  1.0000
  H   H471      1.0  0.07264  0.56114  0.63253  1.0000
  C   C470      1.0  0.05137  0.63253  0.31828  1.0000
  H   H472      1.0  0.09219  0.55220  0.64594  1.0000
  C   C471      1.0  0.14831  0.72881  0.57182  1.0000
  H   H473      1.0  0.16346  0.73050  0.56973  1.0000
  N   N40       1.0  0.10959  0.72420  0.57780  1.0000
  H   H474      1.0  0.08089  0.57709  0.64495  1.0000
  H   H475      1.0  0.26565  0.68338  0.32328  1.0000
  H   H476      1.0  0.20137  0.73311  0.34596  1.0000
  C   C472      1.0  0.16568  0.73189  0.32125  1.0000
  S   S157      1.0  0.19951  0.67154  0.31472  1.0000
  C   C473      1.0  0.32679  0.73316  0.57387  1.0000
  C   C474      1.0  0.18696  0.61862  0.31439  1.0000
  H   H477      1.0  0.35124  0.70305  0.78898  1.0000
  H   H478      1.0  0.16603  0.66070  0.68059  1.0000
  H   H479      1.0  0.25244  0.70894  0.83799  1.0000
  C   C475      1.0  0.27926  0.51066  0.84980  1.0000
  H   H480      1.0  0.31686  0.69354  0.93336  1.0000
  H   H481      1.0  0.11506  0.64087  0.67478  1.0000
  S   S158      1.0  0.26225  0.72396  0.66902  1.0000
  Fe  Fe82      1.0  0.28255  0.61204  0.80988  1.0000
  S   S159      1.0  0.30700  0.61323  0.78477  1.0000
  S   S160      1.0  0.27447  0.63518  0.82853  1.0000
  Fe  Fe83      1.0  0.27385  0.57418  0.80346  1.0000
  S   S161      1.0  0.29732  0.57251  0.77765  1.0000
  S   S162      1.0  0.25929  0.54819  0.81574  1.0000
  Fe  Fe84      1.0  0.31503  0.58148  0.79598  1.0000
  S   S163      1.0  0.34547  0.56677  0.79888  1.0000
  Fe  Fe85      1.0  0.28667  0.60437  0.76912  1.0000
  S   S164      1.0  0.28094  0.61766  0.73877  1.0000
  S   S165      1.0  0.29232  0.58120  0.82231  1.0000
  S   S166      1.0  0.26148  0.60516  0.79365  1.0000
  Fe  Fe86      1.0  0.17473  0.60264  0.74383  1.0000
  S   S167      1.0  0.14381  0.61509  0.74140  1.0000
  S   S168      1.0  0.20146  0.61225  0.72532  1.0000
  Fe  Fe87      1.0  0.16383  0.57230  0.77777  1.0000
  S   S169      1.0  0.13182  0.58193  0.77799  1.0000
  S   S170      1.0  0.17527  0.54824  0.80004  1.0000
  Fe  Fe88      1.0  0.13946  0.58382  0.74548  1.0000
  S   S171      1.0  0.12418  0.57572  0.72343  1.0000
  Fe  Fe89      1.0  0.13939  0.61191  0.77403  1.0000
  S   S172      1.0  0.12376  0.63525  0.79188  1.0000
  S   S173      1.0  0.17094  0.57185  0.74590  1.0000
  S   S174      1.0  0.17069  0.60187  0.77572  1.0000
  Fe  Fe90      1.0  0.15169  0.68318  0.87192  1.0000
  S   S175      1.0  0.16082  0.70531  0.84678  1.0000
  S   S176      1.0  0.15254  0.65331  0.86453  1.0000
  Fe  Fe91      1.0  0.15112  0.71040  0.90143  1.0000
  C   C476      1.0  0.21226  0.68638  0.67429  1.0000
  S   S177      1.0  0.30420  0.69998  0.69992  1.0000
  H   H482      1.0  0.37441  0.53475  0.79082  1.0000
  Fe  Fe92      1.0  0.18142  0.70996  0.86467  1.0000
  S   S178      1.0  0.21139  0.71075  0.84770  1.0000
  C   C477      1.0  0.15217  0.60732  0.68966  1.0000
  S   S179      1.0  0.17352  0.68674  0.88948  1.0000
  H   H483      1.0  0.36155  0.67990  0.80176  1.0000
  S   S180      1.0  0.31718  0.70886  0.85128  1.0000
  H   H484      1.0  0.11750  0.61975  0.86436  1.0000
  Fe  Fe93      1.0  0.34554  0.70026  0.89441  1.0000
  S   S181      1.0  0.32779  0.67905  0.89092  1.0000
  S   S182      1.0  0.35765  0.69592  0.92209  1.0000
  Fe  Fe94      1.0  0.34073  0.68453  0.85965  1.0000
  S   S183      1.0  0.34972  0.65953  0.84351  1.0000
  Fe  Fe95      1.0  0.30581  0.70495  0.88321  1.0000
  C   C478      1.0  0.37621  0.50205  0.97138  1.0000
  S   S184      1.0  0.36093  0.70347  0.86357  1.0000
  S   S185      1.0  0.12826  0.70440  0.88641  1.0000
  H   H485      1.0  0.26916  0.57960  0.74932  1.0000
  S   S186      1.0  0.40243  0.61354  0.95042  1.0000
  H   H486      1.0  0.27172  0.54690  0.76940  1.0000
  C   C479      1.0  0.36727  0.67198  0.93081  1.0000
  C   C480      1.0  0.37081  0.66700  0.94993  1.0000
  C   C481      1.0  0.38038  0.64846  0.95656  1.0000
  C   C482      1.0  0.38683  0.63507  0.94389  1.0000
  C   C483      1.0  0.38266  0.63983  0.92499  1.0000
  C   C484      1.0  0.37263  0.65818  0.91853  1.0000
  H   H487      1.0  0.36657  0.67766  0.95948  1.0000
  S   S187      1.0  0.27560  0.70363  0.89937  1.0000
  C   C485      1.0  0.30842  0.49061  0.83695  1.0000
  H   H488      1.0  0.36997  0.66196  0.90374  1.0000
  C   C486      1.0  0.22904  0.70893  0.86217  1.0000
  C   C487      1.0  0.22396  0.70773  0.88224  1.0000
  Fe  Fe96      1.0  0.14542  0.72100  0.66197  1.0000
  C   C488      1.0  0.42798  0.64922  0.91573  1.0000
  C   C489      1.0  0.26291  0.70630  0.86488  1.0000
  C   C490      1.0  0.24851  0.70814  0.85350  1.0000
  S   S188      1.0  0.14281  0.71570  0.93281  1.0000
  H   H489      1.0  0.17221  0.57206  0.85539  1.0000
  H   H490      1.0  0.27786  0.70560  0.85814  1.0000
  C   C491      1.0  0.29650  0.50871  0.83663  1.0000
  C   C492      1.0  0.13365  0.64187  0.81025  1.0000
  C   C493      1.0  0.12339  0.65719  0.81973  1.0000
  C   C494      1.0  0.12974  0.66168  0.83559  1.0000
  C   C495      1.0  0.14631  0.65069  0.84237  1.0000
  C   C496      1.0  0.15692  0.63575  0.83255  1.0000
  C   C497      1.0  0.15073  0.63146  0.81651  1.0000
  H   H491      1.0  0.11017  0.66536  0.81506  1.0000
  H   H492      1.0  0.12130  0.67311  0.84310  1.0000
  H   H493      1.0  0.16970  0.62709  0.83768  1.0000
  H   H494      1.0  0.15877  0.61960  0.80952  1.0000
  C   C498      1.0  0.29538  0.63989  0.83502  1.0000
  C   C499      1.0  0.29383  0.65414  0.84639  1.0000
  C   C500      1.0  0.31058  0.65951  0.84981  1.0000
  C   C501      1.0  0.32890  0.65092  0.84158  1.0000
  C   C502      1.0  0.33049  0.63609  0.83092  1.0000
  C   C503      1.0  0.31373  0.63041  0.82786  1.0000
  H   H495      1.0  0.27974  0.66129  0.85232  1.0000
  H   H496      1.0  0.30920  0.67049  0.85862  1.0000
  H   H497      1.0  0.34464  0.62927  0.82470  1.0000
  H   H498      1.0  0.31507  0.61897  0.81963  1.0000
  C   C504      1.0  0.23525  0.54980  0.81261  1.0000
  C   C505      1.0  0.22656  0.56506  0.79999  1.0000
  C   C506      1.0  0.20813  0.56472  0.79601  1.0000
  C   C507      1.0  0.19816  0.54939  0.80499  1.0000
  C   C508      1.0  0.20665  0.53449  0.81810  1.0000
  C   C509      1.0  0.22520  0.53461  0.82179  1.0000
  H   H499      1.0  0.23432  0.57676  0.79274  1.0000
  H   H500      1.0  0.20199  0.57606  0.78558  1.0000
  H   H501      1.0  0.19903  0.52259  0.82510  1.0000
  H   H502      1.0  0.23190  0.52274  0.83153  1.0000
  C   C510      1.0  0.35653  0.51084  0.94561  1.0000
  H   H503      1.0  0.43903  0.62959  0.94726  1.0000
  H   H504      1.0  0.41540  0.68117  0.94658  1.0000
  H   H505      1.0  0.25302  0.51141  0.76694  1.0000
  C   C511      1.0  0.24151  0.57840  0.74223  1.0000
  C   C512      1.0  0.35733  0.50462  0.83112  1.0000
  C   C513      1.0  0.34878  0.54264  0.81104  1.0000
  C   C514      1.0  0.33678  0.53632  0.82832  1.0000
  C   C515      1.0  0.34130  0.51740  0.83859  1.0000
  H   H506      1.0  0.32444  0.54617  0.83406  1.0000
  H   H507      1.0  0.33234  0.51267  0.85212  1.0000
  C   C516      1.0  0.11765  0.51579  0.71197  1.0000
  C   C517      1.0  0.11316  0.53268  0.69882  1.0000
  C   C518      1.0  0.11540  0.55081  0.70249  1.0000
  C   C519      1.0  0.12245  0.55231  0.71916  1.0000
  C   C520      1.0  0.12738  0.53536  0.73206  1.0000
  C   C521      1.0  0.12484  0.51728  0.72855  1.0000
  H   H508      1.0  0.10751  0.53185  0.68608  1.0000
  H   H509      1.0  0.11145  0.56378  0.69244  1.0000
  H   H510      1.0  0.13270  0.53621  0.74499  1.0000
  H   H511      1.0  0.12828  0.50438  0.73890  1.0000
  C   C522      1.0  0.30152  0.66872  0.72905  1.0000
  C   C523      1.0  0.29643  0.65056  0.73786  1.0000
  C   C524      1.0  0.28696  0.64081  0.72832  1.0000
  C   C525      1.0  0.28235  0.64954  0.71000  1.0000
  H   H512      1.0  0.30906  0.67604  0.73642  1.0000
  H   H513      1.0  0.30004  0.64400  0.75191  1.0000
  H   H514      1.0  0.27518  0.64202  0.70247  1.0000
  C   C526      1.0  0.19339  0.64728  0.66626  1.0000
  C   C527      1.0  0.20995  0.63345  0.66847  1.0000
  C   C528      1.0  0.21225  0.62268  0.68669  1.0000
  C   C529      1.0  0.19769  0.62526  0.70263  1.0000
  C   C530      1.0  0.18088  0.63879  0.70041  1.0000
  C   C531      1.0  0.17886  0.65006  0.68223  1.0000
  H   H515      1.0  0.43453  0.63426  0.91515  1.0000
  H   H516      1.0  0.22529  0.61227  0.68843  1.0000
  H   H517      1.0  0.16974  0.64101  0.71280  1.0000
  H   H518      1.0  0.32822  0.65194  0.92931  1.0000
  C   C532      1.0  0.29914  0.67881  0.80054  1.0000
  C   C533      1.0  0.25786  0.70542  0.88492  1.0000
  H   H519      1.0  0.42207  0.64449  0.96214  1.0000
  C   C534      1.0  0.33743  0.66883  0.78382  1.0000
  H   H520      1.0  0.23186  0.51911  0.78401  1.0000
  H   H521      1.0  0.11012  0.59536  0.81645  1.0000
  C   C535      1.0  0.11137  0.60843  0.84078  1.0000
  H   H522      1.0  0.32676  0.65005  0.76947  1.0000
  C   C536      1.0  0.32684  0.65179  0.94473  1.0000
  H   H523      1.0  0.29405  0.69204  0.94936  1.0000
  Fe  Fe97      1.0  0.29363  0.71626  0.67234  1.0000
  H   H524      1.0  0.09786  0.61834  0.83960  1.0000
  H   H525      1.0  0.14187  0.57404  0.81807  1.0000
  H   H526      1.0  0.28380  0.67433  0.68707  1.0000
  Fe  Fe98      1.0  0.13960  0.72672  0.86239  1.0000
  C   C537      1.0  0.12238  0.60921  0.85466  1.0000
  H   H527      1.0  0.12285  0.61627  0.70310  1.0000
  C   C538      1.0  0.11830  0.59554  0.82771  1.0000
  Fe  Fe99      1.0  0.33622  0.72758  0.85753  1.0000
  C   C539      1.0  0.41135  0.67943  0.90048  1.0000
  N   N41       1.0  0.22083  0.66072  0.84285  1.0000
  C   C540      1.0  0.23489  0.66336  0.85218  1.0000
  C   C541      1.0  0.20466  0.65365  0.85313  1.0000
  C   C542      1.0  0.23306  0.65879  0.87233  1.0000
  C   C543      1.0  0.20251  0.64859  0.87328  1.0000
  C   C544      1.0  0.21675  0.65133  0.88293  1.0000
  C   C545      1.0  0.22281  0.66652  0.82181  1.0000
  H   H528      1.0  0.24743  0.66943  0.84402  1.0000
  H   H529      1.0  0.19319  0.65211  0.84584  1.0000
  H   H530      1.0  0.24406  0.66143  0.87963  1.0000
  H   H531      1.0  0.18952  0.64322  0.88136  1.0000
  H   H532      1.0  0.21495  0.64807  0.89859  1.0000
  H   H533      1.0  0.21255  0.66051  0.81566  1.0000
  H   H534      1.0  0.21989  0.68258  0.81824  1.0000
  H   H535      1.0  0.23773  0.66110  0.81484  1.0000
  N   N42       1.0  0.14709  0.58462  0.84215  1.0000
  C   C546      1.0  0.34861  0.54103  0.88519  1.0000
  S   S189      1.0  0.34392  0.50497  0.92877  1.0000
  H   H536      1.0  0.17667  0.57950  0.82944  1.0000
  C   C547      1.0  0.42064  0.66047  0.89955  1.0000
  H   H537      1.0  0.15569  0.59662  0.70209  1.0000
  H   H538      1.0  0.20893  0.70832  0.88898  1.0000
  C   C548      1.0  0.27391  0.49453  0.86277  1.0000
  H   H539      1.0  0.30031  0.67895  0.92962  1.0000
  H   H540      1.0  0.40492  0.68811  0.88834  1.0000
  H   H541      1.0  0.34625  0.54143  0.93871  1.0000
  C   C549      1.0  0.30639  0.68369  0.94078  1.0000
  C   C550      1.0  0.33533  0.63586  0.97573  1.0000
  H   H542      1.0  0.18053  0.60172  0.67265  1.0000
  H   H543      1.0  0.18464  0.70239  0.68546  1.0000
  C   C551      1.0  0.31516  0.66726  0.97224  1.0000
  C   C552      1.0  0.22873  0.54884  0.75585  1.0000
  C   C553      1.0  0.36498  0.52995  0.80402  1.0000
  H   H544      1.0  0.25533  0.52115  0.78779  1.0000
  C   C554      1.0  0.25916  0.55248  0.76231  1.0000
  C   C555      1.0  0.35471  0.53035  0.94772  1.0000
  C   C556      1.0  0.34512  0.55852  0.87257  1.0000
  C   C557      1.0  0.25778  0.57097  0.75108  1.0000
  C   C558      1.0  0.24633  0.52236  0.77638  1.0000
  N   N43       1.0  0.24460  0.54179  0.76477  1.0000
  C   C559      1.0  0.34810  0.69067  0.80057  1.0000
  H   H545      1.0  0.29248  0.65873  0.78487  1.0000
  H   H546      1.0  0.21710  0.54046  0.75787  1.0000
  H   H547      1.0  0.24016  0.59285  0.73370  1.0000
  H   H548      1.0  0.21066  0.65633  0.72562  1.0000
  C   C560      1.0  0.13374  0.61845  0.69025  1.0000
  C   C561      1.0  0.22673  0.66116  0.69663  1.0000
  S   S190      1.0  0.13941  0.69118  0.66107  1.0000
  C   C562      1.0  0.22695  0.56723  0.74450  1.0000
  H   H549      1.0  0.18349  0.68302  0.71841  1.0000
  C   C563      1.0  0.13633  0.58370  0.82858  1.0000
  H   H550      1.0  0.34389  0.69588  0.81471  1.0000
  C   C564      1.0  0.37373  0.52907  0.86049  1.0000
  C   C565      1.0  0.43376  0.64489  0.94930  1.0000
  H   H551      1.0  0.21425  0.57287  0.73766  1.0000
  H   H552      1.0  0.38134  0.50121  0.80787  1.0000
  C   C566      1.0  0.12944  0.63228  0.67418  1.0000
  C   C567      1.0  0.36751  0.49672  0.95746  1.0000
  S   S191      1.0  0.12438  0.49463  0.65282  1.0000
  H   H553      1.0  0.28428  0.68240  0.80757  1.0000
  C   C568      1.0  0.23838  0.70599  0.89360  1.0000
  C   C569      1.0  0.19648  0.69083  0.68870  1.0000
  C   C570      1.0  0.19588  0.68001  0.70727  1.0000
  C   C571      1.0  0.36897  0.51098  0.81376  1.0000
  S   S192      1.0  0.08006  0.48525  0.67019  1.0000
  H   H554      1.0  0.33704  0.58065  0.83704  1.0000
  C   C572      1.0  0.36372  0.53571  0.96138  1.0000
  H   H555      1.0  0.33375  0.56988  0.87735  1.0000
  H   H556      1.0  0.36569  0.51254  0.88872  1.0000
  S   S193      1.0  0.11405  0.49262  0.70871  1.0000
  H   H557      1.0  0.14915  0.59849  0.86542  1.0000
  C   C573      1.0  0.21113  0.66512  0.71133  1.0000
  H   H558      1.0  0.34533  0.62399  0.94938  1.0000
  H   H559      1.0  0.32196  0.48922  0.82685  1.0000
  C   C574      1.0  0.29701  0.67740  0.71070  1.0000
  H   H560      1.0  0.33497  0.72290  0.69603  1.0000
  C   C575      1.0  0.30377  0.66545  0.78784  1.0000
  C   C576      1.0  0.28725  0.66782  0.70125  1.0000
  C   C577      1.0  0.31391  0.68694  0.80465  1.0000
  H   H561      1.0  0.35120  0.59209  0.84861  1.0000
  C   C578      1.0  0.36300  0.52623  0.87908  1.0000
  N   N44       1.0  0.22694  0.67150  0.67831  1.0000
  C   C579      1.0  0.32301  0.66047  0.77933  1.0000
  C   C580      1.0  0.35141  0.57960  0.84140  1.0000
  H   H562      1.0  0.37800  0.54867  0.83365  1.0000
  H   H563      1.0  0.36228  0.58078  0.82790  1.0000
  H   H564      1.0  0.38771  0.62950  0.91515  1.0000
  H   H565      1.0  0.23842  0.64943  0.69990  1.0000
  H   H566      1.0  0.27001  0.52465  0.84987  1.0000
  N   N45       1.0  0.33279  0.68174  0.79648  1.0000
  C   C581      1.0  0.36994  0.54679  0.84827  1.0000
  N   N46       1.0  0.35581  0.56126  0.85442  1.0000
  C   C582      1.0  0.41722  0.67536  0.93329  1.0000
  C   C583      1.0  0.16604  0.61004  0.67308  1.0000
  H   H567      1.0  0.44593  0.65085  0.95231  1.0000
  S   S194      1.0  0.14846  0.73160  0.68932  1.0000
  C   C584      1.0  0.14036  0.59715  0.85512  1.0000
  H   H568      1.0  0.38359  0.64487  0.97116  1.0000
  H   H569      1.0  0.25017  0.65170  0.66563  1.0000
  H   H570      1.0  0.31021  0.69709  0.81476  1.0000
  C   C585      1.0  0.16650  0.57301  0.84179  1.0000
  H   H571      1.0  0.30061  0.52118  0.82632  1.0000
  H   H572      1.0  0.34014  0.53883  0.89961  1.0000
  H   H573      1.0  0.36212  0.55076  0.96279  1.0000
  S   S195      1.0  0.32261  0.72604  0.88886  1.0000
  H   H574      1.0  0.35238  0.66478  0.77726  1.0000
  H   H575      1.0  0.16621  0.55798  0.83988  1.0000
  H   H576      1.0  0.38456  0.51741  0.85541  1.0000
  N   N47       1.0  0.31611  0.66706  0.95295  1.0000
  C   C586      1.0  0.37439  0.52155  0.97348  1.0000
  H   H577      1.0  0.25437  0.67644  0.66230  1.0000
  H   H578      1.0  0.23442  0.70529  0.90911  1.0000
  H   H579      1.0  0.40177  0.70146  0.91850  1.0000
  C   C587      1.0  0.33653  0.63593  0.95599  1.0000
  H   H580      1.0  0.22115  0.63125  0.65611  1.0000
  N   N48       1.0  0.42617  0.65673  0.93233  1.0000
  H   H581      1.0  0.42160  0.65431  0.88662  1.0000
  C   C588      1.0  0.40963  0.68697  0.91743  1.0000
  H   H582      1.0  0.21259  0.69466  0.65977  1.0000
  H   H583      1.0  0.26045  0.49583  0.87296  1.0000
  C   C589      1.0  0.24335  0.66714  0.66303  1.0000
  N   N49       1.0  0.14320  0.63497  0.65801  1.0000
  H   H584      1.0  0.30710  0.67958  0.97868  1.0000
  H   H585      1.0  0.33353  0.73265  0.81340  1.0000
  H   H586      1.0  0.23851  0.66988  0.64868  1.0000
  C   C590      1.0  0.16124  0.62392  0.65723  1.0000
  H   H587      1.0  0.12823  0.72997  0.96881  1.0000
  H   H588      1.0  0.35225  0.72473  0.66224  1.0000
  H   H589      1.0  0.10430  0.73022  0.91831  1.0000
  S   S196      1.0  0.16109  0.73381  0.87796  1.0000
  H   H590      1.0  0.38439  0.49092  0.98062  1.0000
  Fe  Fe100     1.0  0.39472  0.59744  0.98057  1.0000
  H   H591      1.0  0.14243  0.73447  0.80383  1.0000
  Fe  Fe101     1.0  0.00200  0.81770  0.17060  1.0000
  S   S197      1.0  0.00998  0.83855  0.14338  1.0000
  S   S198      1.0  0.02009  0.80513  0.19484  1.0000
  Fe  Fe102     1.0  0.00737  0.81521  0.12754  1.0000
  S   S199      1.0  0.03256  0.80243  0.10598  1.0000
  H   H592      1.0  0.29075  0.79412  0.30029  1.0000
  Fe  Fe103     1.0  0.11848  0.77951  0.27708  1.0000
  S   S200      1.0  0.10678  0.80984  0.28291  1.0000
  S   S201      1.0  0.11419  0.75077  0.29535  1.0000
  Fe  Fe104     1.0  0.14294  0.79239  0.23933  1.0000
  S   S202      1.0  0.13360  0.82373  0.24169  1.0000
  S   S203      1.0  0.16552  0.77873  0.21725  1.0000
  Fe  Fe105     1.0  0.13789  0.81491  0.27296  1.0000
  Fe  Fe106     1.0  0.10349  0.81602  0.25109  1.0000
  S   S204      1.0  0.07837  0.83439  0.23671  1.0000
  S   S205      1.0  0.14929  0.78422  0.26948  1.0000
  S   S206      1.0  0.11288  0.78534  0.24647  1.0000
  Fe  Fe107     1.0  0.39162  0.79095  0.23130  1.0000
  S   S207      1.0  0.39335  0.82137  0.21612  1.0000
  S   S208      1.0  0.39823  0.76576  0.21536  1.0000
  Fe  Fe108     1.0  0.37220  0.80380  0.26918  1.0000
  S   S209      1.0  0.37146  0.83518  0.25693  1.0000
  H   H593      1.0  0.20864  0.80836  0.00971  1.0000
  Fe  Fe109     1.0  0.36241  0.82763  0.23098  1.0000
  S   S210      1.0  0.33499  0.84251  0.21866  1.0000
  Fe  Fe110     1.0  0.40232  0.82556  0.24372  1.0000
  S   S211      1.0  0.42865  0.83834  0.24620  1.0000
  S   S212      1.0  0.36055  0.79702  0.24496  1.0000
  S   S213      1.0  0.40322  0.79431  0.25725  1.0000
  H   H594      1.0  0.30177  0.83745  0.28439  1.0000
  C   C591      1.0  0.30134  0.78341  0.30730  1.0000
  S   S214      1.0  0.36105  0.79513  0.30052  1.0000
  Fe  Fe111     1.0  0.15935  0.82057  0.02114  1.0000
  S   S215      1.0  0.14049  0.84981  0.01866  1.0000
  S   S216      1.0  0.17663  0.80804  0.04614  1.0000
  Fe  Fe112     1.0  0.11705  0.83349  0.01642  1.0000
  S   S217      1.0  0.08678  0.84321  0.03292  1.0000
  C   C592      1.0  0.42369  0.85249  0.30003  1.0000
  S   S218      1.0  0.13566  0.80402  0.01981  1.0000
  Fe  Fe113     1.0  0.23807  0.82492  0.14797  1.0000
  S   S219      1.0  0.25871  0.83932  0.12433  1.0000
  S   S220      1.0  0.21122  0.84124  0.16300  1.0000
  Fe  Fe114     1.0  0.25932  0.78490  0.14387  1.0000
  S   S221      1.0  0.28140  0.79600  0.11939  1.0000
  S   S222      1.0  0.26127  0.75385  0.15833  1.0000
  Fe  Fe115     1.0  0.28201  0.81793  0.13812  1.0000
  S   S223      1.0  0.31141  0.82197  0.14381  1.0000
  Fe  Fe116     1.0  0.25574  0.81608  0.10821  1.0000
  S   S224      1.0  0.24897  0.82528  0.07731  1.0000
  S   S225      1.0  0.26123  0.80557  0.16302  1.0000
  S   S226      1.0  0.23385  0.80297  0.13141  1.0000
  H   H595      1.0  0.35280  0.76190  0.27935  1.0000
  C   C593      1.0  0.18735  0.82948  0.30484  1.0000
  H   H596      1.0  0.22281  0.74576  0.17941  1.0000
  C   C594      1.0  0.30582  0.87744  0.28793  1.0000
  S   S227      1.0  0.15986  0.82896  0.28276  1.0000
  S   S228      1.0  0.00031  0.79390  0.15478  1.0000
  H   H597      1.0  0.24689  0.76075  0.12173  1.0000
  H   H598      1.0  0.06937  0.78375  0.14691  1.0000
  C   C595      1.0  0.19669  0.81344  0.05443  1.0000
  C   C596      1.0  0.20795  0.82721  0.04385  1.0000
  C   C597      1.0  0.22410  0.83037  0.05087  1.0000
  C   C598      1.0  0.22891  0.82022  0.06876  1.0000
  C   C599      1.0  0.21751  0.80661  0.07941  1.0000
  C   C600      1.0  0.20167  0.80311  0.07218  1.0000
  H   H599      1.0  0.20435  0.83531  0.03019  1.0000
  H   H600      1.0  0.23284  0.84088  0.04245  1.0000
  H   H601      1.0  0.22105  0.79857  0.09311  1.0000
  H   H602      1.0  0.19317  0.79234  0.08047  1.0000
  H   H603      1.0  0.34743  0.73837  0.29165  1.0000
  H   H604      1.0  0.04997  0.82804  0.16579  1.0000
  H   H605      1.0  0.04385  0.79256  0.14694  1.0000
  H   H606      1.0  0.23292  0.86345  0.09175  1.0000
  H   H607      1.0  0.35549  0.76621  0.20644  1.0000
  C   C601      1.0  0.28918  0.87875  0.26125  1.0000
  C   C602      1.0  0.32830  0.81941  0.29125  1.0000
  H   H608      1.0  0.18911  0.82921  0.13613  1.0000
  C   C603      1.0  0.44441  0.79937  0.28950  1.0000
  H   H609      1.0  0.33417  0.81812  0.27633  1.0000
  C   C604      1.0  0.32849  0.83561  0.19841  1.0000
  C   C605      1.0  0.34257  0.82949  0.18328  1.0000
  C   C606      1.0  0.33703  0.82569  0.16666  1.0000
  C   C607      1.0  0.31736  0.82726  0.16516  1.0000
  C   C608      1.0  0.30324  0.83290  0.18051  1.0000
  C   C609      1.0  0.30879  0.83735  0.19688  1.0000
  H   H610      1.0  0.35777  0.82839  0.18405  1.0000
  H   H611      1.0  0.34811  0.82164  0.15480  1.0000
  H   H612      1.0  0.28806  0.83429  0.17956  1.0000
  H   H613      1.0  0.29775  0.84222  0.20839  1.0000
  C   C610      1.0  0.43364  0.84455  0.26751  1.0000
  C   C611      1.0  0.45269  0.84663  0.26842  1.0000
  C   C612      1.0  0.45731  0.85121  0.28518  1.0000
  H   H614      1.0  0.33601  0.78864  0.16206  1.0000
  H   H615      1.0  0.05496  0.79421  0.16703  1.0000
  C   C613      1.0  0.41917  0.84747  0.28348  1.0000
  H   H616      1.0  0.46396  0.84462  0.25608  1.0000
  H   H617      1.0  0.47200  0.85279  0.28559  1.0000
  C   C614      1.0  0.08746  0.73928  0.26104  1.0000
  H   H618      1.0  0.40444  0.84608  0.28298  1.0000
  N   N50       1.0  0.32331  0.87319  0.27642  1.0000
  H   H619      1.0  0.30777  0.87266  0.23471  1.0000
  H   H620      1.0  0.19009  0.77215  0.03382  1.0000
  H   H621      1.0  0.47473  0.80124  0.28372  1.0000
  N   N51       1.0  0.20367  0.78158  0.00498  1.0000
  H   H622      1.0  0.07246  0.80458  0.11411  1.0000
  H   H623      1.0  0.08674  0.75471  0.26034  1.0000
  H   H624      1.0  0.06867  0.86535  0.11332  1.0000
  C   C615      1.0  0.17924  0.76179  0.99328  1.0000
  C   C616      1.0  0.05722  0.79528  0.15102  1.0000
  C   C617      1.0  0.17720  0.79603  0.20080  1.0000
  C   C618      1.0  0.16831  0.81538  0.19752  1.0000
  C   C619      1.0  0.17858  0.82933  0.18547  1.0000
  C   C620      1.0  0.19766  0.82382  0.17667  1.0000
  C   C621      1.0  0.20626  0.80436  0.17947  1.0000
  C   C622      1.0  0.19606  0.79049  0.19155  1.0000
  H   H625      1.0  0.15351  0.81959  0.20414  1.0000
  H   H626      1.0  0.17181  0.84434  0.18312  1.0000
  H   H627      1.0  0.22103  0.79998  0.17293  1.0000
  H   H628      1.0  0.20307  0.77562  0.19428  1.0000
  C   C623      1.0  0.32408  0.87136  0.25755  1.0000
  C   C624      1.0  0.06690  0.85101  0.12120  1.0000
  C   C625      1.0  0.06907  0.81679  0.12181  1.0000
  H   H629      1.0  0.10210  0.73911  0.23168  1.0000
  C   C626      1.0  0.04727  0.81412  0.08557  1.0000
  C   C627      1.0  0.06400  0.80316  0.07655  1.0000
  C   C628      1.0  0.07645  0.81183  0.06070  1.0000
  C   C629      1.0  0.07212  0.83157  0.05341  1.0000
  C   C630      1.0  0.05539  0.84252  0.06244  1.0000
  C   C631      1.0  0.04312  0.83392  0.07851  1.0000
  H   H630      1.0  0.06737  0.78783  0.08184  1.0000
  H   H631      1.0  0.08919  0.80318  0.05389  1.0000
  H   H632      1.0  0.05183  0.85778  0.05690  1.0000
  H   H633      1.0  0.03034  0.84258  0.08525  1.0000
  C   C632      1.0  0.03659  0.81379  0.20570  1.0000
  C   C633      1.0  0.04928  0.80026  0.21648  1.0000
  C   C634      1.0  0.06237  0.80628  0.22569  1.0000
  C   C635      1.0  0.06281  0.82599  0.22448  1.0000
  C   C636      1.0  0.05017  0.83954  0.21362  1.0000
  C   C637      1.0  0.03722  0.83351  0.20420  1.0000
  H   H634      1.0  0.04890  0.78499  0.21785  1.0000
  H   H635      1.0  0.07185  0.79567  0.23405  1.0000
  H   H636      1.0  0.05024  0.85482  0.21268  1.0000
  H   H637      1.0  0.02743  0.84416  0.19620  1.0000
  H   H638      1.0  0.27586  0.88060  0.25541  1.0000
  H   H639      1.0  0.41373  0.79968  0.29898  1.0000
  C   C638      1.0  0.34936  0.75284  0.29374  1.0000
  H   H640      1.0  0.21785  0.78781  0.02630  1.0000
  C   C639      1.0  0.17851  0.76192  0.01290  1.0000
  C   C640      1.0  0.21578  0.79298  0.01098  1.0000
  C   C641      1.0  0.34119  0.86924  0.28478  1.0000
  Fe  Fe117     1.0  0.14849  0.85170  0.98618  1.0000
  S   S229      1.0  0.16931  0.82352  0.98902  1.0000
  H   H641      1.0  0.39522  0.75375  0.25664  1.0000
  H   H642      1.0  0.19733  0.75006  0.17752  1.0000
  C   C642      1.0  0.19094  0.77191  0.01854  1.0000
  C   C643      1.0  0.33862  0.80963  0.30604  1.0000
  H   H643      1.0  0.13835  0.75337  0.25773  1.0000
  C   C644      1.0  0.30999  0.83044  0.29580  1.0000
  C   C645      1.0  0.16873  0.82543  0.30510  1.0000
  N   N52       1.0  0.20497  0.85601  0.09340  1.0000
  C   C646      1.0  0.20383  0.84763  0.11245  1.0000
  C   C647      1.0  0.19184  0.85376  0.08270  1.0000
  C   C648      1.0  0.18972  0.83604  0.12108  1.0000
  C   C649      1.0  0.17759  0.84218  0.09083  1.0000
  C   C650      1.0  0.17663  0.83319  0.11012  1.0000
  C   C651      1.0  0.39011  0.74569  0.23080  1.0000
  C   C652      1.0  0.21984  0.86812  0.08459  1.0000
  H   H644      1.0  0.19270  0.86042  0.06760  1.0000
  H   H645      1.0  0.21401  0.88350  0.08570  1.0000
  H   H646      1.0  0.16771  0.83982  0.08203  1.0000
  H   H647      1.0  0.16586  0.82395  0.11653  1.0000
  H   H648      1.0  0.16812  0.75468  0.02366  1.0000
  N   N53       1.0  0.34084  0.76383  0.18377  1.0000
  H   H649      1.0  0.05496  0.86068  0.14851  1.0000
  H   H650      1.0  0.20297  0.78952  0.24071  1.0000
  C   C653      1.0  0.13672  0.73856  0.26298  1.0000
  C   C654      1.0  0.31768  0.76814  0.16227  1.0000
  C   C655      1.0  0.42730  0.80118  0.30286  1.0000
  H   H651      1.0  0.31048  0.77711  0.15074  1.0000
  H   H652      1.0  0.22497  0.86659  0.06914  1.0000
  C   C656      1.0  0.05921  0.84840  0.14090  1.0000
  C   C657      1.0  0.30705  0.87427  0.24965  1.0000
  H   H653      1.0  0.44413  0.79672  0.27511  1.0000
  C   C658      1.0  0.39012  0.74323  0.25071  1.0000
  H   H654      1.0  0.35337  0.78717  0.18826  1.0000
  C   C659      1.0  0.05649  0.82987  0.15064  1.0000
  C   C660      1.0  0.31274  0.75001  0.17056  1.0000
  H   H655      1.0  0.07757  0.83698  0.09616  1.0000
  N   N54       1.0  0.06138  0.81437  0.14106  1.0000
  N   N55       1.0  0.19003  0.83764  0.22682  1.0000
  C   C661      1.0  0.18888  0.81924  0.23648  1.0000
  C   C662      1.0  0.20621  0.84145  0.21377  1.0000
  C   C663      1.0  0.20428  0.80414  0.23342  1.0000
  C   C664      1.0  0.22198  0.82673  0.21050  1.0000
  C   C665      1.0  0.22095  0.80796  0.22037  1.0000
  C   C666      1.0  0.17324  0.85298  0.22939  1.0000
  H   H656      1.0  0.17585  0.81608  0.24637  1.0000
  H   H657      1.0  0.20677  0.85577  0.20529  1.0000
  H   H658      1.0  0.23450  0.82973  0.19967  1.0000
  H   H659      1.0  0.23280  0.79630  0.21740  1.0000
  H   H660      1.0  0.16292  0.85246  0.21976  1.0000
  H   H661      1.0  0.16558  0.85118  0.24462  1.0000
  H   H662      1.0  0.17765  0.86751  0.22607  1.0000
  C   C667      1.0  0.33642  0.74582  0.19170  1.0000
  C   C668      1.0  0.07196  0.83510  0.11158  1.0000
  H   H663      1.0  0.23038  0.79207  0.00191  1.0000
  C   C669      1.0  0.33202  0.77473  0.16891  1.0000
  H   H664      1.0  0.34382  0.73687  0.20307  1.0000
  H   H665      1.0  0.23759  0.73817  0.10405  1.0000
  N   N56       1.0  0.46185  0.80636  0.31225  1.0000
  H   H666      1.0  0.21400  0.84969  0.12104  1.0000
  H   H667      1.0  0.33999  0.87806  0.29627  1.0000
  C   C670      1.0  0.25527  0.73837  0.14501  1.0000
  H   H668      1.0  0.19618  0.83391  0.29112  1.0000
  C   C671      1.0  0.35574  0.77108  0.19063  1.0000
  H   H669      1.0  0.35380  0.87279  0.27361  1.0000
  H   H670      1.0  0.27468  0.88301  0.28996  1.0000
  C   C672      1.0  0.44279  0.85421  0.30111  1.0000
  C   C673      1.0  0.28851  0.88033  0.28053  1.0000
  H   H671      1.0  0.30165  0.74472  0.16549  1.0000
  C   C674      1.0  0.24820  0.74547  0.12758  1.0000
  C   C675      1.0  0.20428  0.78175  0.98569  1.0000
  C   C676      1.0  0.46165  0.80205  0.29445  1.0000
  H   H672      1.0  0.33785  0.86739  0.24848  1.0000
  H   H673      1.0  0.16943  0.75445  0.98863  1.0000
  H   H674      1.0  0.34412  0.85368  0.29122  1.0000
  H   H675      1.0  0.37038  0.76590  0.18291  1.0000
  Fe  Fe118     1.0  0.14417  0.80951  0.98714  1.0000
  S   S230      1.0  0.12368  0.83781  0.98363  1.0000
  H   H676      1.0  0.36220  0.75127  0.30094  1.0000
  H   H677      1.0  0.32048  0.77897  0.28077  1.0000
  N   N57       1.0  0.33190  0.76194  0.30533  1.0000
  H   H678      1.0  0.30507  0.87786  0.30317  1.0000
  C   C677      1.0  0.32227  0.73867  0.18526  1.0000
  H   H679      1.0  0.18860  0.74049  0.21242  1.0000
  H   H680      1.0  0.41231  0.85492  0.31218  1.0000
  C   C678      1.0  0.31818  0.77483  0.29638  1.0000
  H   H681      1.0  0.14756  0.75712  0.30860  1.0000
  C   C679      1.0  0.21062  0.73893  0.17773  1.0000
  H   H682      1.0  0.07474  0.73480  0.29099  1.0000
  C   C680      1.0  0.32050  0.84987  0.59774  1.0000
  Fe  Fe119     1.0  0.47427  0.85746  0.33703  1.0000
  H   H683      1.0  0.19525  0.82042  0.44811  1.0000
  S   S231      1.0  0.17994  0.74620  0.59756  1.0000
  S   S232      1.0  0.46117  0.86380  0.40700  1.0000
  S   S233      1.0  0.47722  0.87882  0.35530  1.0000
  Fe  Fe120     1.0  0.22243  0.82240  0.36547  1.0000
  S   S234      1.0  0.24597  0.80905  0.34425  1.0000
  S   S235      1.0  0.19088  0.82322  0.36237  1.0000
  Fe  Fe121     1.0  0.25194  0.82590  0.39159  1.0000
  S   S236      1.0  0.27710  0.81214  0.37193  1.0000
  S   S237      1.0  0.25507  0.83176  0.42127  1.0000
  Fe  Fe122     1.0  0.26277  0.83112  0.34796  1.0000
  N   N58       1.0  0.38443  0.83261  0.42811  1.0000
  Fe  Fe123     1.0  0.25777  0.79154  0.37014  1.0000
  S   S238      1.0  0.26837  0.75993  0.36981  1.0000
  S   S239      1.0  0.23831  0.84631  0.36750  1.0000
  S   S240      1.0  0.23344  0.80353  0.39162  1.0000
  Fe  Fe124     1.0  0.33609  0.83292  0.51808  1.0000
  S   S241      1.0  0.32118  0.86309  0.50847  1.0000
  S   S242      1.0  0.31580  0.81697  0.54172  1.0000
  Fe  Fe125     1.0  0.37263  0.83964  0.48859  1.0000
  S   S243      1.0  0.36001  0.87037  0.47808  1.0000
  S   S244      1.0  0.40102  0.82395  0.47398  1.0000
  Fe  Fe126     1.0  0.34943  0.87214  0.50990  1.0000
  S   S245      1.0  0.34592  0.89754  0.52654  1.0000
  Fe  Fe127     1.0  0.33305  0.85802  0.47800  1.0000
  S   S246      1.0  0.31971  0.86568  0.45005  1.0000
  S   S247      1.0  0.36391  0.84204  0.52042  1.0000
  S   S248      1.0  0.34613  0.82731  0.48751  1.0000
  H   H684      1.0  0.29483  0.84549  0.56455  1.0000
  H   H685      1.0  0.33889  0.80385  0.33673  1.0000
  C   C681      1.0  0.38397  0.81226  0.43665  1.0000
  H   H686      1.0  0.34195  0.73485  0.57052  1.0000
  C   C682      1.0  0.37501  0.93579  0.50699  1.0000
  H   H687      1.0  0.41326  0.86091  0.39622  1.0000
  N   N59       1.0  0.29342  0.74631  0.57175  1.0000
  H   H688      1.0  0.40122  0.93774  0.52826  1.0000
  S   S249      1.0  0.33324  0.75161  0.61315  1.0000
  C   C683      1.0  0.13445  0.73956  0.58391  1.0000
  S   S250      1.0  0.39921  0.94506  0.62730  1.0000
  C   C684      1.0  0.32910  0.75693  0.32506  1.0000
  H   H689      1.0  0.40617  0.89622  0.64398  1.0000
  H   H690      1.0  0.33631  0.90979  0.63931  1.0000
  Fe  Fe128     1.0  0.38731  0.94607  0.59988  1.0000
  S   S251      1.0  0.39405  0.92041  0.58333  1.0000
  H   H691      1.0  0.35883  0.76892  0.58059  1.0000
  S   S252      1.0  0.35681  0.95650  0.61256  1.0000
  N   N60       1.0  0.31570  0.85035  0.58000  1.0000
  H   H692      1.0  0.19937  0.75441  0.38339  1.0000
  Fe  Fe129     1.0  0.40302  0.97645  0.61655  1.0000
  H   H693      1.0  0.20122  0.80681  0.42833  1.0000
  H   H694      1.0  0.31329  0.80233  0.63833  1.0000
  H   H695      1.0  0.37063  0.91281  0.62647  1.0000
  H   H696      1.0  0.39877  0.80448  0.43850  1.0000
  C   C685      1.0  0.35874  0.90208  0.54389  1.0000
  C   C686      1.0  0.35058  0.91727  0.55442  1.0000
  C   C687      1.0  0.36089  0.92271  0.56695  1.0000
  C   C688      1.0  0.37966  0.91312  0.56902  1.0000
  C   C689      1.0  0.38762  0.89763  0.55886  1.0000
  C   C690      1.0  0.37725  0.89209  0.54644  1.0000
  H   H697      1.0  0.33628  0.92513  0.55262  1.0000
  H   H698      1.0  0.35447  0.93460  0.57468  1.0000
  H   H699      1.0  0.40209  0.89003  0.56034  1.0000
  H   H700      1.0  0.38382  0.88044  0.53843  1.0000
  C   C691      1.0  0.32174  0.80038  0.56232  1.0000
  C   C692      1.0  0.34069  0.79105  0.56379  1.0000
  C   C693      1.0  0.34424  0.77654  0.57981  1.0000
  C   C694      1.0  0.32891  0.77146  0.59447  1.0000
  C   C695      1.0  0.31016  0.78149  0.59333  1.0000
  C   C696      1.0  0.30657  0.79569  0.57725  1.0000
  H   H701      1.0  0.35249  0.79454  0.55232  1.0000
  H   H702      1.0  0.20798  0.76537  0.34174  1.0000
  H   H703      1.0  0.29834  0.77812  0.60467  1.0000
  H   H704      1.0  0.29189  0.80289  0.57625  1.0000
  C   C697      1.0  0.27437  0.83978  0.42867  1.0000
  C   C698      1.0  0.27578  0.83651  0.44850  1.0000
  C   C699      1.0  0.28999  0.84364  0.45522  1.0000
  C   C700      1.0  0.30274  0.85462  0.44223  1.0000
  C   C701      1.0  0.30138  0.85782  0.42239  1.0000
  C   C702      1.0  0.28748  0.85029  0.41561  1.0000
  H   H705      1.0  0.26573  0.82850  0.45880  1.0000
  H   H706      1.0  0.29069  0.84112  0.47052  1.0000
  H   H707      1.0  0.31103  0.86637  0.41217  1.0000
  H   H708      1.0  0.28657  0.85310  0.40035  1.0000
  C   C703      1.0  0.24876  0.74726  0.37407  1.0000
  C   C704      1.0  0.38788  0.94786  0.53089  1.0000
  C   C705      1.0  0.22968  0.75707  0.37686  1.0000
  C   C706      1.0  0.29837  0.84563  0.57862  1.0000
  H   H709      1.0  0.22687  0.77258  0.37595  1.0000
  H   H710      1.0  0.40396  0.89560  0.61933  1.0000
  H   H711      1.0  0.36077  0.93255  0.50547  1.0000
  C   C707      1.0  0.44416  0.85233  0.42495  1.0000
  C   C708      1.0  0.42958  0.86384  0.43598  1.0000
  C   C709      1.0  0.41610  0.85539  0.45083  1.0000
  C   C710      1.0  0.41744  0.83527  0.45521  1.0000
  C   C711      1.0  0.43214  0.82373  0.44431  1.0000
  C   C712      1.0  0.44527  0.83221  0.42904  1.0000
  H   H712      1.0  0.42870  0.87940  0.43303  1.0000
  H   H713      1.0  0.40494  0.86443  0.45915  1.0000
  H   H714      1.0  0.43342  0.80814  0.44772  1.0000
  H   H715      1.0  0.45660  0.82317  0.42088  1.0000
  H   H716      1.0  0.33990  0.74663  0.33215  1.0000
  H   H717      1.0  0.19440  0.78482  0.32755  1.0000
  H   H718      1.0  0.30721  0.82446  0.34456  1.0000
  C   C713      1.0  0.21409  0.74679  0.38093  1.0000
  C   C714      1.0  0.31275  0.82264  0.32976  1.0000
  H   H719      1.0  0.20879  0.83170  0.32166  1.0000
  C   C715      1.0  0.18301  0.82343  0.34010  1.0000
  C   C716      1.0  0.16447  0.81915  0.34039  1.0000
  C   C717      1.0  0.33084  0.81124  0.32528  1.0000
  C   C718      1.0  0.19310  0.77177  0.33885  1.0000
  H   H720      1.0  0.15534  0.81551  0.35414  1.0000
  C   C719      1.0  0.15743  0.81995  0.32302  1.0000
  N   N61       1.0  0.38167  0.88503  0.64111  1.0000
  C   C720      1.0  0.16883  0.76468  0.32239  1.0000
  H   H721      1.0  0.31719  0.76081  0.55762  1.0000
  C   C721      1.0  0.18976  0.73848  0.33752  1.0000
  N   N62       1.0  0.37273  0.94827  0.52157  1.0000
  C   C722      1.0  0.30217  0.83204  0.31508  1.0000
  H   H722      1.0  0.38398  0.92155  0.51128  1.0000
  H   H723      1.0  0.37520  0.81096  0.45143  1.0000
  H   H724      1.0  0.28572  0.78532  0.33609  1.0000
  C   C723      1.0  0.40061  0.85696  0.40636  1.0000
  C   C724      1.0  0.21536  0.74536  0.60769  1.0000
  N   N63       1.0  0.20208  0.83723  0.42045  1.0000
  C   C725      1.0  0.19196  0.83903  0.40559  1.0000
  C   C726      1.0  0.20950  0.85261  0.42311  1.0000
  C   C727      1.0  0.18946  0.85645  0.39266  1.0000
  C   C728      1.0  0.20750  0.87015  0.41031  1.0000
  C   C729      1.0  0.19741  0.87205  0.39498  1.0000
  C   C730      1.0  0.20467  0.81895  0.43397  1.0000
  H   H725      1.0  0.18606  0.82688  0.40337  1.0000
  H   H726      1.0  0.19598  0.88546  0.38476  1.0000
  H   H727      1.0  0.18181  0.85763  0.38063  1.0000
  H   H728      1.0  0.47938  0.82572  0.31589  1.0000
  H   H729      1.0  0.31731  0.97112  0.64472  1.0000
  H   H730      1.0  0.39806  0.95916  0.55225  1.0000
  C   C731      1.0  0.31241  0.76521  0.33639  1.0000
  C   C732      1.0  0.42758  0.80582  0.32088  1.0000
  C   C733      1.0  0.28514  0.84061  0.59529  1.0000
  C   C734      1.0  0.30752  0.84512  0.61469  1.0000
  C   C735      1.0  0.28975  0.84044  0.61343  1.0000
  H   H731      1.0  0.27151  0.83667  0.59415  1.0000
  H   H732      1.0  0.31132  0.84482  0.62873  1.0000
  H   H733      1.0  0.27969  0.83646  0.62652  1.0000
  H   H734      1.0  0.37768  0.80516  0.42741  1.0000
  H   H735      1.0  0.14295  0.81712  0.32352  1.0000
  H   H736      1.0  0.33445  0.85309  0.59888  1.0000
  H   H737      1.0  0.10440  0.74513  0.59656  1.0000
  H   H738      1.0  0.27288  0.77102  0.57744  1.0000
  Fe  Fe130     1.0  0.30707  0.74106  0.63307  1.0000
  H   H739      1.0  0.38558  0.88629  0.40561  1.0000
  C   C736      1.0  0.36918  0.86591  0.42507  1.0000
  H   H740      1.0  0.21756  0.85117  0.43488  1.0000
  C   C737      1.0  0.27866  0.76250  0.56552  1.0000
  H   H741      1.0  0.18435  0.77640  0.35234  1.0000
  C   C738      1.0  0.40192  0.88772  0.63449  1.0000
  C   C739      1.0  0.32970  0.85469  0.56241  1.0000
  S   S253      1.0  0.44749  0.86013  0.32270  1.0000
  H   H742      1.0  0.32220  0.86275  0.55026  1.0000
  C   C740      1.0  0.29854  0.77859  0.32741  1.0000
  C   C741      1.0  0.39991  0.83759  0.41462  1.0000
  H   H743      1.0  0.13881  0.74969  0.59109  1.0000
  C   C742      1.0  0.35579  0.96080  0.52522  1.0000
  H   H744      1.0  0.35659  0.84244  0.44348  1.0000
  S   S254      1.0  0.27686  0.75028  0.62652  1.0000
  H   H745      1.0  0.38196  0.94286  0.49276  1.0000
  H   H746      1.0  0.35597  0.75683  0.64209  1.0000
  H   H747      1.0  0.16392  0.78011  0.31870  1.0000
  H   H748      1.0  0.47655  0.90107  0.38923  1.0000
  H   H749      1.0  0.41212  0.82665  0.41063  1.0000
  C   C743      1.0  0.38618  0.95998  0.54451  1.0000
  C   C744      1.0  0.36891  0.97268  0.54845  1.0000
  H   H750      1.0  0.21107  0.76073  0.60777  1.0000
  H   H751      1.0  0.35696  0.87679  0.42931  1.0000
  Fe  Fe131     1.0  0.36866  0.95761  0.63903  1.0000
  H   H752      1.0  0.21405  0.88203  0.41212  1.0000
  C   C745      1.0  0.38515  0.87120  0.41173  1.0000
  C   C746      1.0  0.36904  0.84643  0.43311  1.0000
  C   C747      1.0  0.35360  0.97312  0.53878  1.0000
  N   N64       1.0  0.18388  0.75796  0.33255  1.0000
  H   H753      1.0  0.33979  0.86394  0.56441  1.0000
  Fe  Fe132     1.0  0.47932  0.85364  0.37971  1.0000
  H   H754      1.0  0.24135  0.74341  0.61953  1.0000
  H   H755      1.0  0.22007  0.81492  0.43622  1.0000
  H   H756      1.0  0.33819  0.84095  0.55823  1.0000
  C   C748      1.0  0.31266  0.74787  0.56672  1.0000
  H   H757      1.0  0.44505  0.81299  0.33897  1.0000
  S   S255      1.0  0.47489  0.83274  0.36189  1.0000
  H   H758      1.0  0.48159  0.80282  0.33208  1.0000
  C   C749      1.0  0.34772  0.89792  0.64299  1.0000
  C   C750      1.0  0.15954  0.75176  0.31658  1.0000
  H   H759      1.0  0.34378  0.96112  0.51784  1.0000
  H   H760      1.0  0.26652  0.75715  0.56164  1.0000
  C   C751      1.0  0.19455  0.82827  0.32218  1.0000
  H   H761      1.0  0.31018  0.76135  0.35206  1.0000
  S   S256      1.0  0.39388  0.97613  0.58801  1.0000
  C   C752      1.0  0.36716  0.89961  0.63588  1.0000
  S   S257      1.0  0.27922  0.84579  0.32066  1.0000
  C   C753      1.0  0.47980  0.80991  0.31706  1.0000
  H   H762      1.0  0.41184  0.87363  0.63471  1.0000
  C   C754      1.0  0.44506  0.80854  0.32529  1.0000
  H   H763      1.0  0.41423  0.80796  0.33107  1.0000
  C   C755      1.0  0.11505  0.73697  0.58686  1.0000
  C   C756      1.0  0.23246  0.73552  0.61445  1.0000
  H   H764      1.0  0.48647  0.89553  0.41111  1.0000
  H   H765      1.0  0.28574  0.78586  0.63894  1.0000
  H   H766      1.0  0.28475  0.77233  0.55259  1.0000
  H   H767      1.0  0.34010  0.98289  0.54192  1.0000
  H   H768      1.0  0.36729  0.98210  0.55908  1.0000
  C   C757      1.0  0.20325  0.73508  0.60191  1.0000
  H   H769      1.0  0.08133  0.73503  0.57118  1.0000
  S   S258      1.0  0.13207  0.73467  0.63529  1.0000
  C   C758      1.0  0.33691  0.73694  0.68744  1.0000
  C   C759      1.0  0.34318  0.88112  0.65538  1.0000
  H   H770      1.0  0.34286  0.78674  0.65633  1.0000
  H   H771      1.0  0.21381  0.79002  0.97489  1.0000
  H   H772      1.0  0.10704  0.77150  0.94039  1.0000
  Fe  Fe133     1.0  0.14330  0.86259  0.75384  1.0000
  S   S259      1.0  0.17378  0.85191  0.75888  1.0000
  S   S260      1.0  0.12839  0.89156  0.76284  1.0000
  Fe  Fe134     1.0  0.14345  0.82851  0.73230  1.0000
  S   S261      1.0  0.17388  0.81563  0.73620  1.0000
  S   S262      1.0  0.12753  0.81531  0.71458  1.0000
  Fe  Fe135     1.0  0.16481  0.82265  0.76618  1.0000
  S   S263      1.0  0.17750  0.80100  0.78937  1.0000
  Fe  Fe136     1.0  0.17997  0.84592  0.72849  1.0000
  S   S264      1.0  0.20651  0.85223  0.70715  1.0000
  S   S265      1.0  0.13354  0.83339  0.76329  1.0000
  S   S266      1.0  0.15012  0.85886  0.72236  1.0000
  Fe  Fe137     1.0  0.32298  0.82635  0.69495  1.0000
  S   S267      1.0  0.35151  0.81538  0.70498  1.0000
  S   S268      1.0  0.32098  0.82426  0.66457  1.0000
  Fe  Fe138     1.0  0.30443  0.84010  0.73262  1.0000
  S   S269      1.0  0.33164  0.83110  0.74568  1.0000
  S   S270      1.0  0.27608  0.85030  0.75021  1.0000
  Fe  Fe139     1.0  0.34608  0.84365  0.71604  1.0000
  S   S271      1.0  0.37055  0.86113  0.70773  1.0000
  Fe  Fe140     1.0  0.33432  0.80387  0.73342  1.0000
  S   S272      1.0  0.33805  0.77282  0.74899  1.0000
  S   S273      1.0  0.31839  0.85515  0.70424  1.0000
  S   S274      1.0  0.30619  0.81228  0.72208  1.0000
  H   H773      1.0  0.29166  0.76152  0.84693  1.0000
  Fe  Fe141     1.0  0.13098  0.96615  0.88283  1.0000
  S   S275      1.0  0.15876  0.95604  0.86432  1.0000
  S   S276      1.0  0.12289  0.95367  0.91477  1.0000
  C   C760      1.0  0.35520  0.92386  0.67821  1.0000
  Fe  Fe142     1.0  0.14026  0.95571  0.84215  1.0000
  S   S277      1.0  0.14875  0.92668  0.83090  1.0000
  C   C761      1.0  0.13833  0.75715  0.96632  1.0000
  S   S278      1.0  0.11209  0.96470  0.86144  1.0000
  C   C762      1.0  0.36452  0.88554  0.69713  1.0000
  C   C763      1.0  0.34534  0.89509  0.69944  1.0000
  C   C764      1.0  0.34072  0.91423  0.69013  1.0000
  C   C765      1.0  0.20128  0.78395  0.67650  1.0000
  C   C766      1.0  0.37444  0.91441  0.67601  1.0000
  C   C767      1.0  0.37911  0.89537  0.68565  1.0000
  H   H774      1.0  0.33409  0.88787  0.70872  1.0000
  H   H775      1.0  0.16394  0.74882  0.71475  1.0000
  H   H776      1.0  0.39402  0.88816  0.68407  1.0000
  C   C768      1.0  0.13326  0.90075  0.78255  1.0000
  C   C769      1.0  0.14582  0.88989  0.79496  1.0000
  C   C770      1.0  0.15011  0.89802  0.80978  1.0000
  C   C771      1.0  0.14203  0.91714  0.81238  1.0000
  C   C772      1.0  0.12941  0.92800  0.80002  1.0000
  C   C773      1.0  0.12503  0.91982  0.78525  1.0000
  H   H777      1.0  0.15231  0.87524  0.79310  1.0000
  H   H778      1.0  0.15990  0.88947  0.81921  1.0000
  H   H779      1.0  0.12308  0.94272  0.80180  1.0000
  H   H780      1.0  0.11532  0.92839  0.77574  1.0000
  C   C774      1.0  0.22679  0.84896  0.71869  1.0000
  C   C775      1.0  0.24432  0.85403  0.70813  1.0000
  C   C776      1.0  0.25979  0.85381  0.71772  1.0000
  C   C777      1.0  0.25753  0.84901  0.73791  1.0000
  C   C778      1.0  0.24023  0.84341  0.74838  1.0000
  C   C779      1.0  0.22505  0.84300  0.73872  1.0000
  H   H781      1.0  0.24581  0.85849  0.69260  1.0000
  H   H782      1.0  0.27322  0.85800  0.70955  1.0000
  H   H783      1.0  0.23858  0.83930  0.76395  1.0000
  H   H784      1.0  0.21196  0.83823  0.74687  1.0000
  C   C780      1.0  0.13348  0.93130  0.92742  1.0000
  C   C781      1.0  0.12404  0.92394  0.94586  1.0000
  C   C782      1.0  0.13198  0.90630  0.95644  1.0000
  C   C783      1.0  0.14978  0.89610  0.94892  1.0000
  C   C784      1.0  0.15921  0.90347  0.93047  1.0000
  C   C785      1.0  0.15098  0.92077  0.91964  1.0000
  H   H785      1.0  0.11049  0.93194  0.95202  1.0000
  H   H786      1.0  0.10145  0.73915  0.94035  1.0000
  H   H787      1.0  0.17294  0.89565  0.92448  1.0000
  H   H788      1.0  0.15828  0.92599  0.90535  1.0000
  H   H789      1.0  0.38879  0.85747  0.65849  1.0000
  N   N65       1.0  0.32914  0.75352  0.69490  1.0000
  C   C786      1.0  0.33570  0.75033  0.78500  1.0000
  C   C787      1.0  0.33897  0.76835  0.77402  1.0000
  C   C788      1.0  0.34290  0.78243  0.78314  1.0000
  C   C789      1.0  0.34371  0.77845  0.80306  1.0000
  C   C790      1.0  0.11186  0.77282  0.92488  1.0000
  H   H790      1.0  0.15648  0.79718  0.66515  1.0000
  H   H791      1.0  0.34568  0.79626  0.77479  1.0000
  H   H792      1.0  0.34693  0.78936  0.80998  1.0000
  C   C791      1.0  0.13587  0.76605  0.83177  1.0000
  C   C792      1.0  0.12836  0.78314  0.82044  1.0000
  C   C793      1.0  0.14103  0.79451  0.80773  1.0000
  C   C794      1.0  0.16110  0.78887  0.80665  1.0000
  C   C795      1.0  0.16847  0.77228  0.81861  1.0000
  C   C796      1.0  0.15591  0.76071  0.83084  1.0000
  H   H793      1.0  0.11285  0.78735  0.82115  1.0000
  H   H794      1.0  0.13526  0.80748  0.79872  1.0000
  H   H795      1.0  0.18399  0.76787  0.81781  1.0000
  C   C797      1.0  0.11519  0.76104  0.89538  1.0000
  H   H796      1.0  0.30835  0.74158  0.71736  1.0000
  H   H797      1.0  0.08305  0.74768  0.92489  1.0000
  C   C798      1.0  0.14932  0.77060  0.95454  1.0000
  C   C799      1.0  0.15881  0.76683  0.93613  1.0000
  S   S279      1.0  0.12052  0.75076  0.84649  1.0000
  C   C800      1.0  0.16962  0.79796  0.67025  1.0000
  C   C801      1.0  0.28513  0.79455  0.64989  1.0000
  H   H798      1.0  0.19557  0.76373  0.64944  1.0000
  H   H799      1.0  0.16744  0.77705  0.92691  1.0000
  C   C802      1.0  0.28410  0.81646  0.67855  1.0000
  H   H800      1.0  0.12457  0.90087  0.97063  1.0000
  H   H801      1.0  0.19884  0.96223  0.88739  1.0000
  H   H802      1.0  0.25596  0.80835  0.69025  1.0000
  H   H803      1.0  0.28363  0.82496  0.68965  1.0000
  H   H804      1.0  0.16194  0.74736  0.83904  1.0000
  C   C803      1.0  0.14296  0.75529  0.69540  1.0000
  C   C804      1.0  0.15288  0.75970  0.70878  1.0000
  C   C805      1.0  0.14865  0.77808  0.71449  1.0000
  C   C806      1.0  0.13394  0.79211  0.70738  1.0000
  C   C807      1.0  0.12405  0.78771  0.69398  1.0000
  C   C808      1.0  0.34884  0.75587  0.65706  1.0000
  H   H805      1.0  0.19237  0.77221  0.96424  1.0000
  H   H806      1.0  0.15664  0.78134  0.72449  1.0000
  H   H807      1.0  0.11266  0.79844  0.68837  1.0000
  H   H808      1.0  0.21589  0.80103  0.68913  1.0000
  H   H809      1.0  0.13622  0.80125  0.88793  1.0000
  N   N66       1.0  0.18392  0.90082  0.73930  1.0000
  C   C809      1.0  0.20276  0.89181  0.73877  1.0000
  C   C810      1.0  0.17493  0.91066  0.75407  1.0000
  C   C811      1.0  0.21280  0.89167  0.75378  1.0000
  C   C812      1.0  0.18456  0.91095  0.76927  1.0000
  C   C813      1.0  0.20355  0.90122  0.76919  1.0000
  C   C814      1.0  0.17357  0.90081  0.72349  1.0000
  H   H810      1.0  0.21008  0.88457  0.72674  1.0000
  H   H811      1.0  0.16012  0.91814  0.75427  1.0000
  H   H812      1.0  0.22763  0.88414  0.75347  1.0000
  H   H813      1.0  0.17722  0.91851  0.78113  1.0000
  H   H814      1.0  0.21109  0.90112  0.78103  1.0000
  H   H815      1.0  0.15805  0.89971  0.72915  1.0000
  H   H816      1.0  0.17445  0.91432  0.71282  1.0000
  H   H817      1.0  0.17974  0.88819  0.71598  1.0000
  S   S280      1.0  0.25152  0.78123  0.66678  1.0000
  C   C815      1.0  0.18722  0.81546  0.68466  1.0000
  H   H818      1.0  0.21340  0.77212  0.67609  1.0000
  C   C816      1.0  0.12162  0.78812  0.91536  1.0000
  S   S281      1.0  0.34027  0.75662  0.83928  1.0000
  H   H819      1.0  0.35473  0.85345  0.67070  1.0000
  C   C817      1.0  0.12498  0.77616  0.88538  1.0000
  C   C818      1.0  0.33625  0.74645  0.80500  1.0000
  C   C819      1.0  0.12834  0.78967  0.89549  1.0000
  H   H820      1.0  0.12546  0.87021  0.94299  1.0000
  N   N67       1.0  0.29153  0.79432  0.79692  1.0000
  C   C820      1.0  0.29876  0.79976  0.81105  1.0000
  C   C821      1.0  0.28425  0.77738  0.80040  1.0000
  C   C822      1.0  0.29867  0.78816  0.82930  1.0000
  C   C823      1.0  0.28388  0.76545  0.81852  1.0000
  C   C824      1.0  0.29123  0.77089  0.83300  1.0000
  C   C825      1.0  0.29238  0.80612  0.77760  1.0000
  H   H821      1.0  0.30516  0.81284  0.80811  1.0000
  H   H822      1.0  0.27883  0.77296  0.78905  1.0000
  H   H823      1.0  0.17572  0.73858  0.79838  1.0000
  Fe  Fe143     1.0  0.26873  0.75397  0.65760  1.0000
  H   H824      1.0  0.10586  0.89755  0.92767  1.0000
  H   H825      1.0  0.30382  0.79889  0.76721  1.0000
  H   H826      1.0  0.27822  0.80838  0.77247  1.0000
  H   H827      1.0  0.29570  0.82072  0.77746  1.0000
  H   H828      1.0  0.10185  0.77769  0.77525  1.0000
  C   C826      1.0  0.11667  0.77136  0.77696  1.0000
  S   S282      1.0  0.34882  0.94768  0.66634  1.0000
  N   N68       1.0  0.18488  0.78300  0.66973  1.0000
  H   H829      1.0  0.12635  0.85329  0.92699  1.0000
  N   N69       1.0  0.13076  0.88150  0.91266  1.0000
  H   H830      1.0  0.13006  0.77723  0.86991  1.0000
  C   C827      1.0  0.18384  0.76572  0.66201  1.0000
  H   H831      1.0  0.15532  0.86862  0.89448  1.0000
  H   H832      1.0  0.12923  0.79254  0.75467  1.0000
  C   C828      1.0  0.13967  0.74706  0.79282  1.0000
  H   H833      1.0  0.32820  0.87972  0.66138  1.0000
  H   H834      1.0  0.16973  0.76662  0.65717  1.0000
  C   C829      1.0  0.35806  0.86631  0.66058  1.0000
  S   S283      1.0  0.15156  0.79248  0.96169  1.0000
  C   C830      1.0  0.20275  0.80022  0.68397  1.0000
  H   H835      1.0  0.16295  0.77842  0.75933  1.0000
  C   C831      1.0  0.26912  0.79585  0.66472  1.0000
  H   H836      1.0  0.14826  0.86055  0.93044  1.0000
  S   S284      1.0  0.29915  0.74688  0.66349  1.0000
  H   H837      1.0  0.32554  0.78440  0.68999  1.0000
  C   C832      1.0  0.17049  0.81432  0.67788  1.0000
  H   H838      1.0  0.27818  0.75198  0.82126  1.0000
  H   H839      1.0  0.30511  0.79209  0.84024  1.0000
  C   C833      1.0  0.14600  0.73669  0.94102  1.0000
  C   C834      1.0  0.33151  0.77123  0.68406  1.0000
  C   C835      1.0  0.12046  0.75493  0.79078  1.0000
  C   C836      1.0  0.37735  0.86863  0.65349  1.0000
  C   C837      1.0  0.13205  0.77975  0.76545  1.0000
  H   H840      1.0  0.18388  0.75846  0.78147  1.0000
  H   H841      1.0  0.32586  0.92155  0.69212  1.0000
  C   C838      1.0  0.13274  0.86558  0.92900  1.0000
  C   C839      1.0  0.30043  0.81447  0.66413  1.0000
  H   H842      1.0  0.18814  0.82809  0.69055  1.0000
  N   N70       1.0  0.10911  0.75932  0.91494  1.0000
  C   C840      1.0  0.26834  0.80726  0.67876  1.0000
  C   C841      1.0  0.15709  0.75009  0.92935  1.0000
  C   C842      1.0  0.30073  0.80390  0.64954  1.0000
  C   C843      1.0  0.12872  0.76952  0.68779  1.0000
  C   C844      1.0  0.17103  0.97137  0.90374  1.0000
  H   H843      1.0  0.15811  0.82587  0.67885  1.0000
  N   N71       1.0  0.15465  0.75556  0.78165  1.0000
  C   C845      1.0  0.34030  0.76051  0.81408  1.0000
  S   S285      1.0  0.16101  0.87424  0.96184  1.0000
  H   H844      1.0  0.12498  0.92251  0.86892  1.0000
  H   H845      1.0  0.12441  0.79834  0.92349  1.0000
  C   C846      1.0  0.17475  0.74696  0.78362  1.0000
  C   C847      1.0  0.11583  0.89669  0.91416  1.0000
  H   H846      1.0  0.10217  0.92414  0.89995  1.0000
  C   C848      1.0  0.11358  0.91174  0.89852  1.0000
  H   H847      1.0  0.16613  0.95762  0.90532  1.0000
  H   H848      1.0  0.38575  0.92189  0.66720  1.0000
  C   C849      1.0  0.12653  0.91099  0.88120  1.0000
  H   H849      1.0  0.33263  0.73942  0.77801  1.0000
  H   H850      1.0  0.11267  0.75056  0.88741  1.0000
  C   C850      1.0  0.34676  0.73786  0.66837  1.0000
  H   H851      1.0  0.12083  0.76632  0.67763  1.0000
  H   H852      1.0  0.32904  0.74731  0.72515  1.0000
  C   C851      1.0  0.14159  0.89540  0.87972  1.0000
  C   C852      1.0  0.15107  0.77162  0.76803  1.0000
  H   H853      1.0  0.15172  0.89489  0.86623  1.0000
  C   C853      1.0  0.14351  0.88066  0.89569  1.0000
  H   H854      1.0  0.31983  0.98103  0.67598  1.0000
  C   C854      1.0  0.34135  0.77266  0.66499  1.0000
  C   C855      1.0  0.09884  0.74339  0.92512  1.0000
  C   C856      1.0  0.19223  0.77171  0.97956  1.0000
  H   H855      1.0  0.10862  0.74851  0.80014  1.0000
  C   C857      1.0  0.13679  0.74026  0.95961  1.0000
  C   C858      1.0  0.31861  0.75209  0.71479  1.0000
  C   C859      1.0  0.18951  0.97406  0.89375  1.0000
  H   H856      1.0  0.16439  0.74755  0.91510  1.0000
  H   H857      1.0  0.18075  0.73727  0.77277  1.0000
  H   H858      1.0  0.30997  0.76623  0.71780  1.0000
  H   H859      1.0  0.18536  0.75269  0.67341  1.0000
  H   H860      1.0  0.13092  0.75981  0.98051  1.0000
  S   S286      1.0  0.82419  0.01476  0.19156  1.0000
  H   H861      1.0  0.85116  0.00643  0.25202  1.0000
  H   H862      1.0  0.81460  0.05137  0.20455  1.0000
  C   C860      1.0  0.87517  0.04616  0.21483  1.0000
  S   S287      1.0  0.64166  0.08881  0.26491  1.0000
  Fe  Fe144     1.0  0.69278  0.09743  0.23826  1.0000
  S   S288      1.0  0.67862  0.07408  0.23295  1.0000
  S   S289      1.0  0.72198  0.10139  0.22082  1.0000
  Fe  Fe145     1.0  0.65213  0.09698  0.23309  1.0000
  S   S290      1.0  0.63237  0.10105  0.21120  1.0000
  Fe  Fe146     1.0  0.66975  0.06825  0.26523  1.0000
  S   S291      1.0  0.67542  0.03896  0.28378  1.0000
  S   S292      1.0  0.66696  0.12082  0.23611  1.0000
  S   S293      1.0  0.68625  0.08983  0.27060  1.0000
  Fe  Fe147     1.0  0.83289  0.07377  0.27209  1.0000
  S   S294      1.0  0.82013  0.09669  0.24995  1.0000
  S   S295      1.0  0.83947  0.04269  0.26612  1.0000
  Fe  Fe148     1.0  0.83355  0.10365  0.29861  1.0000
  S   S296      1.0  0.82125  0.12837  0.27762  1.0000
  C   C861      1.0  0.70429  0.14757  0.16232  1.0000
  Fe  Fe149     1.0  0.80122  0.10888  0.27500  1.0000
  S   S297      1.0  0.76943  0.12050  0.27808  1.0000
  Fe  Fe150     1.0  0.84152  0.11367  0.25477  1.0000
  S   S298      1.0  0.85919  0.13032  0.23002  1.0000
  S   S299      1.0  0.81206  0.08466  0.29726  1.0000
  S   S300      1.0  0.85573  0.09011  0.27574  1.0000
  Fe  Fe151     1.0  0.84607  0.14351  0.01647  1.0000
  S   S301      1.0  0.86617  0.11634  0.02575  1.0000
  S   S302      1.0  0.83800  0.17193  0.02832  1.0000
  H   H863      1.0  0.60628  0.03361  0.30217  1.0000
  S   S303      1.0  0.85044  0.09651  0.99439  1.0000
  Fe  Fe152     1.0  0.84159  0.10082  0.02569  1.0000
  S   S304      1.0  0.82906  0.08076  0.05235  1.0000
  Fe  Fe153     1.0  0.87364  0.11411  0.99385  1.0000
  S   S305      1.0  0.82097  0.12834  0.01789  1.0000
  N   N72       1.0  0.88723  0.17757  0.98780  1.0000
  S   S306      1.0  0.80487  0.23171  0.15928  1.0000
  S   S307      1.0  0.84923  0.21121  0.14561  1.0000
  S   S308      1.0  0.80994  0.17536  0.16599  1.0000
  H   H864      1.0  0.85485  0.04396  0.17826  1.0000
  Fe  Fe154     1.0  0.84392  0.22142  0.11486  1.0000
  S   S309      1.0  0.86559  0.20805  0.09122  1.0000
  H   H865      1.0  0.70009  0.09405  0.19092  1.0000
  S   S310      1.0  0.81514  0.21184  0.12009  1.0000
  C   C862      1.0  0.86406  0.07295  0.19197  1.0000
  H   H866      1.0  0.69614  0.16728  0.13718  1.0000
  H   H867      1.0  0.82049  0.06286  0.23309  1.0000
  S   S311      1.0  0.63297  0.16968  0.13993  1.0000
  S   S312      1.0  0.71481  0.19686  0.14583  1.0000
  S   S313      1.0  0.67217  0.20225  0.11589  1.0000
  H   H868      1.0  0.63406  0.04849  0.28252  1.0000
  Fe  Fe155     1.0  0.81955  0.20335  0.15083  1.0000
  S   S314      1.0  0.64487  0.13056  0.28924  1.0000
  C   C863      1.0  0.65549  0.02814  0.29668  1.0000
  H   H869      1.0  0.59986  0.14590  0.25008  1.0000
  C   C864      1.0  0.84577  0.18084  0.04654  1.0000
  C   C865      1.0  0.83510  0.19793  0.05261  1.0000
  C   C866      1.0  0.84061  0.20588  0.06683  1.0000
  C   C867      1.0  0.85730  0.19721  0.07472  1.0000
  C   C868      1.0  0.86812  0.18017  0.06855  1.0000
  C   C869      1.0  0.86220  0.17180  0.05478  1.0000
  H   H870      1.0  0.82247  0.20515  0.04622  1.0000
  H   H871      1.0  0.83233  0.21915  0.07121  1.0000
  H   H872      1.0  0.88112  0.17343  0.07450  1.0000
  H   H873      1.0  0.87048  0.15855  0.05046  1.0000
  S   S315      1.0  0.70249  0.18197  0.30184  1.0000
  C   C870      1.0  0.80738  0.18558  0.22208  1.0000
  H   H874      1.0  0.79520  0.20199  0.19753  1.0000
  H   H875      1.0  0.84760  0.01783  0.05594  1.0000
  H   H876      1.0  0.86991  0.02500  0.19123  1.0000
  C   C871      1.0  0.84616  0.14215  0.21148  1.0000
  C   C872      1.0  0.83058  0.13480  0.20800  1.0000
  C   C873      1.0  0.81989  0.14477  0.19356  1.0000
  C   C874      1.0  0.82464  0.16222  0.18265  1.0000
  C   C875      1.0  0.84033  0.16948  0.18597  1.0000
  C   C876      1.0  0.85122  0.15934  0.20023  1.0000
  H   H877      1.0  0.82685  0.12137  0.21621  1.0000
  H   H878      1.0  0.80776  0.13911  0.19102  1.0000
  H   H879      1.0  0.84393  0.18305  0.17787  1.0000
  H   H880      1.0  0.86329  0.16507  0.20283  1.0000
  C   C877      1.0  0.63455  0.16807  0.24149  1.0000
  C   C878      1.0  0.63264  0.12072  0.19200  1.0000
  C   C879      1.0  0.62239  0.12109  0.17711  1.0000
  C   C880      1.0  0.62246  0.13631  0.16138  1.0000
  C   C881      1.0  0.63260  0.15144  0.16049  1.0000
  C   C882      1.0  0.64268  0.15126  0.17552  1.0000
  C   C883      1.0  0.64281  0.13586  0.19120  1.0000
  H   H881      1.0  0.61446  0.10947  0.17762  1.0000
  H   H882      1.0  0.61465  0.13631  0.14982  1.0000
  H   H883      1.0  0.65079  0.16265  0.17487  1.0000
  H   H884      1.0  0.65079  0.13576  0.20254  1.0000
  H   H885      1.0  0.67384  0.14700  0.13138  1.0000
  C   C884      1.0  0.73540  0.10885  0.23519  1.0000
  C   C885      1.0  0.75569  0.10606  0.23097  1.0000
  C   C886      1.0  0.76639  0.10993  0.24390  1.0000
  C   C887      1.0  0.75675  0.11683  0.26085  1.0000
  C   C888      1.0  0.73649  0.12049  0.26449  1.0000
  C   C889      1.0  0.72585  0.11645  0.25172  1.0000
  H   H886      1.0  0.76311  0.10026  0.21810  1.0000
  H   H887      1.0  0.78202  0.10737  0.24082  1.0000
  C   C890      1.0  0.67752  0.14754  0.27902  1.0000
  H   H888      1.0  0.71021  0.11913  0.25476  1.0000
  C   C891      1.0  0.85935  0.02818  0.09055  1.0000
  C   C892      1.0  0.86996  0.03751  0.07374  1.0000
  C   C893      1.0  0.86108  0.05389  0.06213  1.0000
  C   C894      1.0  0.84139  0.06107  0.06715  1.0000
  C   C895      1.0  0.83086  0.05195  0.08414  1.0000
  C   C896      1.0  0.83979  0.03568  0.09585  1.0000
  H   H889      1.0  0.88510  0.03182  0.06947  1.0000
  H   H890      1.0  0.86939  0.06072  0.04911  1.0000
  H   H891      1.0  0.81563  0.05743  0.08819  1.0000
  H   H892      1.0  0.83143  0.02868  0.10872  1.0000
  C   C897      1.0  0.82995  0.02244  0.21165  1.0000
  C   C898      1.0  0.84050  0.00993  0.22500  1.0000
  C   C899      1.0  0.84341  0.01638  0.24152  1.0000
  C   C900      1.0  0.83624  0.03551  0.24464  1.0000
  C   C901      1.0  0.82620  0.04816  0.23095  1.0000
  C   C902      1.0  0.82287  0.04158  0.21473  1.0000
  H   H893      1.0  0.67579  0.22014  0.30528  1.0000
  N   N73       1.0  0.81397  0.16478  0.08559  1.0000
  C   C903      1.0  0.82744  0.16136  0.09765  1.0000
  C   C904      1.0  0.81402  0.15187  0.07373  1.0000
  C   C905      1.0  0.84169  0.14483  0.09774  1.0000
  C   C906      1.0  0.82799  0.13512  0.07354  1.0000
  C   C907      1.0  0.84192  0.13164  0.08560  1.0000
  C   C908      1.0  0.79885  0.18193  0.08607  1.0000
  H   H894      1.0  0.82745  0.17158  0.10706  1.0000
  H   H895      1.0  0.80348  0.15463  0.06403  1.0000
  H   H896      1.0  0.90733  0.13398  0.01003  1.0000
  H   H897      1.0  0.82807  0.12498  0.06400  1.0000
  C   C909      1.0  0.69018  0.15913  0.28183  1.0000
  H   H898      1.0  0.78633  0.17869  0.09747  1.0000
  H   H899      1.0  0.80444  0.19428  0.08918  1.0000
  H   H900      1.0  0.79384  0.18683  0.07184  1.0000
  S   S316      1.0  0.87056  0.00606  0.10304  1.0000
  H   H901      1.0  0.70285  0.16149  0.27106  1.0000
  Fe  Fe156     1.0  0.83190  0.12539  0.98670  1.0000
  H   H902      1.0  0.63800  0.22757  0.06542  1.0000
  C   C910      1.0  0.63658  0.03601  0.29358  1.0000
  S   S317      1.0  0.85574  0.14265  0.98465  1.0000
  H   H903      1.0  0.75340  0.19464  0.15266  1.0000
  H   H904      1.0  0.81749  0.16548  0.24614  1.0000
  C   C911      1.0  0.73106  0.21353  0.13849  1.0000
  N   N74       1.0  0.77484  0.05224  0.26308  1.0000
  C   C912      1.0  0.78567  0.03633  0.25603  1.0000
  C   C913      1.0  0.75802  0.06101  0.25638  1.0000
  C   C914      1.0  0.78039  0.02954  0.24104  1.0000
  C   C915      1.0  0.75221  0.05451  0.24151  1.0000
  C   C916      1.0  0.76360  0.03880  0.23367  1.0000
  C   C917      1.0  0.78084  0.05943  0.27846  1.0000
  H   H905      1.0  0.79870  0.02899  0.26175  1.0000
  H   H906      1.0  0.74909  0.07326  0.26237  1.0000
  H   H907      1.0  0.75942  0.03378  0.22195  1.0000
  H   H908      1.0  0.73901  0.06173  0.23603  1.0000
  S   S318      1.0  0.63031  0.22598  0.13462  1.0000
  H   H909      1.0  0.85257  0.14243  0.10705  1.0000
  H   H910      1.0  0.79685  0.05589  0.27788  1.0000
  H   H911      1.0  0.77697  0.07546  0.27690  1.0000
  H   H912      1.0  0.88100  0.04155  0.17171  1.0000
  H   H913      1.0  0.87978  0.05269  0.24172  1.0000
  H   H914      1.0  0.87091  0.08824  0.23192  1.0000
  C   C918      1.0  0.69443  0.15359  0.14658  1.0000
  H   H915      1.0  0.70939  0.12549  0.18675  1.0000
  C   C919      1.0  0.68003  0.12453  0.15555  1.0000
  C   C920      1.0  0.70183  0.12996  0.17441  1.0000
  H   H916      1.0  0.71368  0.15661  0.16517  1.0000
  H   H917      1.0  0.86070  0.10128  0.20002  1.0000
  C   C921      1.0  0.76265  0.22159  0.13835  1.0000
  C   C922      1.0  0.68659  0.16744  0.29864  1.0000
  H   H918      1.0  0.76853  0.19601  0.18658  1.0000
  H   H919      1.0  0.66991  0.11600  0.15321  1.0000
  C   C923      1.0  0.68214  0.14208  0.14318  1.0000
  H   H920      1.0  0.81880  0.19421  0.22012  1.0000
  H   H921      1.0  0.87913  0.03068  0.21923  1.0000
  N   N75       1.0  0.62276  0.16000  0.23347  1.0000
  C   C924      1.0  0.74939  0.20859  0.14403  1.0000
  C   C925      1.0  0.87570  0.05854  0.22759  1.0000
  C   C926      1.0  0.86879  0.04038  0.18399  1.0000
  C   C927      1.0  0.65737  0.15308  0.30955  1.0000
  H   H922      1.0  0.72891  0.12608  0.27741  1.0000
  N   N76       1.0  0.86918  0.05341  0.19737  1.0000
  N   N77       1.0  0.69002  0.11857  0.17077  1.0000
  H   H923      1.0  0.85291  0.11878  0.08545  1.0000
  Fe  Fe157     1.0  0.65880  0.11085  0.26790  1.0000
  C   C928      1.0  0.87047  0.07846  0.22221  1.0000
  Fe  Fe158     1.0  0.68455  0.20864  0.14000  1.0000
  C   C929      1.0  0.68711  0.10047  0.18395  1.0000
  C   C930      1.0  0.86466  0.08576  0.20429  1.0000
  H   H924      1.0  0.67445  0.10325  0.19543  1.0000
  H   H925      1.0  0.68436  0.08953  0.17615  1.0000
  H   H926      1.0  0.85945  0.07872  0.17808  1.0000
  H   H927      1.0  0.60785  0.16229  0.20974  1.0000
  C   C931      1.0  0.65862  0.01179  0.31094  1.0000
  H   H928      1.0  0.65066  0.19152  0.23830  1.0000
  C   C932      1.0  0.80667  0.16942  0.23663  1.0000
  C   C933      1.0  0.79241  0.15799  0.23846  1.0000
  H   H929      1.0  0.61923  0.19268  0.19239  1.0000
  H   H930      1.0  0.78942  0.01734  0.23500  1.0000
  C   C934      1.0  0.64125  0.18520  0.23196  1.0000
  H   H931      1.0  0.64064  0.20751  0.20671  1.0000
  S   S319      1.0  0.66050  0.19937  0.16313  1.0000
  C   C935      1.0  0.66106  0.14460  0.29284  1.0000
  H   H932      1.0  0.76844  0.15349  0.22674  1.0000
  C   C936      1.0  0.77920  0.16273  0.22546  1.0000
  H   H933      1.0  0.61679  0.13189  0.23367  1.0000
  H   H934      1.0  0.86143  0.13588  0.30622  1.0000
  H   H935      1.0  0.65625  0.08943  0.30825  1.0000
  C   C937      1.0  0.62355  0.18589  0.20624  1.0000
  H   H936      1.0  0.63887  0.16127  0.25534  1.0000
  H   H937      1.0  0.79186  0.14528  0.24958  1.0000
  C   C938      1.0  0.63565  0.19416  0.21424  1.0000
  H   H938      1.0  0.68093  0.22995  0.25270  1.0000
  H   H939      1.0  0.69892  0.22918  0.19698  1.0000
  C   C939      1.0  0.61714  0.16873  0.21614  1.0000
  N   N78       1.0  0.78015  0.17848  0.21107  1.0000
  C   C940      1.0  0.79392  0.18994  0.20935  1.0000
  Fe  Fe159     1.0  0.64686  0.19563  0.13884  1.0000
  C   C941      1.0  0.76677  0.18244  0.19703  1.0000
  C   C942      1.0  0.89001  0.16185  0.00199  1.0000
  H   H940      1.0  0.68039  0.14107  0.26609  1.0000
  H   H941      1.0  0.75150  0.18374  0.20455  1.0000
  H   H942      1.0  0.73534  0.14871  0.29832  1.0000
  H   H943      1.0  0.62352  0.13487  0.25564  1.0000
  H   H944      1.0  0.84593  0.99512  0.22293  1.0000
  C   C943      1.0  0.61537  0.14233  0.24374  1.0000
  H   H945      1.0  0.86797  0.00048  0.06229  1.0000
  H   H946      1.0  0.77669  0.21759  0.14281  1.0000
  H   H947      1.0  0.68402  0.21181  0.27359  1.0000
  C   C944      1.0  0.90537  0.14668  0.99895  1.0000
  H   H948      1.0  0.77371  0.05282  0.29282  1.0000
  H   H949      1.0  0.81669  0.01593  0.07480  1.0000
  H   H950      1.0  0.86830  0.19576  0.00628  1.0000
  C   C945      1.0  0.62088  0.02755  0.30470  1.0000
  H   H951      1.0  0.88015  0.16086  0.01564  1.0000
  C   C946      1.0  0.68613  0.22684  0.26686  1.0000
  H   H952      1.0  0.76986  0.17052  0.18838  1.0000
  H   H953      1.0  0.70188  0.22754  0.26419  1.0000
  S   S320      1.0  0.87080  0.99128  0.15957  1.0000
  H   H954      1.0  0.67217  0.22553  0.18147  1.0000
  H   H955      1.0  0.79560  0.99980  0.10261  1.0000
  S   S321      1.0  0.82849  0.99007  0.14700  1.0000
  Fe  Fe160     1.0  0.83996  0.99064  0.17439  1.0000
  C   C947      1.0  0.67027  0.16431  0.31257  1.0000
  C   C948      1.0  0.85289  0.00203  0.05943  1.0000
  C   C949      1.0  0.87064  0.19296  0.99114  1.0000
  H   H956      1.0  0.67324  0.00561  0.31335  1.0000
  C   C950      1.0  0.81015  0.99265  0.09786  1.0000
  C   C951      1.0  0.82216  0.00169  0.08216  1.0000
  Fe  Fe161     1.0  0.85951  0.98951  0.13271  1.0000
  H   H957      1.0  0.87284  0.20682  0.98142  1.0000
  H   H958      1.0  0.85726  0.18855  0.98879  1.0000
  C   C952      1.0  0.72602  0.23157  0.12723  1.0000
  N   N79       1.0  0.84068  0.99287  0.07640  1.0000
  C   C953      1.0  0.73622  0.13981  0.31285  1.0000
  Fe  Fe162     1.0  0.64627  0.23020  0.15721  1.0000
  H   H959      1.0  0.85310  0.99525  0.04668  1.0000
  H   H960      1.0  0.73549  0.12472  0.31165  1.0000
  Fe  Fe163     1.0  0.65690  0.23310  0.11376  1.0000
  H   H961      1.0  0.62098  0.10174  0.31406  1.0000
  C   C954      1.0  0.91788  0.14767  0.98127  1.0000
  H   H962      1.0  0.72458  0.11524  0.45319  1.0000
  H   H963      1.0  0.59856  0.99595  0.54035  1.0000
  N   N80       1.0  0.58903  0.02555  0.52841  1.0000
  Fe  Fe164     1.0  0.64342  0.04468  0.49967  1.0000
  S   S322      1.0  0.62881  0.07369  0.48667  1.0000
  S   S323      1.0  0.64129  0.01632  0.49038  1.0000
  Fe  Fe165     1.0  0.66102  0.06283  0.52776  1.0000
  S   S324      1.0  0.64770  0.09285  0.51581  1.0000
  S   S325      1.0  0.67423  0.05707  0.55559  1.0000
  Fe  Fe166     1.0  0.62103  0.07962  0.51745  1.0000
  S   S326      1.0  0.59129  0.09362  0.53103  1.0000
  Fe  Fe167     1.0  0.65699  0.08364  0.48645  1.0000
  S   S327      1.0  0.67628  0.09712  0.45998  1.0000
  S   S328      1.0  0.63389  0.04996  0.53042  1.0000
  S   S329      1.0  0.67206  0.05414  0.49839  1.0000
  Fe  Fe168     1.0  0.85997  0.21869  0.40549  1.0000
  C   C955      1.0  0.57814  0.05763  0.51250  1.0000
  S   S330      1.0  0.87748  0.22041  0.42861  1.0000
  Fe  Fe169     1.0  0.85486  0.19757  0.37295  1.0000
  S   S331      1.0  0.82532  0.21468  0.37074  1.0000
  S   S332      1.0  0.86840  0.17791  0.35052  1.0000
  C   C956      1.0  0.62140  0.99153  0.45282  1.0000
  S   S333      1.0  0.51814  0.09703  0.64342  1.0000
  Fe  Fe170     1.0  0.82065  0.20961  0.40309  1.0000
  S   S334      1.0  0.79195  0.20321  0.41989  1.0000
  S   S335      1.0  0.86853  0.22365  0.37302  1.0000
  S   S336      1.0  0.84939  0.19068  0.40559  1.0000
  Fe  Fe171     1.0  0.69943  0.18630  0.33261  1.0000
  C   C957      1.0  0.78386  0.12634  0.33088  1.0000
  Fe  Fe172     1.0  0.69827  0.21798  0.35513  1.0000
  H   H964      1.0  0.54907  0.04673  0.55555  1.0000
  H   H965      1.0  0.90786  0.17816  0.35805  1.0000
  Fe  Fe173     1.0  0.68004  0.18206  0.37478  1.0000
  S   S337      1.0  0.65603  0.17182  0.39814  1.0000
  S   S338      1.0  0.70257  0.16239  0.35794  1.0000
  H   H966      1.0  0.61599  0.04868  0.61581  1.0000
  H   H967      1.0  0.61460  0.02897  0.35580  1.0000
  Fe  Fe174     1.0  0.74383  0.09907  0.61001  1.0000
  S   S339      1.0  0.72119  0.11116  0.63303  1.0000
  S   S340      1.0  0.73631  0.09750  0.58058  1.0000
  Fe  Fe175     1.0  0.74124  0.13172  0.63290  1.0000
  S   S341      1.0  0.72896  0.16272  0.63529  1.0000
  S   S342      1.0  0.76302  0.12125  0.60848  1.0000
  S   S343      1.0  0.75188  0.16217  0.37170  1.0000
  C   C958      1.0  0.62399  0.01138  0.31915  1.0000
  S   S344      1.0  0.80990  0.09442  0.63114  1.0000
  S   S345      1.0  0.55026  0.05640  0.61369  1.0000
  H   H968      1.0  0.59406  0.11829  0.56159  1.0000
  C   C959      1.0  0.75966  0.20554  0.63200  1.0000
  C   C960      1.0  0.74431  0.19507  0.63482  1.0000
  C   C961      1.0  0.74812  0.17559  0.63261  1.0000
  C   C962      1.0  0.56271  0.05986  0.52769  1.0000
  H   H969      1.0  0.72953  0.20208  0.63858  1.0000
  H   H970      1.0  0.77027  0.15161  0.62577  1.0000
  H   H971      1.0  0.59642  0.04236  0.34222  1.0000
  S   S346      1.0  0.62901  0.98538  0.37971  1.0000
  C   C963      1.0  0.86355  0.15494  0.32558  1.0000
  C   C964      1.0  0.69625  0.16359  0.43112  1.0000
  C   C965      1.0  0.59124  0.04027  0.51310  1.0000
  H   H972      1.0  0.71851  0.16168  0.40617  1.0000
  C   C966      1.0  0.67415  0.99277  0.43812  1.0000
  H   H973      1.0  0.84955  0.08068  0.63164  1.0000
  H   H974      1.0  0.57260  0.01631  0.55598  1.0000
  N   N81       1.0  0.62084  0.05628  0.33927  1.0000
  C   C967      1.0  0.78100  0.19086  0.40728  1.0000
  C   C968      1.0  0.76076  0.19322  0.40983  1.0000
  C   C969      1.0  0.75174  0.18491  0.39851  1.0000
  C   C970      1.0  0.76294  0.17339  0.38533  1.0000
  H   H975      1.0  0.64481  0.01402  0.40578  1.0000
  C   C971      1.0  0.79224  0.17954  0.39394  1.0000
  H   H976      1.0  0.75208  0.20208  0.42007  1.0000
  H   H977      1.0  0.73616  0.18739  0.40014  1.0000
  H   H978      1.0  0.80790  0.17761  0.39200  1.0000
  C   C972      1.0  0.57968  0.08316  0.55391  1.0000
  C   C973      1.0  0.58733  0.06499  0.56324  1.0000
  C   C974      1.0  0.57776  0.05686  0.58124  1.0000
  C   C975      1.0  0.56064  0.06696  0.59040  1.0000
  C   C976      1.0  0.55287  0.08515  0.58113  1.0000
  C   C977      1.0  0.56231  0.09316  0.56288  1.0000
  H   H979      1.0  0.60054  0.05705  0.55662  1.0000
  H   H980      1.0  0.58388  0.04279  0.58832  1.0000
  H   H981      1.0  0.53965  0.09306  0.58806  1.0000
  H   H982      1.0  0.55619  0.10721  0.55575  1.0000
  C   C978      1.0  0.69083  0.06927  0.56241  1.0000
  C   C979      1.0  0.69419  0.06518  0.58171  1.0000
  C   C980      1.0  0.70766  0.07398  0.58767  1.0000
  C   C981      1.0  0.71820  0.08682  0.57430  1.0000
  C   C982      1.0  0.71470  0.09105  0.55504  1.0000
  C   C983      1.0  0.70102  0.08247  0.54915  1.0000
  H   H983      1.0  0.68651  0.05491  0.59208  1.0000
  H   H984      1.0  0.71025  0.07043  0.60247  1.0000
  H   H985      1.0  0.72279  0.10087  0.54452  1.0000
  H   H986      1.0  0.69873  0.08571  0.53425  1.0000
  C   C984      1.0  0.66895  0.11657  0.44203  1.0000
  C   C985      1.0  0.68179  0.12009  0.42457  1.0000
  C   C986      1.0  0.67768  0.13666  0.41076  1.0000
  C   C987      1.0  0.66071  0.14992  0.41433  1.0000
  C   C988      1.0  0.64752  0.14606  0.43148  1.0000
  C   C989      1.0  0.65162  0.12944  0.44532  1.0000
  H   H987      1.0  0.69518  0.11016  0.42191  1.0000
  H   H988      1.0  0.68783  0.13936  0.39754  1.0000
  H   H989      1.0  0.63430  0.15621  0.43427  1.0000
  H   H990      1.0  0.64165  0.12690  0.45873  1.0000
  C   C990      1.0  0.84343  0.15085  0.35704  1.0000
  H   H991      1.0  0.75672  0.22059  0.63376  1.0000
  H   H992      1.0  0.59961  0.03770  0.43969  1.0000
  C   C991      1.0  0.85726  0.16041  0.34396  1.0000
  C   C992      1.0  0.74164  0.12952  0.41752  1.0000
  C   C993      1.0  0.65384  0.01258  0.41675  1.0000
  C   C994      1.0  0.83660  0.13553  0.35201  1.0000
  C   C995      1.0  0.76681  0.12495  0.32471  1.0000
  H   H993      1.0  0.64541  0.99097  0.33332  1.0000
  H   H994      1.0  0.59954  0.05003  0.36401  1.0000
  S   S347      1.0  0.76024  0.07746  0.63131  1.0000
  C   C996      1.0  0.84299  0.12998  0.33366  1.0000
  C   C997      1.0  0.85624  0.14005  0.32033  1.0000
  S   S348      1.0  0.67472  0.20471  0.34858  1.0000
  C   C998      1.0  0.78795  0.14451  0.33137  1.0000
  H   H995      1.0  0.68313  0.00710  0.45810  1.0000
  C   C999      1.0  0.61027  0.00705  0.44257  1.0000
  H   H996      1.0  0.79194  0.16152  0.37313  1.0000
  C   C1000     1.0  0.62886  0.01321  0.47212  1.0000
  C   C1001     1.0  0.77872  0.19665  0.62641  1.0000
  H   H997      1.0  0.83852  0.15477  0.37128  1.0000
  C   C1002     1.0  0.77503  0.16107  0.32566  1.0000
  C   C1003     1.0  0.61766  0.02872  0.46194  1.0000
  H   H998      1.0  0.82644  0.12780  0.36250  1.0000
  H   H999      1.0  0.77250  0.21791  0.37046  1.0000
  H   H1000     1.0  0.60334  0.03872  0.50137  1.0000
  C   C1004     1.0  0.69967  0.13712  0.45766  1.0000
  S   S349      1.0  0.72257  0.20106  0.33755  1.0000
  C   C1005     1.0  0.71691  0.12900  0.44697  1.0000
  H   H1001     1.0  0.91761  0.20208  0.37382  1.0000
  H   H1002     1.0  0.77790  0.17522  0.32644  1.0000
  H   H1003     1.0  0.64670  0.04291  0.41924  1.0000
  H   H1004     1.0  0.67547  0.16053  0.45738  1.0000
  H   H1005     1.0  0.64465  0.15080  0.32027  1.0000
  C   C1006     1.0  0.67530  0.00881  0.44612  1.0000
  H   H1006     1.0  0.61629  0.04315  0.46511  1.0000
  H   H1007     1.0  0.69397  0.12952  0.47171  1.0000
  C   C1007     1.0  0.61385  0.07481  0.33147  1.0000
  S   S350      1.0  0.60392  0.00193  0.33366  1.0000
  H   H1008     1.0  0.73933  0.12885  0.40273  1.0000
  C   C1008     1.0  0.78244  0.17726  0.62394  1.0000
  N   N82       1.0  0.72355  0.13794  0.42875  1.0000
  C   C1009     1.0  0.71348  0.15500  0.42081  1.0000
  C   C1010     1.0  0.91108  0.19004  0.38256  1.0000
  Fe  Fe176     1.0  0.52289  0.06857  0.63284  1.0000
  H   H1009     1.0  0.55286  0.07352  0.52769  1.0000
  C   C1011     1.0  0.78319  0.17049  0.38325  1.0000
  C   C1012     1.0  0.60829  0.02560  0.44741  1.0000
  Fe  Fe177     1.0  0.72351  0.17892  0.36441  1.0000
  H   H1010     1.0  0.61750  0.11050  0.54903  1.0000
  H   H1011     1.0  0.64589  0.03463  0.34201  1.0000
  H   H1012     1.0  0.66744  0.17069  0.32558  1.0000
  C   C1013     1.0  0.76720  0.16666  0.62737  1.0000
  S   S351      1.0  0.70133  0.19720  0.38286  1.0000
  S   S352      1.0  0.79801  0.20954  0.62247  1.0000
  H   H1013     1.0  0.61516  0.12457  0.56809  1.0000
  S   S353      1.0  0.83490  0.10973  0.32853  1.0000
  H   H1014     1.0  0.72345  0.14510  0.32320  1.0000
  N   N83       1.0  0.61121  0.09536  0.57785  1.0000
  C   C1014     1.0  0.59681  0.09283  0.59346  1.0000
  C   C1015     1.0  0.62760  0.08178  0.57596  1.0000
  C   C1016     1.0  0.59835  0.07606  0.60739  1.0000
  C   C1017     1.0  0.62960  0.06483  0.58959  1.0000
  C   C1018     1.0  0.61481  0.06193  0.60534  1.0000
  C   C1019     1.0  0.60944  0.11312  0.56352  1.0000
  H   H1015     1.0  0.58373  0.10350  0.59491  1.0000
  H   H1016     1.0  0.63917  0.08388  0.56375  1.0000
  H   H1017     1.0  0.58650  0.07374  0.61931  1.0000
  H   H1018     1.0  0.64253  0.05398  0.58780  1.0000
  C   C1020     1.0  0.64032  0.04943  0.33621  1.0000
  H   H1019     1.0  0.88480  0.22892  0.46401  1.0000
  C   C1021     1.0  0.66560  0.02700  0.43912  1.0000
  H   H1020     1.0  0.79388  0.11340  0.33523  1.0000
  N   N84       1.0  0.89852  0.17343  0.41381  1.0000
  C   C1022     1.0  0.90735  0.18823  0.40274  1.0000
  C   C1023     1.0  0.89310  0.16025  0.40524  1.0000
  H   H1021     1.0  0.77719  0.23307  0.38590  1.0000
  C   C1024     1.0  0.89666  0.16159  0.38510  1.0000
  C   C1025     1.0  0.90567  0.17662  0.37372  1.0000
  C   C1026     1.0  0.89365  0.17225  0.43488  1.0000
  H   H1022     1.0  0.91116  0.19904  0.40946  1.0000
  H   H1023     1.0  0.88548  0.14892  0.41394  1.0000
  C   C1027     1.0  0.57409  0.02771  0.54353  1.0000
  H   H1024     1.0  0.89181  0.15151  0.37824  1.0000
  H   H1025     1.0  0.60578  0.00243  0.51473  1.0000
  H   H1026     1.0  0.87795  0.17782  0.43892  1.0000
  H   H1027     1.0  0.89699  0.15711  0.44233  1.0000
  H   H1028     1.0  0.90184  0.18127  0.44028  1.0000
  N   N85       1.0  0.75845  0.14522  0.56420  1.0000
  C   C1028     1.0  0.77082  0.15639  0.56720  1.0000
  C   C1029     1.0  0.73925  0.14824  0.57222  1.0000
  C   C1030     1.0  0.76393  0.17138  0.57802  1.0000
  C   C1031     1.0  0.73190  0.16303  0.58319  1.0000
  C   C1032     1.0  0.74432  0.17476  0.58592  1.0000
  C   C1033     1.0  0.76618  0.12895  0.55370  1.0000
  H   H1029     1.0  0.78619  0.15349  0.56155  1.0000
  H   H1030     1.0  0.72959  0.13886  0.57057  1.0000
  H   H1031     1.0  0.77379  0.18001  0.58073  1.0000
  H   H1032     1.0  0.71682  0.16506  0.59003  1.0000
  H   H1033     1.0  0.73884  0.18608  0.59468  1.0000
  H   H1034     1.0  0.77184  0.11608  0.56382  1.0000
  H   H1035     1.0  0.75473  0.12487  0.54745  1.0000
  H   H1036     1.0  0.77800  0.13257  0.54161  1.0000
  H   H1037     1.0  0.75296  0.13869  0.41608  1.0000
  H   H1038     1.0  0.66869  0.05548  0.32190  1.0000
  S   S354      1.0  0.49232  0.07184  0.62724  1.0000
  C   C1034     1.0  0.68928  0.15450  0.44961  1.0000
  H   H1039     1.0  0.74801  0.17202  0.31521  1.0000
  H   H1040     1.0  0.68787  0.17672  0.42446  1.0000
  H   H1041     1.0  0.79713  0.17035  0.61952  1.0000
  C   C1035     1.0  0.64634  0.08014  0.31705  1.0000
  S   S355      1.0  0.59840  0.00417  0.42381  1.0000
  H   H1042     1.0  0.61740  0.01061  0.53115  1.0000
  Fe  Fe178     1.0  0.77732  0.10086  0.63177  1.0000
  C   C1036     1.0  0.65482  0.02894  0.42432  1.0000
  H   H1043     1.0  0.74713  0.11460  0.42433  1.0000
  H   H1044     1.0  0.66593  0.03944  0.44562  1.0000
  C   C1037     1.0  0.60332  0.00773  0.52879  1.0000
  H   H1045     1.0  0.58027  0.06951  0.50062  1.0000
  C   C1038     1.0  0.56063  0.04484  0.54333  1.0000
  C   C1039     1.0  0.63050  0.99459  0.46758  1.0000
  C   C1040     1.0  0.60721  0.04386  0.35095  1.0000
  H   H1046     1.0  0.80108  0.14573  0.33627  1.0000
  C   C1041     1.0  0.65333  0.06120  0.32495  1.0000
  C   C1042     1.0  0.84453  0.08877  0.64349  1.0000
  C   C1043     1.0  0.76711  0.23161  0.37636  1.0000
  N   N86       1.0  0.75419  0.14127  0.31915  1.0000
  C   C1044     1.0  0.64289  0.00352  0.32228  1.0000
  H   H1047     1.0  0.76391  0.11077  0.32410  1.0000
  C   C1045     1.0  0.75810  0.15916  0.31956  1.0000
  C   C1046     1.0  0.62648  0.08704  0.32031  1.0000
  H   H1048     1.0  0.75278  0.23057  0.38568  1.0000
  H   H1049     1.0  0.59840  0.08018  0.33378  1.0000
  H   H1050     1.0  0.82044  0.17332  0.63957  1.0000
  N   N87       1.0  0.66351  0.99482  0.42361  1.0000
  H   H1051     1.0  0.84332  0.14282  0.64725  1.0000
  C   C1047     1.0  0.82516  0.09764  0.64681  1.0000
  H   H1052     1.0  0.87433  0.16212  0.31539  1.0000
  Fe  Fe179     1.0  0.83867  0.11319  0.75070  1.0000
  S   S356      1.0  0.86484  0.09187  0.74203  1.0000
  S   S357      1.0  0.81098  0.10186  0.76403  1.0000
  Fe  Fe180     1.0  0.85903  0.14723  0.73217  1.0000
  S   S358      1.0  0.88652  0.12842  0.72132  1.0000
  S   S359      1.0  0.85621  0.17935  0.72280  1.0000
  Fe  Fe181     1.0  0.86626  0.11166  0.71332  1.0000
  S   S360      1.0  0.86943  0.10039  0.68512  1.0000
  Fe  Fe182     1.0  0.88202  0.11093  0.75138  1.0000
  S   S361      1.0  0.90420  0.09749  0.77171  1.0000
  S   S362      1.0  0.83944  0.13202  0.72170  1.0000
  S   S363      1.0  0.85524  0.13072  0.76248  1.0000
  H   H1053     1.0  0.65566  0.19387  0.80573  1.0000
  C   C1048     1.0  0.65092  0.14669  0.84607  1.0000
  S   S364      1.0  0.96660  0.10473  0.85683  1.0000
  S   S365      1.0  0.96573  0.13327  0.80209  1.0000
  Fe  Fe183     1.0  0.96819  0.12763  0.87380  1.0000
  S   S366      1.0  0.94120  0.13951  0.89382  1.0000
  C   C1049     1.0  0.71880  0.19569  0.84102  1.0000
  Fe  Fe184     1.0  0.71980  0.15136  0.88353  1.0000
  S   S367      1.0  0.71903  0.12045  0.89725  1.0000
  S   S368      1.0  0.70165  0.17630  0.89684  1.0000
  Fe  Fe185     1.0  0.74900  0.14078  0.84937  1.0000
  S   S369      1.0  0.75161  0.10881  0.86059  1.0000
  S   S370      1.0  0.76390  0.15681  0.82207  1.0000
  Fe  Fe186     1.0  0.71893  0.11527  0.86712  1.0000
  S   S371      1.0  0.69975  0.09532  0.86202  1.0000
  Fe  Fe187     1.0  0.75159  0.11693  0.88964  1.0000
  S   S372      1.0  0.76976  0.10021  0.91254  1.0000
  S   S373      1.0  0.71653  0.14662  0.85431  1.0000
  S   S374      1.0  0.75213  0.14819  0.87746  1.0000
  C   C1050     1.0  0.71582  0.07473  0.80560  1.0000
  C   C1051     1.0  0.97021  0.06189  0.80351  1.0000
  C   C1052     1.0  0.71579  0.22706  0.81943  1.0000
  H   H1054     1.0  0.62397  0.10978  0.70490  1.0000
  N   N88       1.0  0.72737  0.08753  0.80681  1.0000
  S   S375      1.0  0.72544  0.07729  0.68300  1.0000
  Fe  Fe188     1.0  0.63552  0.09997  0.77801  1.0000
  S   S376      1.0  0.63728  0.13136  0.77038  1.0000
  S   S377      1.0  0.65214  0.08092  0.80075  1.0000
  Fe  Fe189     1.0  0.60892  0.10197  0.74732  1.0000
  S   S378      1.0  0.60903  0.13387  0.73783  1.0000
  S   S379      1.0  0.59825  0.08344  0.72991  1.0000
  Fe  Fe190     1.0  0.64074  0.12706  0.73975  1.0000
  S   S380      1.0  0.66273  0.14135  0.71750  1.0000
  Fe  Fe191     1.0  0.60554  0.13498  0.76960  1.0000
  S   S381      1.0  0.58839  0.15888  0.78492  1.0000
  S   S382      1.0  0.64119  0.09504  0.74715  1.0000
  S   S383      1.0  0.60312  0.10348  0.77938  1.0000
  Fe  Fe192     1.0  0.51054  0.07994  0.67306  1.0000
  H   H1055     1.0  0.55838  0.06961  0.78754  1.0000
  S   S384      1.0  0.51875  0.08885  0.69930  1.0000
  S   S385      1.0  0.77396  0.23333  0.66737  1.0000
  H   H1056     1.0  0.83350  0.09263  0.71713  1.0000
  C   C1053     1.0  0.85757  0.09002  0.65534  1.0000
  C   C1054     1.0  0.57712  0.08784  0.71874  1.0000
  C   C1055     1.0  0.57599  0.07601  0.70552  1.0000
  C   C1056     1.0  0.55865  0.07713  0.69826  1.0000
  C   C1057     1.0  0.54204  0.08987  0.70445  1.0000
  C   C1058     1.0  0.54338  0.10217  0.71715  1.0000
  C   C1059     1.0  0.56084  0.10135  0.72407  1.0000
  H   H1057     1.0  0.58844  0.06547  0.70128  1.0000
  H   H1058     1.0  0.55786  0.06746  0.68864  1.0000
  H   H1059     1.0  0.53066  0.11208  0.72206  1.0000
  H   H1060     1.0  0.56143  0.11065  0.73412  1.0000
  C   C1060     1.0  0.59841  0.17986  0.77467  1.0000
  C   C1061     1.0  0.59706  0.19443  0.78564  1.0000
  C   C1062     1.0  0.60617  0.21063  0.77772  1.0000
  H   H1061     1.0  0.95011  0.06058  0.78482  1.0000
  C   C1063     1.0  0.61709  0.19815  0.74763  1.0000
  C   C1064     1.0  0.60855  0.18171  0.75573  1.0000
  H   H1062     1.0  0.58925  0.19302  0.80031  1.0000
  H   H1063     1.0  0.56476  0.08788  0.76692  1.0000
  H   H1064     1.0  0.64203  0.07644  0.70850  1.0000
  H   H1065     1.0  0.60960  0.17060  0.74716  1.0000
  C   C1065     1.0  0.71083  0.09577  0.69458  1.0000
  C   C1066     1.0  0.70864  0.11482  0.68471  1.0000
  C   C1067     1.0  0.69458  0.12909  0.69237  1.0000
  C   C1068     1.0  0.68272  0.12440  0.71005  1.0000
  C   C1069     1.0  0.68609  0.10579  0.72079  1.0000
  C   C1070     1.0  0.70001  0.09138  0.71298  1.0000
  H   H1066     1.0  0.71709  0.11855  0.67072  1.0000
  H   H1067     1.0  0.69228  0.14346  0.68401  1.0000
  H   H1068     1.0  0.67787  0.10245  0.73500  1.0000
  H   H1069     1.0  0.70199  0.07678  0.72092  1.0000
  C   C1071     1.0  0.66414  0.08738  0.81756  1.0000
  C   C1072     1.0  0.66726  0.07358  0.83394  1.0000
  C   C1073     1.0  0.67781  0.07672  0.84729  1.0000
  C   C1074     1.0  0.68591  0.09358  0.84445  1.0000
  C   C1075     1.0  0.68302  0.10763  0.82798  1.0000
  C   C1076     1.0  0.67195  0.10460  0.81460  1.0000
  H   H1070     1.0  0.66149  0.06020  0.83636  1.0000
  H   H1071     1.0  0.67992  0.06576  0.85988  1.0000
  H   H1072     1.0  0.68929  0.12069  0.82555  1.0000
  H   H1073     1.0  0.66992  0.11527  0.80182  1.0000
  C   C1077     1.0  0.78303  0.11045  0.92548  1.0000
  C   C1078     1.0  0.78521  0.12995  0.92090  1.0000
  C   C1079     1.0  0.79527  0.13766  0.93194  1.0000
  C   C1080     1.0  0.80317  0.12605  0.94778  1.0000
  H   H1074     1.0  0.77907  0.13913  0.90889  1.0000
  H   H1075     1.0  0.79667  0.15283  0.92835  1.0000
  C   C1081     1.0  0.64185  0.18855  0.80638  1.0000
  C   C1082     1.0  0.74429  0.20488  0.90068  1.0000
  C   C1083     1.0  0.73430  0.19028  0.89927  1.0000
  C   C1084     1.0  0.71454  0.19455  0.89797  1.0000
  H   H1076     1.0  0.62424  0.16026  0.80199  1.0000
  C   C1085     1.0  0.63787  0.10645  0.69580  1.0000
  H   H1077     1.0  0.75953  0.20145  0.90187  1.0000
  H   H1078     1.0  0.74177  0.17563  0.90013  1.0000
  C   C1086     1.0  0.96146  0.06776  0.78692  1.0000
  C   C1087     1.0  0.64109  0.13337  0.84178  1.0000
  C   C1088     1.0  0.93139  0.12943  0.91759  1.0000
  C   C1089     1.0  0.91316  0.13824  0.92615  1.0000
  C   C1090     1.0  0.90461  0.13064  0.94491  1.0000
  C   C1091     1.0  0.91441  0.11435  0.95548  1.0000
  C   C1092     1.0  0.93272  0.10567  0.94703  1.0000
  C   C1093     1.0  0.94112  0.11304  0.92810  1.0000
  H   H1079     1.0  0.90554  0.15092  0.91810  1.0000
  H   H1080     1.0  0.78973  0.08363  0.94471  1.0000
  H   H1081     1.0  0.94044  0.09308  0.95511  1.0000
  H   H1082     1.0  0.95518  0.10617  0.92171  1.0000
  C   C1094     1.0  0.85163  0.10019  0.67087  1.0000
  C   C1095     1.0  0.83223  0.10950  0.67426  1.0000
  C   C1096     1.0  0.70202  0.19308  0.68640  1.0000
  H   H1083     1.0  0.64122  0.11912  0.85062  1.0000
  C   C1097     1.0  0.85588  0.15434  0.66675  1.0000
  H   H1084     1.0  0.71947  0.19136  0.85673  1.0000
  H   H1085     1.0  0.82746  0.11762  0.68607  1.0000
  H   H1086     1.0  0.86538  0.16962  0.68523  1.0000
  H   H1087     1.0  0.67016  0.12778  0.66053  1.0000
  C   C1098     1.0  0.81898  0.10824  0.66220  1.0000
  C   C1099     1.0  0.79723  0.11738  0.77959  1.0000
  C   C1100     1.0  0.80079  0.13632  0.77747  1.0000
  C   C1101     1.0  0.79024  0.14850  0.79037  1.0000
  C   C1102     1.0  0.77633  0.14167  0.80557  1.0000
  C   C1103     1.0  0.77251  0.12285  0.80747  1.0000
  C   C1104     1.0  0.78286  0.11073  0.79439  1.0000
  H   H1088     1.0  0.81173  0.14157  0.76592  1.0000
  H   H1089     1.0  0.79317  0.16307  0.78884  1.0000
  H   H1090     1.0  0.76171  0.11763  0.81910  1.0000
  H   H1091     1.0  0.78024  0.09604  0.79606  1.0000
  C   C1105     1.0  0.91896  0.10954  0.78121  1.0000
  C   C1106     1.0  0.92432  0.10174  0.79948  1.0000
  C   C1107     1.0  0.93798  0.10931  0.80650  1.0000
  C   C1108     1.0  0.94681  0.12453  0.79509  1.0000
  C   C1109     1.0  0.94125  0.13251  0.77695  1.0000
  C   C1110     1.0  0.92726  0.12524  0.77014  1.0000
  H   H1092     1.0  0.91807  0.08953  0.80812  1.0000
  H   H1093     1.0  0.94209  0.10299  0.82046  1.0000
  H   H1094     1.0  0.94809  0.14416  0.76791  1.0000
  H   H1095     1.0  0.92353  0.13121  0.75595  1.0000
  C   C1111     1.0  0.86325  0.19178  0.73837  1.0000
  C   C1112     1.0  0.86483  0.21134  0.73232  1.0000
  H   H1096     1.0  0.73915  0.13071  0.92562  1.0000
  N   N89       1.0  0.64178  0.16941  0.81844  1.0000
  C   C1113     1.0  0.87038  0.19351  0.76975  1.0000
  C   C1114     1.0  0.86639  0.18276  0.75698  1.0000
  H   H1097     1.0  0.86273  0.21827  0.71781  1.0000
  S   S386      1.0  0.51669  0.05109  0.66281  1.0000
  H   H1098     1.0  0.87237  0.18662  0.78430  1.0000
  H   H1099     1.0  0.86534  0.16765  0.76171  1.0000
  H   H1100     1.0  0.62967  0.19904  0.81252  1.0000
  H   H1101     1.0  0.70365  0.19556  0.83931  1.0000
  C   C1115     1.0  0.56492  0.07211  0.77200  1.0000
  H   H1102     1.0  0.76583  0.09192  0.71549  1.0000
  C   C1116     1.0  0.73459  0.22387  0.90057  1.0000
  H   H1103     1.0  0.64043  0.18814  0.79124  1.0000
  C   C1117     1.0  0.72110  0.10570  0.77593  1.0000
  C   C1118     1.0  0.69734  0.21788  0.70544  1.0000
  C   C1119     1.0  0.73680  0.08514  0.82380  1.0000
  H   H1104     1.0  0.71321  0.06286  0.81736  1.0000
  H   H1105     1.0  0.73344  0.09880  0.82987  1.0000
  H   H1106     1.0  0.73149  0.07379  0.83563  1.0000
  H   H1107     1.0  0.75276  0.08124  0.81982  1.0000
  C   C1120     1.0  0.68503  0.18659  0.69678  1.0000
  H   H1108     1.0  0.56019  0.03217  0.73010  1.0000
  C   C1121     1.0  0.56305  0.05005  0.75018  1.0000
  C   C1122     1.0  0.82041  0.22141  0.76651  1.0000
  H   H1109     1.0  0.71599  0.13254  0.94140  1.0000
  H   H1110     1.0  0.94423  0.18533  0.81409  1.0000
  H   H1111     1.0  0.66758  0.05290  0.68884  1.0000
  C   C1123     1.0  0.86890  0.22205  0.74505  1.0000
  H   H1112     1.0  0.57829  0.04424  0.75021  1.0000
  C   C1124     1.0  0.73190  0.13104  0.94083  1.0000
  C   C1125     1.0  0.74873  0.17865  0.95686  1.0000
  H   H1113     1.0  0.62458  0.19963  0.73284  1.0000
  N   N90       1.0  0.81436  0.07675  0.71028  1.0000
  C   C1126     1.0  0.70650  0.07721  0.78955  1.0000
  C   C1127     1.0  0.91987  0.18191  0.77887  1.0000
  H   H1114     1.0  0.68156  0.06055  0.70378  1.0000
  H   H1115     1.0  0.63831  0.13586  0.68133  1.0000
  C   C1128     1.0  0.79128  0.09875  0.94108  1.0000
  H   H1116     1.0  0.68823  0.22206  0.85788  1.0000
  C   C1129     1.0  0.93728  0.18963  0.80133  1.0000
  H   H1117     1.0  0.96572  0.04982  0.81414  1.0000
  H   H1118     1.0  0.73948  0.11285  0.79312  1.0000
  C   C1130     1.0  0.73024  0.10276  0.79217  1.0000
  C   C1131     1.0  0.80130  0.10648  0.95219  1.0000
  C   C1132     1.0  0.85561  0.17057  0.67507  1.0000
  H   H1119     1.0  0.68943  0.21686  0.89748  1.0000
  C   C1133     1.0  0.73913  0.21974  0.84054  1.0000
  H   H1120     1.0  0.80344  0.06290  0.67152  1.0000
  H   H1121     1.0  0.69675  0.06745  0.78900  1.0000
  H   H1122     1.0  0.89051  0.13746  0.95121  1.0000
  H   H1123     1.0  0.88149  0.12645  0.89137  1.0000
  H   H1124     1.0  0.92408  0.16412  0.95273  1.0000
  C   C1134     1.0  0.70908  0.09287  0.77470  1.0000
  H   H1125     1.0  0.80407  0.11531  0.66484  1.0000
  H   H1126     1.0  0.72318  0.11795  0.76448  1.0000
  N   N91       1.0  0.55413  0.06455  0.76044  1.0000
  H   H1127     1.0  0.84902  0.10954  0.94694  1.0000
  C   C1135     1.0  0.53361  0.05128  0.73777  1.0000
  C   C1136     1.0  0.91971  0.20076  0.76863  1.0000
  H   H1128     1.0  0.70155  0.09517  0.76240  1.0000
  C   C1137     1.0  0.52460  0.06595  0.74836  1.0000
  C   C1138     1.0  0.72560  0.21536  0.67961  1.0000
  C   C1139     1.0  0.93664  0.20845  0.79088  1.0000
  C   C1140     1.0  0.84635  0.13268  0.91331  1.0000
  C   C1141     1.0  0.61614  0.21251  0.75867  1.0000
  N   N92       1.0  0.72442  0.21479  0.83375  1.0000
  H   H1129     1.0  0.71506  0.16785  0.93483  1.0000
  H   H1130     1.0  0.68996  0.06170  0.67834  1.0000
  N   N93       1.0  0.84322  0.18738  0.67047  1.0000
  C   C1142     1.0  0.79628  0.08506  0.71802  1.0000
  C   C1143     1.0  0.89672  0.10437  0.91047  1.0000
  H   H1131     1.0  0.70202  0.23016  0.70890  1.0000
  H   H1132     1.0  0.84458  0.06882  0.71276  1.0000
  H   H1133     1.0  0.65843  0.17524  0.83784  1.0000
  H   H1134     1.0  0.58042  0.06522  0.77055  1.0000
  H   H1135     1.0  0.73685  0.11689  0.94959  1.0000
  C   C1144     1.0  0.86239  0.10808  0.93660  1.0000
  C   C1145     1.0  0.80121  0.06869  0.68491  1.0000
  H   H1136     1.0  0.82823  0.07195  0.73505  1.0000
  S   S387      1.0  0.75715  0.11329  0.65584  1.0000
  C   C1146     1.0  0.64816  0.08758  0.69772  1.0000
  C   C1147     1.0  0.78268  0.07695  0.69280  1.0000
  C   C1148     1.0  0.87132  0.21324  0.76386  1.0000
  H   H1137     1.0  0.87772  0.08640  0.95644  1.0000
  H   H1138     1.0  0.84956  0.14211  0.89911  1.0000
  C   C1149     1.0  0.65096  0.16484  0.83428  1.0000
  C   C1150     1.0  0.63186  0.15654  0.81430  1.0000
  C   C1151     1.0  0.78016  0.08523  0.70944  1.0000
  H   H1139     1.0  0.77033  0.07716  0.68587  1.0000
  H   H1140     1.0  0.60514  0.22178  0.78625  1.0000
  Fe  Fe193     1.0  0.97761  0.12519  0.83071  1.0000
  H   H1141     1.0  0.98441  0.10611  0.76662  1.0000
  C   C1152     1.0  0.64580  0.12102  0.68240  1.0000
  C   C1153     1.0  0.63148  0.13830  0.82581  1.0000
  H   H1142     1.0  0.83225  0.20315  0.69349  1.0000
  C   C1154     1.0  0.81699  0.06868  0.69390  1.0000
  C   C1155     1.0  0.70478  0.21351  0.89821  1.0000
  S   S388      1.0  0.87530  0.22670  0.78023  1.0000
  H   H1143     1.0  0.71033  0.18577  0.67468  1.0000
  H   H1144     1.0  0.90834  0.08305  0.93294  1.0000
  H   H1145     1.0  0.83143  0.06280  0.68728  1.0000
  H   H1146     1.0  0.91027  0.10347  0.90034  1.0000
  H   H1147     1.0  0.79435  0.09177  0.73082  1.0000
  H   H1148     1.0  0.74597  0.20998  0.85188  1.0000
  C   C1156     1.0  0.83099  0.07746  0.71923  1.0000
  C   C1157     1.0  0.55292  0.04317  0.73875  1.0000
  H   H1149     1.0  0.80728  0.09736  0.96432  1.0000
  H   H1150     1.0  0.65858  0.14291  0.85837  1.0000
  N   N94       1.0  0.92808  0.21373  0.77465  1.0000
  N   N95       1.0  0.66580  0.08332  0.68644  1.0000
  C   C1158     1.0  0.67350  0.09745  0.67295  1.0000
  C   C1159     1.0  0.68020  0.21186  0.71600  1.0000
  C   C1160     1.0  0.89565  0.09293  0.92877  1.0000
  H   H1151     1.0  0.98182  0.06941  0.83687  1.0000
  H   H1152     1.0  0.52819  0.08421  0.76749  1.0000
  C   C1161     1.0  0.75845  0.15993  0.96200  1.0000
  H   H1153     1.0  0.86578  0.14106  0.67039  1.0000
  N   N96       1.0  0.80871  0.22269  0.75309  1.0000
  C   C1162     1.0  0.96685  0.08353  0.77338  1.0000
  C   C1163     1.0  0.67672  0.06363  0.68946  1.0000
  C   C1164     1.0  0.84272  0.20406  0.67975  1.0000
  C   C1165     1.0  0.87844  0.09484  0.94199  1.0000
  H   H1154     1.0  0.82070  0.20862  0.72906  1.0000
  C   C1166     1.0  0.89916  0.17844  0.97022  1.0000
  C   C1167     1.0  0.88042  0.11751  0.90558  1.0000
  H   H1155     1.0  0.83486  0.12447  0.91248  1.0000
  H   H1156     1.0  0.77110  0.15753  0.96907  1.0000
  C   C1168     1.0  0.53512  0.07241  0.75975  1.0000
  C   C1169     1.0  0.98078  0.09327  0.77660  1.0000
  H   H1157     1.0  0.68026  0.17437  0.69329  1.0000
  N   N97       1.0  0.86354  0.11920  0.91860  1.0000
  H   H1158     1.0  0.67162  0.21950  0.72737  1.0000
  H   H1159     1.0  0.87246  0.08290  0.65244  1.0000
  H   H1160     1.0  0.84059  0.14225  0.92437  1.0000
  H   H1161     1.0  0.72537  0.19600  0.94290  1.0000
  H   H1162     1.0  0.62392  0.12799  0.82223  1.0000
  C   C1170     1.0  0.83042  0.17239  0.64950  1.0000
  S   S389      1.0  0.97796  0.14883  0.84730  1.0000
  C   C1171     1.0  0.67412  0.19601  0.71168  1.0000
  Fe  Fe194     1.0  0.73899  0.09163  0.65409  1.0000
  N   N98       1.0  0.70808  0.20842  0.69098  1.0000
  H   H1163     1.0  0.72877  0.18479  0.83307  1.0000
  H   H1164     1.0  0.92889  0.16182  0.80346  1.0000
  H   H1165     1.0  0.73696  0.20314  0.67552  1.0000
  S   S390      1.0  0.81460  0.13704  0.96177  1.0000
  H   H1166     1.0  0.81570  0.19241  0.75150  1.0000
  S   S391      1.0  0.90445  0.10455  0.97931  1.0000
  H   H1167     1.0  0.91242  0.20510  0.75611  1.0000
  S   S392      1.0  0.66249  0.21698  0.83314  1.0000
  C   C1172     1.0  0.75224  0.14429  0.95727  1.0000
  N   N99       1.0  0.73685  0.14723  0.94761  1.0000
  H   H1168     1.0  0.83829  0.21795  0.67031  1.0000
  C   C1173     1.0  0.81032  0.20647  0.74281  1.0000
  H   H1169     1.0  0.70410  0.22311  0.81408  1.0000
  N   N100      1.0  0.98397  0.07145  0.80649  1.0000
  C   C1174     1.0  0.72707  0.16550  0.94278  1.0000
  H   H1170     1.0  0.75368  0.19097  0.95997  1.0000
  H   H1171     1.0  0.52583  0.04679  0.72821  1.0000
  C   C1175     1.0  0.66364  0.11650  0.67073  1.0000
  C   C1176     1.0  0.83052  0.18835  0.65809  1.0000
  H   H1172     1.0  0.79609  0.20546  0.73929  1.0000
  C   C1177     1.0  0.92872  0.17636  0.79531  1.0000
  H   H1173     1.0  0.85716  0.20449  0.68319  1.0000
  H   H1174     1.0  0.89661  0.19058  0.95872  1.0000
  H   H1175     1.0  0.66093  0.19106  0.71981  1.0000
  H   H1176     1.0  0.73197  0.22354  0.68785  1.0000
  H   H1177     1.0  0.76024  0.12984  0.96080  1.0000
  H   H1178     1.0  0.95962  0.08867  0.76083  1.0000
  H   H1179     1.0  0.68766  0.09419  0.66425  1.0000
  H   H1180     1.0  0.82038  0.20153  0.65474  1.0000
  H   H1181     1.0  0.83028  0.20816  0.77019  1.0000
  C   C1178     1.0  0.84324  0.15531  0.65383  1.0000
  C   C1179     1.0  0.73282  0.18147  0.94734  1.0000
  H   H1182     1.0  0.50983  0.07284  0.74701  1.0000
  H   H1183     1.0  0.91297  0.17174  0.77420  1.0000
  C   C1180     1.0  0.71483  0.22819  0.89931  1.0000
  H   H1184     1.0  0.94291  0.21884  0.79588  1.0000
  C   C1181     1.0  0.91475  0.16359  0.96674  1.0000
  H   H1185     1.0  0.72201  0.22526  0.66624  1.0000
  C   C1182     1.0  0.98909  0.08714  0.79343  1.0000
  H   H1186     1.0  0.92960  0.13578  0.97862  1.0000
  C   C1183     1.0  0.66076  0.23377  0.84853  1.0000
  C   C1184     1.0  0.67637  0.23400  0.85761  1.0000
  S   S393      1.0  0.66794  0.23217  0.77648  1.0000
  S   S394      1.0  0.62720  0.23280  0.74819  1.0000
  C   C1185     1.0  0.92668  0.23378  0.76449  1.0000
  C   C1186     1.0  0.88437  0.26407  0.20718  1.0000
  Fe  Fe195     1.0  0.64485  0.45319  0.13557  1.0000
  S   S395      1.0  0.67050  0.45483  0.11182  1.0000
  S   S396      1.0  0.65102  0.43912  0.16557  1.0000
  Fe  Fe196     1.0  0.65027  0.44974  0.09305  1.0000
  S   S397      1.0  0.65812  0.42570  0.07449  1.0000
  S   S398      1.0  0.62538  0.44632  0.11746  1.0000
  Fe  Fe197     1.0  0.68800  0.32961  0.21006  1.0000
  S   S399      1.0  0.71212  0.30764  0.19803  1.0000
  S   S400      1.0  0.67094  0.34747  0.18710  1.0000
  Fe  Fe198     1.0  0.69590  0.31415  0.25131  1.0000
  S   S401      1.0  0.72064  0.29155  0.24239  1.0000
  H   H1187     1.0  0.74179  0.36187  0.26987  1.0000
  Fe  Fe199     1.0  0.72901  0.31488  0.21804  1.0000
  S   S402      1.0  0.76006  0.31796  0.20747  1.0000
  Fe  Fe200     1.0  0.70135  0.28652  0.22341  1.0000
  S   S403      1.0  0.70192  0.25569  0.22091  1.0000
  S   S404      1.0  0.70595  0.33846  0.22841  1.0000
  S   S405      1.0  0.67563  0.30746  0.23400  1.0000
  Fe  Fe201     1.0  0.85682  0.36596  0.25426  1.0000
  S   S406      1.0  0.84723  0.34485  0.28028  1.0000
  S   S407      1.0  0.85704  0.39586  0.26120  1.0000
  Fe  Fe202     1.0  0.85686  0.33722  0.22640  1.0000
  S   S408      1.0  0.84805  0.31434  0.25094  1.0000
  S   S409      1.0  0.86018  0.33038  0.19583  1.0000
  Fe  Fe203     1.0  0.82718  0.33846  0.26281  1.0000
  S   S410      1.0  0.79654  0.33425  0.27463  1.0000
  Fe  Fe204     1.0  0.86906  0.32293  0.26575  1.0000
  S   S411      1.0  0.88737  0.29965  0.28325  1.0000
  S   S412      1.0  0.83462  0.36130  0.23756  1.0000
  S   S413      1.0  0.88016  0.34416  0.24038  1.0000
  H   H1188     1.0  0.60615  0.28421  0.02462  1.0000
  S   S414      1.0  0.60325  0.32459  0.00050  1.0000
  S   S415      1.0  0.68652  0.31697  0.28268  1.0000
  Fe  Fe205     1.0  0.60774  0.37487  0.01148  1.0000
  S   S416      1.0  0.62523  0.34740  0.02407  1.0000
  S   S417      1.0  0.60924  0.40466  0.01784  1.0000
  Fe  Fe206     1.0  0.59780  0.33499  0.02904  1.0000
  S   S418      1.0  0.58967  0.31505  0.05700  1.0000
  S   S419      1.0  0.57952  0.36315  0.01838  1.0000
  C   C1187     1.0  0.64157  0.24965  0.04015  1.0000
  S   S420      1.0  0.77429  0.25599  0.12006  1.0000
  S   S421      1.0  0.83878  0.25366  0.17742  1.0000
  C   C1188     1.0  0.76803  0.27262  0.19871  1.0000
  C   C1189     1.0  0.61310  0.27124  0.03292  1.0000
  S   S422      1.0  0.65882  0.25245  0.08461  1.0000
  H   H1189     1.0  0.86551  0.27186  0.26676  1.0000
  S   S423      1.0  0.61447  0.36761  0.98121  1.0000
  C   C1190     1.0  0.89891  0.39769  0.29249  1.0000
  Fe  Fe207     1.0  0.61686  0.47860  0.10952  1.0000
  H   H1190     1.0  0.60218  0.45574  0.08125  1.0000
  H   H1191     1.0  0.91337  0.39017  0.29409  1.0000
  C   C1191     1.0  0.75280  0.37157  0.26410  1.0000
  H   H1192     1.0  0.84574  0.30573  0.29167  1.0000
  H   H1193     1.0  0.73544  0.25848  0.11270  1.0000
  C   C1192     1.0  0.67106  0.25988  0.27130  1.0000
  C   C1193     1.0  0.69999  0.27888  0.29885  1.0000
  H   H1194     1.0  0.74901  0.26286  0.15524  1.0000
  C   C1194     1.0  0.60930  0.29942  0.06637  1.0000
  C   C1195     1.0  0.60592  0.28622  0.08357  1.0000
  C   C1196     1.0  0.62122  0.27229  0.09004  1.0000
  C   C1197     1.0  0.63992  0.27153  0.07924  1.0000
  C   C1198     1.0  0.64338  0.28522  0.06252  1.0000
  C   C1199     1.0  0.62815  0.29906  0.05608  1.0000
  H   H1195     1.0  0.59136  0.28641  0.09161  1.0000
  H   H1196     1.0  0.61840  0.26173  0.10292  1.0000
  H   H1197     1.0  0.65782  0.28471  0.05416  1.0000
  H   H1198     1.0  0.63093  0.30893  0.04274  1.0000
  H   H1199     1.0  0.76443  0.36662  0.27318  1.0000
  H   H1200     1.0  0.74612  0.38666  0.26575  1.0000
  H   H1201     1.0  0.65061  0.28684  0.01872  1.0000
  H   H1202     1.0  0.51163  0.36080  0.98511  1.0000
  C   C1200     1.0  0.77525  0.36835  0.20500  1.0000
  C   C1201     1.0  0.75182  0.26336  0.20199  1.0000
  C   C1202     1.0  0.84318  0.27612  0.18152  1.0000
  C   C1203     1.0  0.85134  0.28967  0.16679  1.0000
  C   C1204     1.0  0.85595  0.30649  0.17129  1.0000
  C   C1205     1.0  0.85228  0.31007  0.19048  1.0000
  C   C1206     1.0  0.84342  0.29685  0.20503  1.0000
  C   C1207     1.0  0.83908  0.27996  0.20060  1.0000
  H   H1203     1.0  0.85462  0.28695  0.15203  1.0000
  H   H1204     1.0  0.86275  0.31660  0.15987  1.0000
  H   H1205     1.0  0.84021  0.29939  0.21978  1.0000
  H   H1206     1.0  0.83267  0.26968  0.21212  1.0000
  C   C1208     1.0  0.68252  0.25301  0.21057  1.0000
  C   C1209     1.0  0.89490  0.29213  0.21317  1.0000
  H   H1207     1.0  0.69142  0.44790  0.15040  1.0000
  H   H1208     1.0  0.60237  0.23799  0.07289  1.0000
  C   C1210     1.0  0.64914  0.26252  0.20527  1.0000
  C   C1211     1.0  0.66460  0.26510  0.21349  1.0000
  H   H1209     1.0  0.68772  0.44509  0.17636  1.0000
  C   C1212     1.0  0.66982  0.23636  0.19063  1.0000
  H   H1210     1.0  0.63527  0.27185  0.20755  1.0000
  H   H1211     1.0  0.66253  0.27629  0.22221  1.0000
  C   C1213     1.0  0.78725  0.32683  0.25684  1.0000
  C   C1214     1.0  0.76805  0.32358  0.26036  1.0000
  C   C1215     1.0  0.75980  0.32012  0.24535  1.0000
  C   C1216     1.0  0.77087  0.31965  0.22690  1.0000
  C   C1217     1.0  0.79031  0.32198  0.22363  1.0000
  C   C1218     1.0  0.79845  0.32572  0.23855  1.0000
  H   H1212     1.0  0.75935  0.32440  0.27449  1.0000
  H   H1213     1.0  0.74472  0.31847  0.24795  1.0000
  H   H1214     1.0  0.79891  0.32167  0.20937  1.0000
  H   H1215     1.0  0.81317  0.32848  0.23556  1.0000
  C   C1219     1.0  0.64286  0.41978  0.06039  1.0000
  C   C1220     1.0  0.64477  0.40049  0.05760  1.0000
  C   C1221     1.0  0.63430  0.39551  0.04497  1.0000
  C   C1222     1.0  0.62205  0.40986  0.03470  1.0000
  C   C1223     1.0  0.62014  0.42913  0.03750  1.0000
  C   C1224     1.0  0.63033  0.43406  0.05039  1.0000
  H   H1216     1.0  0.65458  0.38936  0.06512  1.0000
  H   H1217     1.0  0.63597  0.38062  0.04295  1.0000
  H   H1218     1.0  0.61080  0.44038  0.02954  1.0000
  H   H1219     1.0  0.62905  0.44902  0.05203  1.0000
  C   C1225     1.0  0.65749  0.41367  0.17101  1.0000
  C   C1226     1.0  0.66445  0.40528  0.18838  1.0000
  C   C1227     1.0  0.66920  0.38502  0.19332  1.0000
  C   C1228     1.0  0.66669  0.37302  0.18102  1.0000
  C   C1229     1.0  0.65988  0.38144  0.16359  1.0000
  C   C1230     1.0  0.65547  0.40167  0.15850  1.0000
  H   H1220     1.0  0.66592  0.41445  0.19819  1.0000
  H   H1221     1.0  0.67425  0.37868  0.20685  1.0000
  H   H1222     1.0  0.65788  0.37228  0.15401  1.0000
  H   H1223     1.0  0.65013  0.40796  0.14510  1.0000
  C   C1231     1.0  0.89178  0.28127  0.20018  1.0000
  H   H1224     1.0  0.80511  0.28330  0.16511  1.0000
  C   C1232     1.0  0.86214  0.41764  0.28724  1.0000
  C   C1233     1.0  0.87010  0.40183  0.27752  1.0000
  C   C1234     1.0  0.88854  0.39183  0.28031  1.0000
  H   H1225     1.0  0.73242  0.25257  0.18857  1.0000
  H   H1226     1.0  0.68109  0.41091  0.03431  1.0000
  C   C1235     1.0  0.78701  0.37178  0.21703  1.0000
  H   H1227     1.0  0.89514  0.38010  0.27245  1.0000
  H   H1228     1.0  0.90322  0.32831  0.30301  1.0000
  C   C1236     1.0  0.61078  0.24533  0.06020  1.0000
  C   C1237     1.0  0.68505  0.23850  0.19935  1.0000
  N   N101      1.0  0.67267  0.40044  0.01165  1.0000
  S   S424      1.0  0.63320  0.24631  0.18177  1.0000
  C   C1238     1.0  0.77935  0.37291  0.23645  1.0000
  H   H1229     1.0  0.84799  0.42563  0.28504  1.0000
  C   C1239     1.0  0.64447  0.27642  0.01294  1.0000
  C   C1240     1.0  0.79377  0.28831  0.17696  1.0000
  N   N102      1.0  0.76056  0.37050  0.24369  1.0000
  C   C1241     1.0  0.77051  0.27466  0.16476  1.0000
  H   H1230     1.0  0.73394  0.36555  0.23761  1.0000
  H   H1231     1.0  0.80073  0.28575  0.19007  1.0000
  Fe  Fe208     1.0  0.62949  0.33904  0.99466  1.0000
  N   N103      1.0  0.77726  0.27797  0.18027  1.0000
  C   C1242     1.0  0.74500  0.25971  0.18627  1.0000
  C   C1243     1.0  0.65182  0.24826  0.19368  1.0000
  C   C1244     1.0  0.67759  0.41606  0.01944  1.0000
  H   H1232     1.0  0.74439  0.25930  0.21661  1.0000
  C   C1245     1.0  0.66449  0.37103  0.99567  1.0000
  N   N104      1.0  0.88355  0.26856  0.23983  1.0000
  C   C1246     1.0  0.88013  0.25798  0.22718  1.0000
  C   C1247     1.0  0.89077  0.28547  0.23307  1.0000
  H   H1233     1.0  0.90054  0.35340  0.30542  1.0000
  H   H1234     1.0  0.89988  0.30594  0.20784  1.0000
  C   C1248     1.0  0.73930  0.24463  0.12157  1.0000
  C   C1249     1.0  0.87871  0.26235  0.26078  1.0000
  C   C1250     1.0  0.89304  0.34228  0.30251  1.0000
  H   H1235     1.0  0.89306  0.29410  0.24309  1.0000
  C   C1251     1.0  0.85131  0.29528  0.30310  1.0000
  H   H1236     1.0  0.77771  0.27901  0.15010  1.0000
  H   H1237     1.0  0.65845  0.28882  0.27668  1.0000
  N   N105      1.0  0.69217  0.47312  0.16171  1.0000
  Fe  Fe209     1.0  0.83428  0.24088  0.15178  1.0000
  H   H1238     1.0  0.65662  0.26680  0.00553  1.0000
  C   C1252     1.0  0.75772  0.23958  0.12698  1.0000
  N   N106      1.0  0.63268  0.26523  0.02874  1.0000
  H   H1239     1.0  0.66516  0.42813  0.02068  1.0000
  H   H1240     1.0  0.78876  0.37495  0.24589  1.0000
  Fe  Fe210     1.0  0.58745  0.35368  0.98905  1.0000
  H   H1241     1.0  0.68528  0.35214  0.01186  1.0000
  S   S425      1.0  0.67150  0.23993  0.13610  1.0000
  C   C1253     1.0  0.65508  0.38999  0.99119  1.0000
  N   N107      1.0  0.67567  0.24086  0.27929  1.0000
  H   H1242     1.0  0.66123  0.35952  0.98954  1.0000
  H   H1243     1.0  0.69255  0.37858  0.02584  1.0000
  Fe  Fe211     1.0  0.80309  0.24104  0.12792  1.0000
  C   C1254     1.0  0.66211  0.24850  0.31097  1.0000
  H   H1244     1.0  0.63577  0.28479  0.00180  1.0000
  H   H1245     1.0  0.80214  0.37288  0.21154  1.0000
  N   N108      1.0  0.65770  0.29975  0.16064  1.0000
  C   C1255     1.0  0.66704  0.31491  0.15995  1.0000
  C   C1256     1.0  0.66807  0.28205  0.15777  1.0000
  C   C1257     1.0  0.68731  0.31233  0.15719  1.0000
  C   C1258     1.0  0.68835  0.27887  0.15502  1.0000
  C   C1259     1.0  0.69801  0.29414  0.15483  1.0000
  C   C1260     1.0  0.63646  0.30275  0.16346  1.0000
  H   H1246     1.0  0.65883  0.32910  0.16174  1.0000
  H   H1247     1.0  0.66059  0.27026  0.15776  1.0000
  H   H1248     1.0  0.69457  0.32437  0.15714  1.0000
  H   H1249     1.0  0.69646  0.26466  0.15307  1.0000
  H   H1250     1.0  0.71372  0.29192  0.15279  1.0000
  H   H1251     1.0  0.63082  0.28910  0.17037  1.0000
  H   H1252     1.0  0.63010  0.31355  0.17320  1.0000
  H   H1253     1.0  0.63143  0.30782  0.14928  1.0000
  C   C1261     1.0  0.66161  0.27364  0.28295  1.0000
  C   C1262     1.0  0.75430  0.26548  0.16755  1.0000
  H   H1254     1.0  0.70539  0.27598  0.28432  1.0000
  C   C1263     1.0  0.87242  0.42336  0.29962  1.0000
  H   H1255     1.0  0.71172  0.44612  0.16233  1.0000
  H   H1256     1.0  0.83449  0.47524  0.31216  1.0000
  H   H1257     1.0  0.77300  0.27583  0.21097  1.0000
  C   C1264     1.0  0.65708  0.26786  0.30291  1.0000
  C   C1265     1.0  0.69076  0.29759  0.30180  1.0000
  C   C1266     1.0  0.89101  0.41354  0.30216  1.0000
  H   H1258     1.0  0.67492  0.26453  0.25585  1.0000
  C   C1267     1.0  0.75597  0.36641  0.21239  1.0000
  C   C1268     1.0  0.65944  0.40462  0.99926  1.0000
  N   N109      1.0  0.58797  0.43200  0.08214  1.0000
  C   C1269     1.0  0.59900  0.41600  0.09085  1.0000
  C   C1270     1.0  0.57771  0.43045  0.06835  1.0000
  C   C1271     1.0  0.59965  0.39777  0.08609  1.0000
  C   C1272     1.0  0.57810  0.41245  0.06318  1.0000
  C   C1273     1.0  0.58910  0.39603  0.07218  1.0000
  C   C1274     1.0  0.58795  0.45094  0.08712  1.0000
  H   H1259     1.0  0.60769  0.41736  0.10126  1.0000
  H   H1260     1.0  0.56944  0.44320  0.06099  1.0000
  H   H1261     1.0  0.60870  0.38519  0.09276  1.0000
  H   H1262     1.0  0.57048  0.41132  0.05180  1.0000
  H   H1263     1.0  0.58992  0.38208  0.06789  1.0000
  H   H1264     1.0  0.57650  0.46228  0.08131  1.0000
  H   H1265     1.0  0.58518  0.45027  0.10309  1.0000
  S   S426      1.0  0.83157  0.25214  0.12027  1.0000
  C   C1275     1.0  0.63075  0.23939  0.05594  1.0000
  C   C1276     1.0  0.69607  0.45204  0.16280  1.0000
  H   H1266     1.0  0.86617  0.43562  0.30685  1.0000
  H   H1267     1.0  0.74689  0.36312  0.20331  1.0000
  C   C1277     1.0  0.74879  0.36762  0.23186  1.0000
  C   C1278     1.0  0.67801  0.36690  0.00824  1.0000
  C   C1279     1.0  0.87122  0.28883  0.30216  1.0000
  H   H1268     1.0  0.78121  0.36665  0.19014  1.0000
  H   H1269     1.0  0.78882  0.30411  0.17324  1.0000
  H   H1270     1.0  0.71916  0.47463  0.16960  1.0000
  H   H1271     1.0  0.87604  0.24714  0.26450  1.0000
  C   C1280     1.0  0.60186  0.26137  0.04865  1.0000
  C   C1281     1.0  0.68201  0.38189  0.01609  1.0000
  H   H1272     1.0  0.65176  0.41925  0.99594  1.0000
  H   H1273     1.0  0.69021  0.42175  0.00991  1.0000
  H   H1274     1.0  0.89436  0.28659  0.18473  1.0000
  H   H1275     1.0  0.65041  0.27852  0.31218  1.0000
  H   H1276     1.0  0.58650  0.26672  0.05236  1.0000
  S   S427      1.0  0.64087  0.48170  0.08417  1.0000
  S   S428      1.0  0.65725  0.32022  0.98434  1.0000
  H   H1277     1.0  0.66428  0.47566  0.15404  1.0000
  H   H1278     1.0  0.89080  0.26333  0.26813  1.0000
  H   H1279     1.0  0.88122  0.25591  0.19716  1.0000
  H   H1280     1.0  0.65722  0.24556  0.03761  1.0000
  H   H1281     1.0  0.55312  0.32429  0.98580  1.0000
  H   H1282     1.0  0.86370  0.37067  0.30915  1.0000
  C   C1282     1.0  0.67485  0.48318  0.15709  1.0000
  H   H1283     1.0  0.87387  0.24487  0.23246  1.0000
  H   H1284     1.0  0.88955  0.34638  0.28759  1.0000
  C   C1283     1.0  0.70544  0.48255  0.16589  1.0000
  H   H1285     1.0  0.70876  0.24935  0.31262  1.0000
  H   H1286     1.0  0.64421  0.39335  0.98178  1.0000
  H   H1287     1.0  0.71212  0.23531  0.12246  1.0000
  C   C1284     1.0  0.67156  0.23511  0.29889  1.0000
  Fe  Fe212     1.0  0.89717  0.44306  0.33718  1.0000
  S   S429      1.0  0.87417  0.43920  0.36332  1.0000
  H   H1288     1.0  0.82652  0.33659  0.35104  1.0000
  C   C1285     1.0  0.74883  0.25455  0.35337  1.0000
  C   C1286     1.0  0.79466  0.28586  0.55939  1.0000
  Fe  Fe213     1.0  0.89589  0.44292  0.38071  1.0000
  S   S430      1.0  0.90842  0.42259  0.40569  1.0000
  H   H1289     1.0  0.98055  0.31221  0.53873  1.0000
  C   C1287     1.0  0.87205  0.32331  0.32752  1.0000
  S   S431      1.0  0.91955  0.44490  0.35479  1.0000
  C   C1288     1.0  0.91064  0.34517  0.42162  1.0000
  H   H1290     1.0  0.89552  0.25698  0.47222  1.0000
  C   C1289     1.0  0.78520  0.29887  0.57175  1.0000
  S   S432      1.0  0.96221  0.34943  0.59322  1.0000
  C   C1290     1.0  0.78204  0.25608  0.35219  1.0000
  H   H1291     1.0  0.93976  0.44157  0.38735  1.0000
  S   S433      1.0  0.69694  0.24983  0.35458  1.0000
  Fe  Fe214     1.0  0.88017  0.30272  0.51863  1.0000
  S   S434      1.0  0.91015  0.28889  0.50693  1.0000
  S   S435      1.0  0.86196  0.28247  0.53926  1.0000
  Fe  Fe215     1.0  0.88425  0.34090  0.49115  1.0000
  S   S436      1.0  0.91460  0.32957  0.47825  1.0000
  S   S437      1.0  0.86711  0.36894  0.47785  1.0000
  Fe  Fe216     1.0  0.90273  0.30267  0.47750  1.0000
  S   S438      1.0  0.90592  0.29302  0.44815  1.0000
  Fe  Fe217     1.0  0.91864  0.31719  0.50920  1.0000
  S   S439      1.0  0.94643  0.31590  0.52156  1.0000
  S   S440      1.0  0.87233  0.31461  0.48931  1.0000
  S   S441      1.0  0.88874  0.33029  0.52227  1.0000
  C   C1291     1.0  0.80121  0.32386  0.55061  1.0000
  S   S442      1.0  0.77001  0.26306  0.62614  1.0000
  C   C1292     1.0  0.88311  0.24172  0.43430  1.0000
  H   H1292     1.0  0.86368  0.35027  0.44217  1.0000
  N   N110      1.0  0.76585  0.24802  0.36047  1.0000
  S   S443      1.0  0.81234  0.25057  0.64165  1.0000
  S   S444      1.0  0.88702  0.47534  0.37817  1.0000
  H   H1293     1.0  0.80407  0.33862  0.54756  1.0000
  Fe  Fe218     1.0  0.79211  0.27791  0.63340  1.0000
  S   S445      1.0  0.80397  0.30333  0.61375  1.0000
  C   C1293     1.0  0.80745  0.29217  0.54282  1.0000
  S   S446      1.0  0.83058  0.23682  0.40528  1.0000
  Fe  Fe219     1.0  0.83829  0.24006  0.37303  1.0000
  C   C1294     1.0  0.76399  0.27840  0.32948  1.0000
  C   C1295     1.0  0.85458  0.32159  0.34019  1.0000
  C   C1296     1.0  0.84813  0.28817  0.56120  1.0000
  C   C1297     1.0  0.84530  0.30674  0.56586  1.0000
  C   C1298     1.0  0.83232  0.31115  0.58256  1.0000
  C   C1299     1.0  0.82235  0.29696  0.59466  1.0000
  C   C1300     1.0  0.82600  0.27819  0.59044  1.0000
  C   C1301     1.0  0.83883  0.27383  0.57375  1.0000
  H   H1294     1.0  0.85258  0.31784  0.55632  1.0000
  H   H1295     1.0  0.82956  0.32569  0.58584  1.0000
  H   H1296     1.0  0.81829  0.26720  0.59958  1.0000
  H   H1297     1.0  0.84104  0.25941  0.57024  1.0000
  C   C1302     1.0  0.89592  0.27362  0.44359  1.0000
  C   C1303     1.0  0.86132  0.35687  0.31799  1.0000
  H   H1298     1.0  0.73606  0.24794  0.35973  1.0000
  H   H1299     1.0  0.93904  0.35017  0.40654  1.0000
  C   C1304     1.0  0.95834  0.34004  0.57308  1.0000
  C   C1305     1.0  0.93987  0.34472  0.56746  1.0000
  C   C1306     1.0  0.93600  0.33774  0.55163  1.0000
  C   C1307     1.0  0.95063  0.32600  0.54107  1.0000
  C   C1308     1.0  0.96908  0.32127  0.54673  1.0000
  C   C1309     1.0  0.97291  0.32815  0.56263  1.0000
  H   H1300     1.0  0.92848  0.35397  0.57531  1.0000
  H   H1301     1.0  0.92173  0.34154  0.54755  1.0000
  H   H1302     1.0  0.88295  0.31051  0.32631  1.0000
  H   H1303     1.0  0.95845  0.45848  0.35818  1.0000
  H   H1304     1.0  0.82300  0.29424  0.32002  1.0000
  H   H1305     1.0  0.83247  0.30516  0.51426  1.0000
  C   C1310     1.0  0.84508  0.27498  0.33427  1.0000
  H   H1306     1.0  0.79274  0.27080  0.56305  1.0000
  C   C1311     1.0  0.95005  0.45031  0.38881  1.0000
  H   H1307     1.0  0.89071  0.39161  0.38890  1.0000
  C   C1312     1.0  0.89638  0.37830  0.39775  1.0000
  C   C1313     1.0  0.88390  0.36802  0.41185  1.0000
  C   C1314     1.0  0.69466  0.26755  0.33375  1.0000
  C   C1315     1.0  0.68608  0.28634  0.33652  1.0000
  H   H1308     1.0  0.83531  0.32421  0.52571  1.0000
  Fe  Fe220     1.0  0.90972  0.47703  0.35153  1.0000
  H   H1309     1.0  0.94696  0.33098  0.63333  1.0000
  H   H1310     1.0  0.68077  0.28944  0.35103  1.0000
  C   C1316     1.0  0.87807  0.27485  0.31702  1.0000
  C   C1317     1.0  0.87858  0.38400  0.45789  1.0000
  C   C1318     1.0  0.86726  0.39827  0.44633  1.0000
  C   C1319     1.0  0.87609  0.41029  0.43024  1.0000
  C   C1320     1.0  0.89632  0.40829  0.42582  1.0000
  C   C1321     1.0  0.90757  0.39413  0.43747  1.0000
  C   C1322     1.0  0.89878  0.38195  0.45331  1.0000
  H   H1311     1.0  0.85162  0.40003  0.44985  1.0000
  H   H1312     1.0  0.86726  0.42119  0.42141  1.0000
  H   H1313     1.0  0.92322  0.39249  0.43419  1.0000
  H   H1314     1.0  0.90766  0.37126  0.46222  1.0000
  H   H1315     1.0  0.73400  0.27512  0.33241  1.0000
  C   C1323     1.0  0.84026  0.33786  0.34153  1.0000
  H   H1316     1.0  0.78174  0.32796  0.57735  1.0000
  H   H1317     1.0  0.67695  0.31555  0.32312  1.0000
  H   H1318     1.0  0.92614  0.38029  0.38549  1.0000
  C   C1324     1.0  0.92356  0.35522  0.40780  1.0000
  C   C1325     1.0  0.68398  0.30117  0.32068  1.0000
  H   H1319     1.0  0.96765  0.46545  0.42311  1.0000
  H   H1320     1.0  0.79426  0.27784  0.33032  1.0000
  H   H1321     1.0  0.85203  0.30764  0.34863  1.0000
  H   H1322     1.0  0.87928  0.29234  0.58790  1.0000
  N   N111      1.0  0.89113  0.35183  0.42371  1.0000
  C   C1326     1.0  0.86496  0.26790  0.33311  1.0000
  H   H1323     1.0  0.97374  0.43094  0.64329  1.0000
  H   H1324     1.0  0.89490  0.28614  0.41370  1.0000
  C   C1327     1.0  0.78135  0.27144  0.33666  1.0000
  Fe  Fe221     1.0  0.78921  0.23581  0.63675  1.0000
  H   H1325     1.0  0.65924  0.24405  0.32656  1.0000
  H   H1326     1.0  0.91629  0.33215  0.43089  1.0000
  N   N112      1.0  0.97367  0.47097  0.37424  1.0000
  C   C1328     1.0  0.95247  0.45233  0.40715  1.0000
  H   H1327     1.0  0.87605  0.32795  0.43361  1.0000
  H   H1328     1.0  0.96006  0.28061  0.54941  1.0000
  C   C1329     1.0  0.96079  0.45978  0.37240  1.0000
  H   H1329     1.0  0.87031  0.25762  0.34486  1.0000
  C   C1330     1.0  0.89232  0.27385  0.42484  1.0000
  C   C1331     1.0  0.87799  0.34119  0.43850  1.0000
  S   S447      1.0  0.98994  0.32139  0.63527  1.0000
  H   H1330     1.0  0.77599  0.29399  0.58516  1.0000
  N   N113      1.0  0.93029  0.27728  0.55938  1.0000
  C   C1332     1.0  0.91526  0.26838  0.55836  1.0000
  C   C1333     1.0  0.92746  0.29126  0.57073  1.0000
  C   C1334     1.0  0.89685  0.27339  0.56891  1.0000
  C   C1335     1.0  0.90906  0.29707  0.58098  1.0000
  C   C1336     1.0  0.89367  0.28802  0.58006  1.0000
  C   C1337     1.0  0.94950  0.27139  0.54843  1.0000
  H   H1331     1.0  0.91743  0.25741  0.54925  1.0000
  H   H1332     1.0  0.93939  0.29819  0.57176  1.0000
  H   H1333     1.0  0.88505  0.26613  0.56820  1.0000
  N   N114      1.0  0.87514  0.34076  0.31649  1.0000
  C   C1338     1.0  0.88662  0.24154  0.45306  1.0000
  H   H1334     1.0  0.79560  0.25067  0.35762  1.0000
  H   H1335     1.0  0.94312  0.35080  0.64663  1.0000
  C   C1339     1.0  0.83832  0.28860  0.31919  1.0000
  H   H1336     1.0  0.88415  0.33675  0.45210  1.0000
  C   C1340     1.0  0.91634  0.37197  0.39589  1.0000
  H   H1337     1.0  0.81536  0.28176  0.53372  1.0000
  H   H1338     1.0  0.76328  0.29032  0.31743  1.0000
  S   S448      1.0  0.82844  0.26832  0.35485  1.0000
  S   S449      1.0  0.88970  0.47560  0.33100  1.0000
  C   C1341     1.0  0.88569  0.25814  0.42028  1.0000
  H   H1339     1.0  0.88326  0.25847  0.40574  1.0000
  H   H1340     1.0  0.86846  0.37344  0.41367  1.0000
  H   H1341     1.0  0.94392  0.44521  0.41992  1.0000
  C   C1342     1.0  0.89268  0.25749  0.45778  1.0000
  H   H1342     1.0  0.81651  0.32807  0.51093  1.0000
  Fe  Fe222     1.0  0.86759  0.47193  0.35801  1.0000
  H   H1343     1.0  0.90680  0.30856  0.58950  1.0000
  N   N115      1.0  0.81064  0.31095  0.53869  1.0000
  H   H1344     1.0  0.83260  0.36841  0.33125  1.0000
  C   C1343     1.0  0.82431  0.31743  0.52152  1.0000
  C   C1344     1.0  0.78842  0.31801  0.56734  1.0000
  C   C1345     1.0  0.97644  0.47276  0.39220  1.0000
  H   H1345     1.0  0.94856  0.27309  0.53280  1.0000
  C   C1346     1.0  0.74760  0.26989  0.33785  1.0000
  H   H1346     1.0  0.95523  0.25612  0.55389  1.0000
  C   C1347     1.0  0.96578  0.46360  0.40892  1.0000
  C   C1348     1.0  0.84366  0.35566  0.33046  1.0000
  C   C1349     1.0  0.93580  0.34076  0.64163  1.0000
  C   C1350     1.0  0.98752  0.42078  0.64064  1.0000
  H   H1347     1.0  0.98649  0.48180  0.39368  1.0000
  H   H1348     1.0  0.98720  0.32442  0.56667  1.0000
  C   C1351     1.0  0.98508  0.48046  0.35686  1.0000
  S   S450      1.0  0.98299  0.36872  0.62932  1.0000
  H   H1349     1.0  0.98552  0.41002  0.63218  1.0000
  Fe  Fe223     1.0  0.98732  0.34603  0.61033  1.0000
  H   H1350     1.0  0.92629  0.34934  0.63130  1.0000
  H   H1351     1.0  0.89348  0.26982  0.31640  1.0000
  C   C1352     1.0  0.70179  0.26378  0.31486  1.0000
  S   S451      1.0  0.90524  0.42072  0.31664  1.0000
  Fe  Fe224     1.0  0.87433  0.25834  0.76833  1.0000
  S   S452      1.0  0.88579  0.27544  0.78529  1.0000
  Fe  Fe225     1.0  0.86459  0.29361  0.73826  1.0000
  S   S453      1.0  0.87514  0.31357  0.75295  1.0000
  S   S454      1.0  0.85386  0.30466  0.71004  1.0000
  Fe  Fe226     1.0  0.90022  0.28923  0.75638  1.0000
  S   S455      1.0  0.93260  0.28856  0.74887  1.0000
  Fe  Fe227     1.0  0.85942  0.29761  0.78018  1.0000
  S   S456      1.0  0.83956  0.30958  0.80541  1.0000
  S   S457      1.0  0.89055  0.27038  0.73982  1.0000
  S   S458      1.0  0.84706  0.27948  0.76510  1.0000
  H   H1352     1.0  0.96858  0.28773  0.72220  1.0000
  Fe  Fe228     1.0  0.73206  0.27040  0.88843  1.0000
  S   S459      1.0  0.74646  0.29671  0.87786  1.0000
  H   H1353     1.0  0.80768  0.26706  0.77695  1.0000
  Fe  Fe229     1.0  0.69511  0.28908  0.87310  1.0000
  S   S460      1.0  0.70651  0.31665  0.86028  1.0000
  S   S461      1.0  0.66422  0.28766  0.87171  1.0000
  Fe  Fe230     1.0  0.73460  0.29799  0.85067  1.0000
  S   S462      1.0  0.75036  0.30272  0.81984  1.0000
  Fe  Fe231     1.0  0.71715  0.31292  0.88850  1.0000
  S   S463      1.0  0.70982  0.33929  0.90288  1.0000
  S   S464      1.0  0.72197  0.27070  0.86061  1.0000
  S   S465      1.0  0.70403  0.28637  0.90189  1.0000
  S   S466      1.0  0.49942  0.28731  0.90194  1.0000
  H   H1354     1.0  0.83153  0.30425  0.68038  1.0000
  H   H1355     1.0  0.78690  0.26933  0.75209  1.0000
  S   S467      1.0  0.80931  0.24129  0.69766  1.0000
  S   S468      1.0  0.66158  0.26646  0.80272  1.0000
  C   C1353     1.0  0.50626  0.36395  0.97143  1.0000
  Fe  Fe232     1.0  0.63841  0.24519  0.76940  1.0000
  S   S469      1.0  0.64400  0.27585  0.76244  1.0000
  C   C1354     1.0  0.82214  0.27635  0.68723  1.0000
  Fe  Fe233     1.0  0.67262  0.26291  0.77189  1.0000
  S   S470      1.0  0.70219  0.26998  0.75833  1.0000
  Fe  Fe234     1.0  0.63225  0.27641  0.79401  1.0000
  S   S471      1.0  0.61280  0.30291  0.80396  1.0000
  H   H1356     1.0  0.98591  0.37269  0.69420  1.0000
  C   C1355     1.0  0.58302  0.28629  0.77604  1.0000
  Fe  Fe235     1.0  0.50978  0.30588  0.87387  1.0000
  H   H1357     1.0  0.66326  0.30789  0.92855  1.0000
  H   H1358     1.0  0.71199  0.30156  0.77600  1.0000
  H   H1359     1.0  0.68960  0.25073  0.87175  1.0000
  S   S472      1.0  0.53137  0.28889  0.85301  1.0000
  H   H1360     1.0  0.52726  0.26478  0.80413  1.0000
  C   C1356     1.0  0.59138  0.29919  0.82052  1.0000
  C   C1357     1.0  0.58770  0.28051  0.82845  1.0000
  C   C1358     1.0  0.56957  0.27766  0.83942  1.0000
  C   C1359     1.0  0.55504  0.29346  0.84300  1.0000
  C   C1360     1.0  0.55903  0.31225  0.83603  1.0000
  C   C1361     1.0  0.57716  0.31509  0.82475  1.0000
  H   H1361     1.0  0.59864  0.26818  0.82583  1.0000
  H   H1362     1.0  0.56666  0.26309  0.84488  1.0000
  H   H1363     1.0  0.54784  0.32453  0.83851  1.0000
  H   H1364     1.0  0.57988  0.32963  0.81873  1.0000
  C   C1362     1.0  0.72766  0.26745  0.72445  1.0000
  C   C1363     1.0  0.70820  0.26889  0.73340  1.0000
  C   C1364     1.0  0.69382  0.26954  0.72237  1.0000
  C   C1365     1.0  0.69887  0.26910  0.70240  1.0000
  H   H1365     1.0  0.77085  0.34866  0.80778  1.0000
  H   H1366     1.0  0.67877  0.27072  0.72912  1.0000
  H   H1367     1.0  0.68767  0.26990  0.69386  1.0000
  C   C1366     1.0  0.53020  0.32219  0.94841  1.0000
  H   H1368     1.0  0.66158  0.29137  0.91335  1.0000
  C   C1367     1.0  0.55495  0.34391  0.95871  1.0000
  C   C1368     1.0  0.54914  0.34849  0.94038  1.0000
  C   C1369     1.0  0.53695  0.33765  0.93520  1.0000
  H   H1369     1.0  0.55386  0.36071  0.93022  1.0000
  H   H1370     1.0  0.53235  0.34158  0.92119  1.0000
  C   C1370     1.0  0.66211  0.26607  0.86473  1.0000
  C   C1371     1.0  0.64567  0.26505  0.85729  1.0000
  C   C1372     1.0  0.64516  0.24909  0.84884  1.0000
  H   H1371     1.0  0.89770  0.34752  0.65498  1.0000
  H   H1372     1.0  0.82989  0.23632  0.78561  1.0000
  C   C1373     1.0  0.67719  0.25031  0.86541  1.0000
  H   H1373     1.0  0.63368  0.27695  0.85722  1.0000
  C   C1374     1.0  0.51182  0.37926  0.95733  1.0000
  C   C1375     1.0  0.58905  0.27130  0.76522  1.0000
  S   S473      1.0  0.77678  0.27961  0.66390  1.0000
  C   C1376     1.0  0.69519  0.33445  0.92560  1.0000
  C   C1377     1.0  0.69884  0.31651  0.93740  1.0000
  C   C1378     1.0  0.68714  0.31249  0.95542  1.0000
  C   C1379     1.0  0.67150  0.32625  0.96168  1.0000
  C   C1380     1.0  0.66766  0.34421  0.94987  1.0000
  C   C1381     1.0  0.67966  0.34838  0.93191  1.0000
  H   H1374     1.0  0.71098  0.30581  0.93280  1.0000
  H   H1375     1.0  0.69024  0.29861  0.96454  1.0000
  H   H1376     1.0  0.65559  0.35491  0.95458  1.0000
  H   H1377     1.0  0.67678  0.36229  0.92280  1.0000
  C   C1382     1.0  0.84221  0.28695  0.70560  1.0000
  C   C1383     1.0  0.84291  0.26916  0.71795  1.0000
  C   C1384     1.0  0.83307  0.25510  0.71517  1.0000
  C   C1385     1.0  0.76664  0.34458  0.86305  1.0000
  C   C1386     1.0  0.56185  0.25623  0.78289  1.0000
  C   C1387     1.0  0.79605  0.25579  0.75658  1.0000
  H   H1378     1.0  0.85106  0.26622  0.72967  1.0000
  S   S474      1.0  0.51278  0.30966  0.94367  1.0000
  H   H1379     1.0  0.76556  0.34313  0.87863  1.0000
  C   C1388     1.0  0.81554  0.30493  0.80933  1.0000
  C   C1389     1.0  0.80533  0.30200  0.82828  1.0000
  C   C1390     1.0  0.78553  0.30047  0.83168  1.0000
  C   C1391     1.0  0.77569  0.30224  0.81613  1.0000
  C   C1392     1.0  0.78596  0.30488  0.79718  1.0000
  C   C1393     1.0  0.80583  0.30614  0.79379  1.0000
  H   H1380     1.0  0.81272  0.30109  0.84036  1.0000
  H   H1381     1.0  0.77786  0.29836  0.84632  1.0000
  H   H1382     1.0  0.77844  0.30642  0.78506  1.0000
  H   H1383     1.0  0.81344  0.30888  0.77910  1.0000
  C   C1394     1.0  0.95489  0.33283  0.69774  1.0000
  C   C1395     1.0  0.93631  0.33696  0.70847  1.0000
  C   C1396     1.0  0.92920  0.32326  0.72386  1.0000
  C   C1397     1.0  0.94086  0.30555  0.72898  1.0000
  C   C1398     1.0  0.95949  0.30141  0.71826  1.0000
  C   C1399     1.0  0.96640  0.31490  0.70247  1.0000
  H   H1384     1.0  0.92734  0.35080  0.70488  1.0000
  H   H1385     1.0  0.91488  0.32662  0.73209  1.0000
  H   H1386     1.0  0.83367  0.24144  0.72482  1.0000
  Fe  Fe236     1.0  0.75661  0.26203  0.65759  1.0000
  H   H1387     1.0  0.73885  0.26694  0.73288  1.0000
  H   H1388     1.0  0.59141  0.29793  0.77384  1.0000
  H   H1389     1.0  0.95034  0.31045  0.66569  1.0000
  C   C1400     1.0  0.73275  0.26649  0.70459  1.0000
  C   C1401     1.0  0.93471  0.31431  0.66925  1.0000
  H   H1390     1.0  0.79704  0.34636  0.85705  1.0000
  H   H1391     1.0  0.89690  0.30114  0.70328  1.0000
  H   H1392     1.0  0.60208  0.27122  0.75439  1.0000
  C   C1402     1.0  0.83202  0.29051  0.69006  1.0000
  C   C1403     1.0  0.92476  0.30370  0.68547  1.0000
  C   C1404     1.0  0.75028  0.34451  0.85511  1.0000
  H   H1393     1.0  0.80597  0.36614  0.81601  1.0000
  C   C1405     1.0  0.82245  0.25875  0.70002  1.0000
  Fe  Fe237     1.0  0.65442  0.23669  0.80654  1.0000
  C   C1406     1.0  0.72181  0.24489  0.81157  1.0000
  N   N116      1.0  0.63472  0.30829  0.92295  1.0000
  C   C1407     1.0  0.62599  0.31781  0.93804  1.0000
  C   C1408     1.0  0.62382  0.30132  0.91292  1.0000
  C   C1409     1.0  0.60585  0.32015  0.94372  1.0000
  C   C1410     1.0  0.60365  0.30341  0.91821  1.0000
  C   C1411     1.0  0.59465  0.31282  0.93377  1.0000
  S   S475      1.0  0.96321  0.35069  0.67883  1.0000
  H   H1394     1.0  0.63459  0.32362  0.94583  1.0000
  H   H1395     1.0  0.63074  0.29403  0.90076  1.0000
  H   H1396     1.0  0.59895  0.32768  0.95569  1.0000
  H   H1397     1.0  0.59505  0.29779  0.91028  1.0000
  C   C1412     1.0  0.65578  0.30607  0.91693  1.0000
  H   H1398     1.0  0.65950  0.31693  0.90391  1.0000
  C   C1413     1.0  0.82018  0.23729  0.77534  1.0000
  H   H1399     1.0  0.91349  0.24261  0.77134  1.0000
  C   C1414     1.0  0.56623  0.28604  0.78998  1.0000
  H   H1400     1.0  0.70720  0.24280  0.89955  1.0000
  C   C1415     1.0  0.74556  0.23743  0.83298  1.0000
  H   H1401     1.0  0.81420  0.27918  0.67529  1.0000
  H   H1402     1.0  0.53131  0.30539  0.97689  1.0000
  H   H1403     1.0  0.71492  0.25453  0.80018  1.0000
  S   S476      1.0  0.56894  0.35912  0.96499  1.0000
  Fe  Fe238     1.0  0.50075  0.31294  0.91550  1.0000
  C   C1416     1.0  0.53880  0.27064  0.80848  1.0000
  N   N117      1.0  0.66499  0.31153  0.81263  1.0000
  C   C1417     1.0  0.66411  0.31398  0.79332  1.0000
  C   C1418     1.0  0.68237  0.30532  0.81909  1.0000
  C   C1419     1.0  0.68101  0.31052  0.77987  1.0000
  C   C1420     1.0  0.69957  0.30195  0.80604  1.0000
  C   C1421     1.0  0.69884  0.30456  0.78630  1.0000
  C   C1422     1.0  0.64702  0.31425  0.82655  1.0000
  H   H1404     1.0  0.65022  0.31812  0.78829  1.0000
  H   H1405     1.0  0.68299  0.30281  0.83444  1.0000
  H   H1406     1.0  0.68030  0.31191  0.76460  1.0000
  N   N118      1.0  0.92497  0.32965  0.65831  1.0000
  N   N119      1.0  0.55585  0.27116  0.79322  1.0000
  H   H1407     1.0  0.64967  0.31759  0.84026  1.0000
  H   H1408     1.0  0.63628  0.32628  0.82054  1.0000
  H   H1409     1.0  0.64052  0.30083  0.82991  1.0000
  H   H1410     1.0  0.74782  0.26515  0.69788  1.0000
  S   S477      1.0  0.72443  0.26591  0.66865  1.0000
  H   H1411     1.0  0.93951  0.24026  0.76500  1.0000
  C   C1423     1.0  0.53643  0.31730  0.96654  1.0000
  H   H1412     1.0  0.51027  0.39420  0.92833  1.0000
  H   H1413     1.0  0.86998  0.23716  0.74035  1.0000
  H   H1414     1.0  0.71333  0.29718  0.81121  1.0000
  C   C1424     1.0  0.89502  0.32486  0.67952  1.0000
  H   H1415     1.0  0.63298  0.24898  0.84193  1.0000
  C   C1425     1.0  0.78435  0.34637  0.85079  1.0000
  S   S478      1.0  0.74718  0.24209  0.90210  1.0000
  C   C1426     1.0  0.71835  0.26746  0.69348  1.0000
  H   H1416     1.0  0.92569  0.23476  0.74899  1.0000
  S   S479      1.0  0.51259  0.33074  0.88768  1.0000
  C   C1427     1.0  0.80783  0.25455  0.77038  1.0000
  C   C1428     1.0  0.98619  0.39497  0.66892  1.0000
  H   H1417     1.0  0.98078  0.31163  0.69432  1.0000
  C   C1429     1.0  0.54882  0.32800  0.97164  1.0000
  C   C1430     1.0  0.90479  0.30905  0.69060  1.0000
  H   H1418     1.0  0.73648  0.34308  0.86449  1.0000
  N   N120      1.0  0.78571  0.34795  0.83118  1.0000
  C   C1431     1.0  0.76973  0.34785  0.82328  1.0000
  Fe  Fe239     1.0  0.79518  0.25085  0.67135  1.0000
  C   C1432     1.0  0.75182  0.34600  0.83512  1.0000
  H   H1419     1.0  0.57902  0.31447  0.93804  1.0000
  C   C1433     1.0  0.80420  0.35070  0.81859  1.0000
  S   S480      1.0  0.62422  0.24669  0.80009  1.0000
  H   H1420     1.0  0.73934  0.34531  0.82884  1.0000
  H   H1421     1.0  0.81661  0.34168  0.82517  1.0000
  H   H1422     1.0  0.58299  0.24452  0.76019  1.0000
  H   H1423     1.0  0.93255  0.29174  0.69433  1.0000
  H   H1424     1.0  0.56170  0.29770  0.79840  1.0000
  H   H1425     1.0  0.87947  0.32912  0.68355  1.0000
  H   H1426     1.0  0.80517  0.34608  0.80439  1.0000
  C   C1434     1.0  0.79668  0.23962  0.74802  1.0000
  C   C1435     1.0  0.57834  0.25624  0.76855  1.0000
  C   C1436     1.0  0.90540  0.33513  0.66338  1.0000
  H   H1427     1.0  0.52153  0.38804  0.96004  1.0000
  H   H1428     1.0  0.74166  0.26388  0.81254  1.0000
  C   C1437     1.0  0.73683  0.25007  0.81840  1.0000
  H   H1429     1.0  0.78802  0.24091  0.73677  1.0000
  H   H1430     1.0  0.75708  0.24141  0.83858  1.0000
  H   H1431     1.0  0.53240  0.28535  0.81185  1.0000
  H   H1432     1.0  0.55389  0.24420  0.78570  1.0000
  C   C1438     1.0  0.50554  0.38256  0.93940  1.0000
  H   H1433     1.0  0.97602  0.38914  0.66309  1.0000
  C   C1439     1.0  0.49450  0.35219  0.96751  1.0000
  H   H1434     1.0  0.50103  0.36936  0.90569  1.0000
  H   H1435     1.0  0.54294  0.26152  0.82203  1.0000
  Fe  Fe240     1.0  0.98693  0.34416  0.65383  1.0000
  N   N121      1.0  0.49400  0.37095  0.93568  1.0000
  H   H1436     1.0  0.49076  0.33973  0.97804  1.0000
  S   S481      1.0  0.80966  0.58904  0.28317  1.0000
  H   H1437     1.0  0.68139  0.52871  0.15861  1.0000
  C   C1440     1.0  0.67065  0.50329  0.15598  1.0000
  S   S482      1.0  0.86900  0.69869  0.13321  1.0000
  Fe  Fe241     1.0  0.83989  0.71448  0.18017  1.0000
  S   S483      1.0  0.86623  0.69163  0.17962  1.0000
  S   S484      1.0  0.63817  0.72957  0.17817  1.0000
  Fe  Fe242     1.0  0.87940  0.71222  0.15463  1.0000
  Fe  Fe243     1.0  0.85289  0.68063  0.15856  1.0000
  S   S485      1.0  0.84890  0.64888  0.16568  1.0000
  S   S486      1.0  0.82585  0.70255  0.16079  1.0000
  C   C1441     1.0  0.82102  0.64961  0.27972  1.0000
  H   H1438     1.0  0.73492  0.49778  0.12331  1.0000
  Fe  Fe244     1.0  0.51648  0.58671  0.12687  1.0000
  S   S487      1.0  0.53186  0.60124  0.09901  1.0000
  S   S488      1.0  0.53084  0.55858  0.14290  1.0000
  Fe  Fe245     1.0  0.52821  0.62681  0.11452  1.0000
  S   S489      1.0  0.55535  0.63609  0.12083  1.0000
  H   H1439     1.0  0.84601  0.71583  0.26982  1.0000
  S   S490      1.0  0.51322  0.61183  0.14251  1.0000
  H   H1440     1.0  0.90933  0.71265  0.11074  1.0000
  H   H1441     1.0  0.70644  0.48989  0.11283  1.0000
  S   S491      1.0  0.62475  0.70202  0.27745  1.0000
  C   C1442     1.0  0.80786  0.51525  0.28989  1.0000
  S   S492      1.0  0.60908  0.70161  0.17099  1.0000
  Fe  Fe246     1.0  0.64103  0.70208  0.16662  1.0000
  S   S493      1.0  0.65976  0.67557  0.17957  1.0000
  Fe  Fe247     1.0  0.77156  0.59281  0.13807  1.0000
  S   S494      1.0  0.74660  0.61251  0.15160  1.0000
  S   S495      1.0  0.80114  0.60263  0.12896  1.0000
  Fe  Fe248     1.0  0.74530  0.56281  0.13727  1.0000
  S   S496      1.0  0.71870  0.58067  0.15106  1.0000
  S   S497      1.0  0.74386  0.53312  0.13057  1.0000
  Fe  Fe249     1.0  0.73011  0.60568  0.13091  1.0000
  S   S498      1.0  0.71122  0.63022  0.11563  1.0000
  Fe  Fe250     1.0  0.73784  0.58565  0.17048  1.0000
  S   S499      1.0  0.72597  0.58825  0.20160  1.0000
  S   S500      1.0  0.75557  0.58778  0.11558  1.0000
  S   S501      1.0  0.76405  0.56585  0.15835  1.0000
  Fe  Fe251     1.0  0.78260  0.58177  0.27702  1.0000
  S   S502      1.0  0.78655  0.55893  0.25864  1.0000
  N   N122      1.0  0.55293  0.72242  0.15677  1.0000
  S   S503      1.0  0.66442  0.73018  0.27534  1.0000
  H   H1442     1.0  0.85643  0.53278  0.31126  1.0000
  Fe  Fe252     1.0  0.84254  0.72135  0.13723  1.0000
  C   C1443     1.0  0.82491  0.63543  0.29562  1.0000
  H   H1443     1.0  0.70704  0.62432  0.22116  1.0000
  C   C1444     1.0  0.72352  0.52814  0.12247  1.0000
  C   C1445     1.0  0.72290  0.50911  0.12030  1.0000
  S   S504      1.0  0.84366  0.71970  0.30752  1.0000
  C   C1446     1.0  0.69118  0.51915  0.11020  1.0000
  C   C1447     1.0  0.69198  0.53821  0.11209  1.0000
  C   C1448     1.0  0.70792  0.54266  0.11836  1.0000
  C   C1449     1.0  0.54834  0.68971  0.17024  1.0000
  S   S505      1.0  0.49106  0.61527  0.06258  1.0000
  Fe  Fe253     1.0  0.65831  0.48657  0.10553  1.0000
  H   H1444     1.0  0.70822  0.55739  0.11981  1.0000
  C   C1450     1.0  0.74229  0.57856  0.21782  1.0000
  C   C1451     1.0  0.73779  0.58302  0.23656  1.0000
  C   C1452     1.0  0.75123  0.57666  0.24932  1.0000
  C   C1453     1.0  0.76902  0.56540  0.24348  1.0000
  C   C1454     1.0  0.77328  0.56037  0.22498  1.0000
  C   C1455     1.0  0.75999  0.56712  0.21209  1.0000
  H   H1445     1.0  0.72395  0.59150  0.24116  1.0000
  H   H1446     1.0  0.74778  0.58035  0.26371  1.0000
  H   H1447     1.0  0.78705  0.55170  0.22044  1.0000
  H   H1448     1.0  0.76347  0.56341  0.19780  1.0000
  C   C1456     1.0  0.67591  0.66387  0.16206  1.0000
  C   C1457     1.0  0.67969  0.67323  0.14291  1.0000
  C   C1458     1.0  0.69089  0.66303  0.12859  1.0000
  C   C1459     1.0  0.69871  0.64358  0.13357  1.0000
  C   C1460     1.0  0.69574  0.63448  0.15289  1.0000
  C   C1461     1.0  0.68424  0.64457  0.16710  1.0000
  H   H1449     1.0  0.67417  0.68832  0.13910  1.0000
  H   H1450     1.0  0.69352  0.67020  0.11372  1.0000
  H   H1451     1.0  0.70172  0.61946  0.15685  1.0000
  H   H1452     1.0  0.68136  0.63718  0.18184  1.0000
  C   C1462     1.0  0.61330  0.71270  0.25749  1.0000
  C   C1463     1.0  0.60857  0.71224  0.22488  1.0000
  C   C1464     1.0  0.61715  0.70361  0.24120  1.0000
  H   H1453     1.0  0.61185  0.70524  0.21226  1.0000
  H   H1454     1.0  0.62694  0.68999  0.24111  1.0000
  C   C1465     1.0  0.54709  0.54111  0.13077  1.0000
  C   C1466     1.0  0.56207  0.52943  0.13993  1.0000
  C   C1467     1.0  0.57489  0.51493  0.13095  1.0000
  C   C1468     1.0  0.57243  0.51166  0.11299  1.0000
  C   C1469     1.0  0.55742  0.52332  0.10386  1.0000
  C   C1470     1.0  0.54498  0.53820  0.11257  1.0000
  H   H1455     1.0  0.56365  0.53149  0.15410  1.0000
  H   H1456     1.0  0.58631  0.50595  0.13817  1.0000
  H   H1457     1.0  0.55539  0.52084  0.08999  1.0000
  H   H1458     1.0  0.53337  0.54699  0.10549  1.0000
  C   C1471     1.0  0.56385  0.65781  0.12159  1.0000
  C   C1472     1.0  0.57626  0.65735  0.13485  1.0000
  C   C1473     1.0  0.58480  0.67358  0.13496  1.0000
  C   C1474     1.0  0.58164  0.69034  0.12128  1.0000
  C   C1475     1.0  0.56907  0.69090  0.10815  1.0000
  C   C1476     1.0  0.56004  0.67487  0.10844  1.0000
  H   H1459     1.0  0.57936  0.64425  0.14507  1.0000
  H   H1460     1.0  0.59394  0.67298  0.14553  1.0000
  H   H1461     1.0  0.55077  0.67542  0.09795  1.0000
  S   S506      1.0  0.49966  0.63944  0.10414  1.0000
  C   C1477     1.0  0.83344  0.63749  0.15628  1.0000
  C   C1478     1.0  0.82494  0.64616  0.13991  1.0000
  C   C1479     1.0  0.81392  0.63590  0.13227  1.0000
  C   C1480     1.0  0.81079  0.61710  0.14120  1.0000
  C   C1481     1.0  0.81870  0.60878  0.15799  1.0000
  C   C1482     1.0  0.83000  0.61886  0.16539  1.0000
  H   H1462     1.0  0.82755  0.66043  0.13263  1.0000
  H   H1463     1.0  0.80839  0.64229  0.11898  1.0000
  H   H1464     1.0  0.81693  0.59416  0.16476  1.0000
  H   H1465     1.0  0.83653  0.61194  0.17799  1.0000
  C   C1483     1.0  0.70673  0.50457  0.11441  1.0000
  Fe  Fe254     1.0  0.87390  0.72056  0.29125  1.0000
  H   H1466     1.0  0.71627  0.62219  0.25359  1.0000
  C   C1484     1.0  0.67674  0.66356  0.23619  1.0000
  C   C1485     1.0  0.83024  0.49020  0.30573  1.0000
  C   C1486     1.0  0.70524  0.63380  0.24848  1.0000
  N   N123      1.0  0.68207  0.66236  0.25385  1.0000
  H   H1467     1.0  0.83826  0.55147  0.30235  1.0000
  H   H1468     1.0  0.68014  0.54964  0.10870  1.0000
  C   C1487     1.0  0.83956  0.72259  0.22305  1.0000
  C   C1488     1.0  0.71785  0.64927  0.30817  1.0000
  H   H1469     1.0  0.83522  0.68723  0.29299  1.0000
  N   N124      1.0  0.58813  0.56712  0.11499  1.0000
  C   C1489     1.0  0.60437  0.55639  0.12157  1.0000
  C   C1490     1.0  0.58242  0.56331  0.09911  1.0000
  C   C1491     1.0  0.61569  0.54177  0.11185  1.0000
  C   C1492     1.0  0.59338  0.54879  0.08907  1.0000
  C   C1493     1.0  0.61009  0.53795  0.09553  1.0000
  C   C1494     1.0  0.57617  0.58201  0.12566  1.0000
  H   H1470     1.0  0.60857  0.55901  0.13449  1.0000
  H   H1471     1.0  0.56907  0.57119  0.09441  1.0000
  H   H1472     1.0  0.62862  0.53326  0.11700  1.0000
  H   H1473     1.0  0.58854  0.54545  0.07681  1.0000
  H   H1474     1.0  0.61844  0.52630  0.08818  1.0000
  H   H1475     1.0  0.56844  0.59381  0.11591  1.0000
  H   H1476     1.0  0.56517  0.57551  0.13705  1.0000
  H   H1477     1.0  0.58507  0.58897  0.13253  1.0000
  N   N125      1.0  0.64529  0.66434  0.11441  1.0000
  C   C1495     1.0  0.65727  0.64730  0.11162  1.0000
  C   C1496     1.0  0.63566  0.66687  0.13250  1.0000
  C   C1497     1.0  0.65935  0.63205  0.12709  1.0000
  C   C1498     1.0  0.63758  0.65201  0.14834  1.0000
  C   C1499     1.0  0.64948  0.63448  0.14556  1.0000
  C   C1500     1.0  0.64381  0.68053  0.09831  1.0000
  H   H1478     1.0  0.66577  0.64559  0.09752  1.0000
  H   H1479     1.0  0.62667  0.68057  0.13477  1.0000
  H   H1480     1.0  0.66943  0.61884  0.12492  1.0000
  H   H1481     1.0  0.63048  0.65434  0.16277  1.0000
  H   H1482     1.0  0.65170  0.62309  0.15783  1.0000
  H   H1483     1.0  0.62888  0.68903  0.09956  1.0000
  H   H1484     1.0  0.65421  0.69025  0.09839  1.0000
  H   H1485     1.0  0.64695  0.67538  0.08415  1.0000
  S   S507      1.0  0.82330  0.71927  0.20916  1.0000
  H   H1486     1.0  0.91597  0.72794  0.22488  1.0000
  C   C1501     1.0  0.82505  0.66824  0.27859  1.0000
  S   S508      1.0  0.88221  0.73081  0.25935  1.0000
  C   C1502     1.0  0.68419  0.51305  0.15997  1.0000
  N   N126      1.0  0.79573  0.64170  0.20090  1.0000
  C   C1503     1.0  0.78903  0.64508  0.18365  1.0000
  C   C1504     1.0  0.79088  0.62661  0.21494  1.0000
  C   C1505     1.0  0.77695  0.63330  0.18020  1.0000
  C   C1506     1.0  0.77880  0.61456  0.21199  1.0000
  C   C1507     1.0  0.77179  0.61796  0.19450  1.0000
  C   C1508     1.0  0.80900  0.65358  0.20418  1.0000
  H   H1487     1.0  0.79339  0.65664  0.17224  1.0000
  H   H1488     1.0  0.79648  0.62375  0.22850  1.0000
  H   H1489     1.0  0.77200  0.63577  0.16634  1.0000
  H   H1490     1.0  0.77507  0.60256  0.22311  1.0000
  H   H1491     1.0  0.76255  0.60861  0.19195  1.0000
  H   H1492     1.0  0.82389  0.64514  0.20326  1.0000
  H   H1493     1.0  0.80953  0.66694  0.19316  1.0000
  H   H1494     1.0  0.80443  0.65802  0.21869  1.0000
  S   S509      1.0  0.76937  0.61259  0.26774  1.0000
  C   C1509     1.0  0.81938  0.52878  0.29060  1.0000
  H   H1495     1.0  0.84030  0.65312  0.22846  1.0000
  C   C1510     1.0  0.83565  0.71779  0.24319  1.0000
  H   H1496     1.0  0.68291  0.68075  0.27373  1.0000
  H   H1497     1.0  0.82245  0.62085  0.29635  1.0000
  C   C1511     1.0  0.84888  0.72004  0.25438  1.0000
  C   C1512     1.0  0.55430  0.69144  0.18721  1.0000
  H   H1498     1.0  0.56644  0.70376  0.09749  1.0000
  S   S510      1.0  0.78072  0.62083  0.30759  1.0000
  S   S511      1.0  0.91059  0.71840  0.14949  1.0000
  C   C1513     1.0  0.83567  0.65869  0.30992  1.0000
  S   S512      1.0  0.64307  0.71631  0.13537  1.0000
  N   N127      1.0  0.83578  0.52317  0.29887  1.0000
  C   C1514     1.0  0.70007  0.63502  0.23035  1.0000
  C   C1515     1.0  0.68574  0.65001  0.22414  1.0000
  H   H1499     1.0  0.66504  0.68985  0.25833  1.0000
  C   C1516     1.0  0.54752  0.70552  0.15516  1.0000
  S   S513      1.0  0.59288  0.71094  0.11998  1.0000
  C   C1517     1.0  0.85656  0.72981  0.21410  1.0000
  H   H1500     1.0  0.54458  0.67616  0.16860  1.0000
  Fe  Fe255     1.0  0.63480  0.72415  0.28966  1.0000
  S   S514      1.0  0.81113  0.64369  0.26146  1.0000
  Fe  Fe256     1.0  0.79503  0.61968  0.27695  1.0000
  S   S515      1.0  0.58765  0.49315  0.10147  1.0000
  H   H1501     1.0  0.66546  0.67502  0.23127  1.0000
  C   C1518     1.0  0.90702  0.72381  0.09779  1.0000
  H   H1502     1.0  0.82252  0.71214  0.25011  1.0000
  S   S516      1.0  0.67054  0.51457  0.10233  1.0000
  H   H1503     1.0  0.82215  0.67918  0.26624  1.0000
  C   C1519     1.0  0.81330  0.49585  0.29764  1.0000
  H   H1504     1.0  0.66110  0.67008  0.27777  1.0000
  C   C1520     1.0  0.70613  0.68884  0.31097  1.0000
  H   H1505     1.0  0.86229  0.65756  0.21201  1.0000
  H   H1506     1.0  0.54296  0.70400  0.14198  1.0000
  N   N128      1.0  0.80407  0.55317  0.11581  1.0000
  C   C1521     1.0  0.79090  0.54264  0.11327  1.0000
  C   C1522     1.0  0.80980  0.56775  0.10156  1.0000
  C   C1523     1.0  0.78274  0.54697  0.09632  1.0000
  C   C1524     1.0  0.80180  0.57258  0.08451  1.0000
  C   C1525     1.0  0.78816  0.56211  0.08191  1.0000
  C   C1526     1.0  0.81277  0.54832  0.13348  1.0000
  H   H1507     1.0  0.78630  0.53105  0.12451  1.0000
  H   H1508     1.0  0.82029  0.57606  0.10353  1.0000
  H   H1509     1.0  0.77189  0.53891  0.09464  1.0000
  H   H1510     1.0  0.80593  0.58460  0.07357  1.0000
  H   H1511     1.0  0.78157  0.56590  0.06892  1.0000
  H   H1512     1.0  0.82728  0.53932  0.13075  1.0000
  H   H1513     1.0  0.81439  0.56170  0.13836  1.0000
  H   H1514     1.0  0.80354  0.54034  0.14561  1.0000
  Fe  Fe257     1.0  0.75598  0.61134  0.29902  1.0000
  H   H1515     1.0  0.94777  0.73094  0.13892  1.0000
  C   C1527     1.0  0.72589  0.68079  0.30826  1.0000
  S   S517      1.0  0.72449  0.62435  0.30696  1.0000
  C   C1528     1.0  0.55844  0.72436  0.17350  1.0000
  C   C1529     1.0  0.70165  0.50265  0.16507  1.0000
  H   H1516     1.0  0.81498  0.54384  0.28464  1.0000
  H   H1517     1.0  0.68153  0.65116  0.21010  1.0000
  Fe  Fe258     1.0  0.50165  0.61227  0.09161  1.0000
  H   H1518     1.0  0.84462  0.67736  0.22051  1.0000
  H   H1519     1.0  0.88703  0.65721  0.28518  1.0000
  Fe  Fe259     1.0  0.61060  0.71765  0.14064  1.0000
  H   H1520     1.0  0.55513  0.67927  0.19898  1.0000
  H   H1521     1.0  0.87223  0.62972  0.28148  1.0000
  C   C1530     1.0  0.67234  0.67641  0.26652  1.0000
  N   N129      1.0  0.86199  0.66065  0.24101  1.0000
  C   C1531     1.0  0.87064  0.67563  0.24259  1.0000
  C   C1532     1.0  0.86315  0.64402  0.25436  1.0000
  C   C1533     1.0  0.87981  0.67465  0.25846  1.0000
  C   C1534     1.0  0.87219  0.64254  0.27042  1.0000
  C   C1535     1.0  0.88041  0.65803  0.27253  1.0000
  C   C1536     1.0  0.85189  0.66223  0.22463  1.0000
  H   H1522     1.0  0.87017  0.68859  0.23171  1.0000
  H   H1523     1.0  0.85628  0.63213  0.25312  1.0000
  H   H1524     1.0  0.88613  0.68682  0.25998  1.0000
  S   S518      1.0  0.76711  0.57955  0.30767  1.0000
  C   C1537     1.0  0.84150  0.50410  0.30601  1.0000
  C   C1538     1.0  0.83243  0.67278  0.29371  1.0000
  H   H1525     1.0  0.65721  0.51124  0.15156  1.0000
  H   H1526     1.0  0.85744  0.54024  0.28539  1.0000
  H   H1527     1.0  0.93776  0.73009  0.19290  1.0000
  C   C1539     1.0  0.69598  0.64761  0.26014  1.0000
  H   H1528     1.0  0.92118  0.72476  0.08815  1.0000
  H   H1529     1.0  0.69999  0.64641  0.27427  1.0000
  S   S519      1.0  0.88618  0.69080  0.30466  1.0000
  C   C1540     1.0  0.84763  0.53762  0.29941  1.0000
  Fe  Fe260     1.0  0.60641  0.73073  0.17924  1.0000
  Fe  Fe261     1.0  0.66967  0.72760  0.30568  1.0000
  H   H1530     1.0  0.71246  0.51022  0.16771  1.0000
  C   C1541     1.0  0.55923  0.70892  0.18895  1.0000
  H   H1531     1.0  0.89745  0.71898  0.08976  1.0000
  H   H1532     1.0  0.56388  0.71048  0.20209  1.0000
  H   H1533     1.0  0.80437  0.48523  0.29744  1.0000
  C   C1542     1.0  0.86571  0.72762  0.24552  1.0000
  H   H1534     1.0  0.73669  0.68987  0.30718  1.0000
  C   C1543     1.0  0.73176  0.66112  0.30658  1.0000
  H   H1535     1.0  0.74702  0.65514  0.30413  1.0000
  C   C1544     1.0  0.86951  0.73257  0.22535  1.0000
  H   H1536     1.0  0.85962  0.73355  0.19851  1.0000
  H   H1537     1.0  0.79477  0.51988  0.28344  1.0000
  S   S520      1.0  0.63350  0.48520  0.13025  1.0000
  C   C1545     1.0  0.59564  0.72968  0.22506  1.0000
  C   C1546     1.0  0.60055  0.73028  0.25759  1.0000
  C   C1547     1.0  0.83212  0.63997  0.31072  1.0000
  H   H1538     1.0  0.85444  0.49959  0.31268  1.0000
  C   C1548     1.0  0.69811  0.65729  0.31106  1.0000
  Fe  Fe262     1.0  0.79335  0.58923  0.31326  1.0000
  H   H1539     1.0  0.68726  0.64817  0.31248  1.0000
  C   C1549     1.0  0.69226  0.67705  0.31220  1.0000
  S   S521      1.0  0.69907  0.71345  0.31336  1.0000
  H   H1540     1.0  0.55262  0.73404  0.12681  1.0000
  H   H1541     1.0  0.79312  0.54511  0.33382  1.0000
  H   H1542     1.0  0.92000  0.58507  0.41068  1.0000
  C   C1550     1.0  0.93128  0.57401  0.40426  1.0000
  H   H1543     1.0  0.85491  0.51836  0.35887  1.0000
  H   H1544     1.0  0.97193  0.54034  0.35905  1.0000
  C   C1551     1.0  0.74306  0.62019  0.35186  1.0000
  N   N130      1.0  0.76089  0.62776  0.35136  1.0000
  Fe  Fe263     1.0  0.98681  0.55809  0.39378  1.0000
  S   S522      1.0  0.86426  0.70319  0.34682  1.0000
  H   H1545     1.0  0.77949  0.66954  0.33977  1.0000
  H   H1546     1.0  0.80731  0.61167  0.35838  1.0000
  C   C1552     1.0  0.77699  0.61517  0.35615  1.0000
  S   S523      1.0  0.94789  0.62070  0.39134  1.0000
  N   N131      1.0  0.92634  0.57064  0.38638  1.0000
  Fe  Fe264     1.0  0.97746  0.60180  0.38863  1.0000
  H   H1547     1.0  0.73762  0.61344  0.36683  1.0000
  H   H1548     1.0  0.91322  0.54597  0.40022  1.0000
  H   H1549     1.0  0.93302  0.56042  0.41493  1.0000
  C   C1553     1.0  0.92634  0.57989  0.35216  1.0000
  C   C1554     1.0  0.79443  0.62183  0.35517  1.0000
  H   H1550     1.0  0.87114  0.71209  0.39385  1.0000
  H   H1551     1.0  0.71647  0.72759  0.34112  1.0000
  S   S524      1.0  0.98154  0.57896  0.41489  1.0000
  C   C1555     1.0  0.77880  0.65427  0.34460  1.0000
  C   C1556     1.0  0.91202  0.55227  0.36980  1.0000
  C   C1557     1.0  0.91677  0.55568  0.38679  1.0000
  C   C1558     1.0  0.76158  0.64712  0.34571  1.0000
  Fe  Fe265     1.0  0.85347  0.73195  0.32971  1.0000
  H   H1552     1.0  0.90498  0.54002  0.37006  1.0000
  C   C1559     1.0  0.83538  0.54433  0.34952  1.0000
  C   C1560     1.0  0.81801  0.55199  0.34230  1.0000
  C   C1561     1.0  0.82978  0.51157  0.35078  1.0000
  C   C1562     1.0  0.81229  0.51927  0.34382  1.0000
  C   C1563     1.0  0.80660  0.53938  0.33923  1.0000
  S   S525      1.0  0.92288  0.69806  0.33512  1.0000
  H   H1553     1.0  0.80317  0.50960  0.34180  1.0000
  S   S526      1.0  0.84370  0.66403  0.32962  1.0000
  H   H1554     1.0  0.93788  0.59512  0.36924  1.0000
  H   H1555     1.0  0.83491  0.62893  0.32305  1.0000
  H   H1556     1.0  0.93026  0.58945  0.33872  1.0000
  H   H1557     1.0  0.96034  0.67781  0.34248  1.0000
  H   H1558     1.0  0.74891  0.65712  0.34170  1.0000
  C   C1564     1.0  0.93593  0.50407  0.38078  1.0000
  H   H1559     1.0  0.94537  0.57930  0.40128  1.0000
  H   H1560     1.0  0.73136  0.63167  0.34670  1.0000
  Fe  Fe266     1.0  0.89283  0.70512  0.32718  1.0000
  C   C1565     1.0  0.95812  0.52455  0.38529  1.0000
  C   C1566     1.0  0.96185  0.53034  0.36522  1.0000
  C   C1567     1.0  0.95302  0.52269  0.35301  1.0000
  C   C1568     1.0  0.94023  0.50930  0.36067  1.0000
  H   H1561     1.0  0.94180  0.50709  0.40850  1.0000
  C   C1569     1.0  0.94491  0.51158  0.39298  1.0000
  H   H1562     1.0  0.95641  0.52692  0.33748  1.0000
  S   S527      1.0  0.97010  0.53245  0.40124  1.0000
  C   C1570     1.0  0.91704  0.56434  0.35236  1.0000
  S   S528      1.0  0.81072  0.57731  0.33751  1.0000
  H   H1563     1.0  0.91018  0.70153  0.40301  1.0000
  H   H1564     1.0  0.92409  0.69564  0.38035  1.0000
  C   C1571     1.0  0.84145  0.52417  0.35343  1.0000
  H   H1565     1.0  0.80877  0.64685  0.34844  1.0000
  C   C1572     1.0  0.90917  0.69961  0.38822  1.0000
  H   H1566     1.0  0.77663  0.59975  0.36018  1.0000
  C   C1573     1.0  0.79528  0.64152  0.34942  1.0000
  H   H1567     1.0  0.90155  0.68719  0.38918  1.0000
  C   C1574     1.0  0.93001  0.67525  0.34877  1.0000
  C   C1575     1.0  0.94964  0.66909  0.35050  1.0000
  C   C1576     1.0  0.95548  0.65183  0.36279  1.0000
  C   C1577     1.0  0.94162  0.64095  0.37384  1.0000
  C   C1578     1.0  0.92202  0.64702  0.37195  1.0000
  C   C1579     1.0  0.91626  0.66395  0.35922  1.0000
  S   S529      1.0  0.98190  0.58075  0.36802  1.0000
  H   H1568     1.0  0.97060  0.64733  0.36425  1.0000
  H   H1569     1.0  0.91122  0.63870  0.38052  1.0000
  H   H1570     1.0  0.90110  0.66859  0.35800  1.0000
  H   H1571     1.0  0.74588  0.60917  0.34218  1.0000
  C   C1580     1.0  0.93073  0.58295  0.36946  1.0000
  H   H1572     1.0  0.84424  0.55401  0.35199  1.0000
  C   C1581     1.0  0.90889  0.72959  0.36436  1.0000
  C   C1582     1.0  0.87914  0.72180  0.38298  1.0000
  S   S530      1.0  0.83662  0.48618  0.35557  1.0000
  H   H1573     1.0  0.91385  0.56153  0.33903  1.0000
  H   H1574     1.0  0.92605  0.49387  0.38693  1.0000
  S   S531      1.0  0.93089  0.49890  0.34446  1.0000
  N   N132      1.0  0.89884  0.71734  0.37811  1.0000
  Fe  Fe267     1.0  0.85681  0.69111  0.32295  1.0000
  H   H1575     1.0  0.92448  0.72595  0.36028  1.0000
  H   H1576     1.0  0.98898  0.49395  0.35948  1.0000
  S   S532      1.0  0.64082  0.71941  0.32016  1.0000
  H   H1577     1.0  0.68311  0.72846  0.35104  1.0000
  H   H1578     1.0  0.97658  0.48479  0.34473  1.0000
  H   H1579     1.0  0.67699  0.68306  0.31447  1.0000
  Fe  Fe268     1.0  0.72852  0.82368  0.17233  1.0000
  S   S533      1.0  0.75685  0.80333  0.17177  1.0000
  S   S534      1.0  0.70182  0.80838  0.18014  1.0000
  Fe  Fe269     1.0  0.74951  0.85932  0.17022  1.0000
  S   S535      1.0  0.77864  0.84067  0.16928  1.0000
  S   S536      1.0  0.74878  0.89087  0.17298  1.0000
  Fe  Fe270     1.0  0.76843  0.82639  0.14878  1.0000
  S   S537      1.0  0.78584  0.82174  0.11992  1.0000
  Fe  Fe271     1.0  0.76362  0.82004  0.19234  1.0000
  S   S538      1.0  0.77564  0.80683  0.21970  1.0000
  S   S539      1.0  0.73982  0.84622  0.14801  1.0000
  S   S540      1.0  0.73467  0.83914  0.19454  1.0000
  S   S541      1.0  0.74701  0.86726  0.27660  1.0000
  Fe  Fe272     1.0  0.83551  0.95747  0.15425  1.0000
  S   S542      1.0  0.86589  0.95696  0.13767  1.0000
  S   S543      1.0  0.82395  0.93242  0.14701  1.0000
  Fe  Fe273     1.0  0.97755  0.84754  0.14401  1.0000
  C   C1583     1.0  0.64808  0.82029  0.27042  1.0000
  C   C1584     1.0  0.59151  0.73865  0.24145  1.0000
  Fe  Fe274     1.0  0.87443  0.95862  0.16563  1.0000
  S   S544      1.0  0.89862  0.93714  0.17851  1.0000
  S   S545      1.0  0.84430  0.95802  0.18271  1.0000
  S   S546      1.0  0.83030  0.73787  0.11114  1.0000
  H   H1580     1.0  0.76115  0.84772  0.21319  1.0000
  C   C1585     1.0  0.60987  0.81013  0.30807  1.0000
  Fe  Fe275     1.0  0.96884  0.80615  0.15440  1.0000
  H   H1581     1.0  0.75663  0.74337  0.15391  1.0000
  S   S547      1.0  0.94102  0.79241  0.16375  1.0000
  N   N133      1.0  0.63500  0.77573  0.20999  1.0000
  S   S548      1.0  0.96158  0.87763  0.13352  1.0000
  S   S549      1.0  0.96975  0.82851  0.17248  1.0000
  H   H1582     1.0  0.61612  0.76095  0.20079  1.0000
  C   C1586     1.0  0.71834  0.82444  0.24977  1.0000
  S   S550      1.0  0.65443  0.76967  0.13525  1.0000
  H   H1583     1.0  0.59097  0.79931  0.29416  1.0000
  H   H1584     1.0  0.73447  0.79835  0.23988  1.0000
  H   H1585     1.0  0.72922  0.82551  0.25796  1.0000
  C   C1587     1.0  0.72128  0.80890  0.23974  1.0000
  C   C1588     1.0  0.64949  0.83155  0.28392  1.0000
  C   C1589     1.0  0.83595  0.96548  0.10141  1.0000
  C   C1590     1.0  0.93982  0.76359  0.22846  1.0000
  C   C1591     1.0  0.95147  0.75244  0.19846  1.0000
  H   H1586     1.0  0.65335  0.79344  0.21581  1.0000
  H   H1587     1.0  0.90651  0.87185  0.18109  1.0000
  H   H1588     1.0  0.77769  0.76870  0.29431  1.0000
  S   S551      1.0  0.72162  0.82476  0.30085  1.0000
  H   H1589     1.0  0.63227  0.74806  0.22763  1.0000
  N   N134      1.0  0.89848  0.74249  0.10389  1.0000
  C   C1592     1.0  0.91344  0.76947  0.16604  1.0000
  C   C1593     1.0  0.93277  0.77212  0.15880  1.0000
  C   C1594     1.0  0.94503  0.75816  0.14887  1.0000
  C   C1595     1.0  0.80827  0.76752  0.28339  1.0000
  H   H1590     1.0  0.91132  0.77866  0.12041  1.0000
  H   H1591     1.0  0.90383  0.78005  0.17390  1.0000
  H   H1592     1.0  0.95996  0.75988  0.14330  1.0000
  C   C1596     1.0  0.76445  0.77541  0.11229  1.0000
  C   C1597     1.0  0.91638  0.92100  0.16572  1.0000
  C   C1598     1.0  0.91839  0.92217  0.14567  1.0000
  C   C1599     1.0  0.93245  0.90890  0.13610  1.0000
  C   C1600     1.0  0.94438  0.89406  0.14645  1.0000
  C   C1601     1.0  0.94218  0.89268  0.16655  1.0000
  C   C1602     1.0  0.92841  0.90624  0.17608  1.0000
  H   H1593     1.0  0.90933  0.93348  0.13750  1.0000
  H   H1594     1.0  0.93411  0.91017  0.12054  1.0000
  H   H1595     1.0  0.95136  0.88144  0.17468  1.0000
  H   H1596     1.0  0.92702  0.90526  0.19158  1.0000
  N   N135      1.0  0.79923  0.76145  0.24914  1.0000
  C   C1603     1.0  0.69177  0.79603  0.16611  1.0000
  C   C1604     1.0  0.68501  0.77860  0.17483  1.0000
  C   C1605     1.0  0.67420  0.76992  0.16533  1.0000
  C   C1606     1.0  0.66987  0.77868  0.14700  1.0000
  C   C1607     1.0  0.67719  0.79576  0.13803  1.0000
  C   C1608     1.0  0.68803  0.80442  0.14750  1.0000
  H   H1597     1.0  0.68758  0.77207  0.18930  1.0000
  H   H1598     1.0  0.66874  0.75676  0.17244  1.0000
  H   H1599     1.0  0.67390  0.80271  0.12389  1.0000
  H   H1600     1.0  0.69266  0.81807  0.14075  1.0000
  C   C1609     1.0  0.79891  0.79855  0.11829  1.0000
  C   C1610     1.0  0.80126  0.78455  0.13477  1.0000
  C   C1611     1.0  0.81116  0.76583  0.13276  1.0000
  C   C1612     1.0  0.81828  0.76111  0.11427  1.0000
  C   C1613     1.0  0.81594  0.77513  0.09789  1.0000
  C   C1614     1.0  0.80650  0.79388  0.09990  1.0000
  H   H1601     1.0  0.79555  0.78817  0.14901  1.0000
  H   H1602     1.0  0.81297  0.75499  0.14547  1.0000
  H   H1603     1.0  0.82155  0.77154  0.08360  1.0000
  H   H1604     1.0  0.80478  0.80471  0.08715  1.0000
  C   C1615     1.0  0.76950  0.90269  0.16514  1.0000
  C   C1616     1.0  0.76905  0.92097  0.16999  1.0000
  C   C1617     1.0  0.78562  0.93019  0.16499  1.0000
  C   C1618     1.0  0.80274  0.92138  0.15466  1.0000
  C   C1619     1.0  0.80307  0.90325  0.14959  1.0000
  C   C1620     1.0  0.78666  0.89392  0.15487  1.0000
  H   H1605     1.0  0.75581  0.92804  0.17771  1.0000
  H   H1606     1.0  0.78503  0.94423  0.16881  1.0000
  H   H1607     1.0  0.81612  0.89636  0.14142  1.0000
  H   H1608     1.0  0.78724  0.88002  0.15077  1.0000
  C   C1621     1.0  0.76945  0.82396  0.23527  1.0000
  C   C1622     1.0  0.77118  0.81843  0.25484  1.0000
  C   C1623     1.0  0.76450  0.83179  0.26762  1.0000
  C   C1624     1.0  0.75618  0.85070  0.26076  1.0000
  C   C1625     1.0  0.75476  0.85629  0.24117  1.0000
  C   C1626     1.0  0.76169  0.84304  0.22840  1.0000
  H   H1609     1.0  0.77735  0.80380  0.26021  1.0000
  H   H1610     1.0  0.76568  0.82743  0.28281  1.0000
  H   H1611     1.0  0.74812  0.87083  0.23586  1.0000
  H   H1612     1.0  0.89220  0.88386  0.12434  1.0000
  N   N136      1.0  0.78149  0.88867  0.22372  1.0000
  C   C1627     1.0  0.78589  0.88370  0.24205  1.0000
  C   C1628     1.0  0.79015  0.87754  0.20988  1.0000
  C   C1629     1.0  0.79874  0.86676  0.24710  1.0000
  C   C1630     1.0  0.80307  0.86052  0.21442  1.0000
  C   C1631     1.0  0.80724  0.85504  0.23321  1.0000
  C   C1632     1.0  0.76739  0.90598  0.21874  1.0000
  H   H1613     1.0  0.77876  0.89229  0.25317  1.0000
  H   H1614     1.0  0.78657  0.88141  0.19541  1.0000
  H   H1615     1.0  0.80144  0.86243  0.26190  1.0000
  H   H1616     1.0  0.80926  0.85135  0.20357  1.0000
  H   H1617     1.0  0.81673  0.84156  0.23710  1.0000
  H   H1618     1.0  0.75745  0.90283  0.20993  1.0000
  H   H1619     1.0  0.75813  0.91092  0.23186  1.0000
  H   H1620     1.0  0.77507  0.91786  0.21028  1.0000
  C   C1633     1.0  0.78493  0.76343  0.26480  1.0000
  N   N137      1.0  0.90082  0.87629  0.15217  1.0000
  C   C1634     1.0  0.55212  0.73885  0.14083  1.0000
  H   H1621     1.0  0.62613  0.76852  0.24028  1.0000
  H   H1622     1.0  0.83781  0.76533  0.26843  1.0000
  C   C1635     1.0  0.62301  0.78555  0.17977  1.0000
  C   C1636     1.0  0.89726  0.87979  0.17080  1.0000
  C   C1637     1.0  0.82283  0.76515  0.26745  1.0000
  C   C1638     1.0  0.74908  0.80908  0.10344  1.0000
  H   H1623     1.0  0.70933  0.79540  0.22127  1.0000
  H   H1624     1.0  0.69158  0.86777  0.25193  1.0000
  C   C1639     1.0  0.70726  0.80729  0.22925  1.0000
  H   H1625     1.0  0.97134  0.78050  0.21807  1.0000
  N   N138      1.0  0.70209  0.83821  0.24907  1.0000
  C   C1640     1.0  0.69919  0.85435  0.25979  1.0000
  H   H1626     1.0  0.69053  0.85071  0.27433  1.0000
  H   H1627     1.0  0.63291  0.81065  0.16138  1.0000
  H   H1628     1.0  0.92775  0.85760  0.15583  1.0000
  C   C1641     1.0  0.96504  0.77886  0.20554  1.0000
  H   H1629     1.0  0.95684  0.79302  0.19978  1.0000
  H   H1630     1.0  0.71326  0.85765  0.26170  1.0000
  C   C1642     1.0  0.68813  0.83659  0.23906  1.0000
  C   C1643     1.0  0.69056  0.82118  0.22891  1.0000
  H   H1631     1.0  0.92423  0.86556  0.13143  1.0000
  H   H1632     1.0  0.73192  0.77160  0.16241  1.0000
  H   H1633     1.0  0.65112  0.75933  0.23163  1.0000
  C   C1644     1.0  0.67637  0.79796  0.27932  1.0000
  H   H1634     1.0  0.85492  0.77073  0.11348  1.0000
  C   C1645     1.0  0.64369  0.80427  0.18851  1.0000
  C   C1646     1.0  0.81799  0.76227  0.25027  1.0000
  C   C1647     1.0  0.87413  0.90117  0.14449  1.0000
  N   N139      1.0  0.75130  0.79103  0.11733  1.0000
  C   C1648     1.0  0.66120  0.80320  0.26855  1.0000
  H   H1635     1.0  0.67957  0.81990  0.22087  1.0000
  H   H1636     1.0  0.67498  0.84717  0.23894  1.0000
  S   S552      1.0  0.58556  0.74072  0.20432  1.0000
  C   C1649     1.0  0.87066  0.90508  0.16333  1.0000
  H   H1637     1.0  0.63625  0.82428  0.26220  1.0000
  H   H1638     1.0  0.86247  0.96824  0.08154  1.0000
  H   H1639     1.0  0.68651  0.78471  0.27789  1.0000
  H   H1640     1.0  0.85923  0.91666  0.16755  1.0000
  C   C1650     1.0  0.59204  0.80957  0.30310  1.0000
  H   H1641     1.0  0.84150  0.95134  0.10891  1.0000
  C   C1651     1.0  0.78917  0.76673  0.28207  1.0000
  C   C1652     1.0  0.64457  0.79127  0.20588  1.0000
  S   S553      1.0  0.65693  0.78697  0.25514  1.0000
  H   H1642     1.0  0.73730  0.80938  0.09522  1.0000
  C   C1653     1.0  0.66415  0.82582  0.29532  1.0000
  C   C1654     1.0  0.87891  0.74867  0.10542  1.0000
  H   H1643     1.0  0.59729  0.73716  0.27029  1.0000
  H   H1644     1.0  0.56152  0.82068  0.30711  1.0000
  H   H1645     1.0  0.63892  0.84441  0.28588  1.0000
  H   H1646     1.0  0.77008  0.76266  0.26394  1.0000
  H   H1647     1.0  0.96078  0.75344  0.18445  1.0000
  H   H1648     1.0  0.81179  0.76990  0.29677  1.0000
  N   N140      1.0  0.95209  0.76435  0.21109  1.0000
  H   H1649     1.0  0.82939  0.76038  0.23796  1.0000
  C   C1655     1.0  0.63300  0.80123  0.17530  1.0000
  C   C1656     1.0  0.90638  0.75320  0.16333  1.0000
  C   C1657     1.0  0.73957  0.78967  0.13499  1.0000
  S   S554      1.0  0.97560  0.82560  0.12593  1.0000
  H   H1650     1.0  0.49286  0.80406  0.30734  1.0000
  H   H1651     1.0  0.77767  0.74600  0.12157  1.0000
  C   C1658     1.0  0.88216  0.77694  0.11747  1.0000
  S   S555      1.0  0.62128  0.75542  0.28894  1.0000
  H   H1652     1.0  0.91070  0.84751  0.14668  1.0000
  C   C1659     1.0  0.63614  0.76225  0.22826  1.0000
  C   C1660     1.0  0.67792  0.80934  0.29263  1.0000
  S   S556      1.0  0.65937  0.75917  0.30659  1.0000
  C   C1661     1.0  0.88938  0.88664  0.13910  1.0000
  C   C1662     1.0  0.87047  0.76600  0.11214  1.0000
  H   H1653     1.0  0.86515  0.90957  0.13412  1.0000
  C   C1663     1.0  0.74117  0.77248  0.14835  1.0000
  C   C1664     1.0  0.79452  0.75716  0.23152  1.0000
  C   C1665     1.0  0.91653  0.86093  0.14627  1.0000
  H   H1654     1.0  0.76281  0.81074  0.09320  1.0000
  C   C1666     1.0  0.62396  0.77303  0.19740  1.0000
  H   H1655     1.0  0.53865  0.74935  0.14378  1.0000
  H   H1656     1.0  0.87573  0.79022  0.12304  1.0000
  Fe  Fe276     1.0  0.65160  0.76094  0.27747  1.0000
  H   H1657     1.0  0.80546  0.76109  0.21863  1.0000
  C   C1667     1.0  0.88225  0.89432  0.17661  1.0000
  H   H1658     1.0  0.61493  0.78284  0.16945  1.0000
  Fe  Fe277     1.0  0.73261  0.85104  0.30400  1.0000
  H   H1659     1.0  0.97739  0.77482  0.19411  1.0000
  H   H1660     1.0  0.56246  0.73785  0.17493  1.0000
  H   H1661     1.0  0.88014  0.89784  0.19106  1.0000
  H   H1662     1.0  0.58153  0.75215  0.24161  1.0000
  C   C1668     1.0  0.84766  0.97504  0.08586  1.0000
  H   H1663     1.0  0.89146  0.75146  0.16894  1.0000
  C   C1669     1.0  0.93807  0.74172  0.14646  1.0000
  C   C1670     1.0  0.93847  0.73921  0.20316  1.0000
  H   H1664     1.0  0.77365  0.77641  0.09823  1.0000
  S   S557      1.0  0.60570  0.74722  0.14930  1.0000
  H   H1665     1.0  0.74570  0.82183  0.11102  1.0000
  C   C1671     1.0  0.91006  0.75315  0.10904  1.0000
  C   C1672     1.0  0.90211  0.77054  0.11587  1.0000
  H   H1666     1.0  0.94002  0.77330  0.23830  1.0000
  H   H1667     1.0  0.72908  0.80201  0.13896  1.0000
  H   H1668     1.0  0.56494  0.74618  0.13888  1.0000
  H   H1669     1.0  0.65193  0.81614  0.18497  1.0000
  H   H1670     1.0  0.79400  0.74148  0.23321  1.0000
  H   H1671     1.0  0.62273  0.80037  0.30295  1.0000
  Fe  Fe278     1.0  0.63815  0.74413  0.14747  1.0000
  C   C1673     1.0  0.76670  0.75810  0.12540  1.0000
  H   H1672     1.0  0.78030  0.76553  0.22845  1.0000
  C   C1674     1.0  0.75497  0.75667  0.14356  1.0000
  H   H1673     1.0  0.68923  0.80482  0.30143  1.0000
  C   C1675     1.0  0.81709  0.97436  0.10744  1.0000
  S   S558      1.0  0.66457  0.83886  0.31347  1.0000
  H   H1674     1.0  0.91705  0.74975  0.24752  1.0000
  H   H1675     1.0  0.80800  0.96713  0.11968  1.0000
  C   C1676     1.0  0.92677  0.75039  0.23372  1.0000
  H   H1676     1.0  0.92547  0.74791  0.10848  1.0000
  C   C1677     1.0  0.92614  0.73813  0.22097  1.0000
  C   C1678     1.0  0.57546  0.82165  0.31051  1.0000
  C   C1679     1.0  0.91869  0.73915  0.15356  1.0000
  H   H1677     1.0  0.88246  0.73851  0.21836  1.0000
  H   H1678     1.0  0.86968  0.74010  0.10161  1.0000
  S   S559      1.0  0.88285  0.73515  0.31225  1.0000
  S   S560      1.0  0.85374  0.73594  0.15687  1.0000
  H   H1679     1.0  0.67114  0.92130  0.35641  1.0000
  H   H1680     1.0  0.64436  0.78226  0.35368  1.0000
  H   H1681     1.0  0.63522  0.88798  0.41803  1.0000
  S   S561      1.0  0.70467  0.82040  0.34711  1.0000
  H   H1682     1.0  0.49415  0.91938  0.35978  1.0000
  Fe  Fe279     1.0  0.71665  0.84736  0.34661  1.0000
  S   S562      1.0  0.71191  0.85826  0.37486  1.0000
  N   N141      1.0  0.57665  0.83395  0.32253  1.0000
  H   H1683     1.0  0.70518  0.78153  0.33252  1.0000
  H   H1684     1.0  0.63994  0.91021  0.40228  1.0000
  N   N142      1.0  0.63723  0.88801  0.38779  1.0000
  H   H1685     1.0  0.70660  0.87846  0.40622  1.0000
  Fe  Fe280     1.0  0.63673  0.95304  0.38464  1.0000
  S   S563      1.0  0.61336  0.94865  0.41039  1.0000
  S   S564      1.0  0.66723  0.94109  0.38958  1.0000
  Fe  Fe281     1.0  0.59519  0.94652  0.38834  1.0000
  S   S565      1.0  0.57732  0.92176  0.39443  1.0000
  S   S566      1.0  0.61314  0.76793  0.34213  1.0000
  C   C1680     1.0  0.66196  0.97796  0.41552  1.0000
  S   S567      1.0  0.61954  0.94873  0.36306  1.0000
  C   C1681     1.0  0.63309  0.88570  0.35578  1.0000
  H   H1686     1.0  0.68892  0.91062  0.41215  1.0000
  Fe  Fe282     1.0  0.50966  0.87094  0.34800  1.0000
  S   S568      1.0  0.51212  0.84674  0.37311  1.0000
  S   S569      1.0  0.53075  0.89289  0.34017  1.0000
  Fe  Fe283     1.0  0.50736  0.82844  0.35259  1.0000
  H   H1687     1.0  0.54925  0.77210  0.32368  1.0000
  H   H1688     1.0  0.66127  0.86913  0.39866  1.0000
  H   H1689     1.0  0.68992  0.88927  0.34997  1.0000
  C   C1682     1.0  0.69310  0.77378  0.33854  1.0000
  C   C1683     1.0  0.78154  0.75480  0.33327  1.0000
  C   C1684     1.0  0.54809  0.79126  0.34385  1.0000
  C   C1685     1.0  0.55879  0.79779  0.35502  1.0000
  C   C1686     1.0  0.57867  0.79034  0.35458  1.0000
  C   C1687     1.0  0.58804  0.77653  0.34281  1.0000
  S   S570      1.0  0.52303  0.79982  0.34411  1.0000
  C   C1688     1.0  0.55745  0.77736  0.33222  1.0000
  H   H1690     1.0  0.55167  0.80825  0.36428  1.0000
  H   H1691     1.0  0.58681  0.79526  0.36341  1.0000
  H   H1692     1.0  0.67168  0.85343  0.36969  1.0000
  C   C1689     1.0  0.80113  0.74975  0.33563  1.0000
  H   H1693     1.0  0.55460  0.85846  0.31867  1.0000
  H   H1694     1.0  0.80860  0.79326  0.34255  1.0000
  C   C1690     1.0  0.51059  0.92046  0.40047  1.0000
  C   C1691     1.0  0.56588  0.91297  0.37854  1.0000
  C   C1692     1.0  0.55574  0.89729  0.38592  1.0000
  C   C1693     1.0  0.54532  0.89066  0.37432  1.0000
  C   C1694     1.0  0.54494  0.89958  0.35507  1.0000
  C   C1695     1.0  0.55562  0.91482  0.34750  1.0000
  C   C1696     1.0  0.56597  0.92152  0.35913  1.0000
  H   H1695     1.0  0.55564  0.89046  0.40087  1.0000
  H   H1696     1.0  0.53738  0.87881  0.38037  1.0000
  H   H1697     1.0  0.55553  0.92181  0.33262  1.0000
  H   H1698     1.0  0.57370  0.93355  0.35316  1.0000
  N   N143      1.0  0.69609  0.75399  0.34176  1.0000
  C   C1697     1.0  0.80112  0.78249  0.33988  1.0000
  H   H1699     1.0  0.58436  0.75941  0.32256  1.0000
  C   C1698     1.0  0.57736  0.77014  0.33156  1.0000
  H   H1700     1.0  0.67210  0.79997  0.33997  1.0000
  H   H1701     1.0  0.53045  0.95673  0.36946  1.0000
  S   S571      1.0  0.74747  0.77988  0.32985  1.0000
  H   H1702     1.0  0.61600  0.90359  0.40711  1.0000
  C   C1699     1.0  0.55900  0.84635  0.33017  1.0000
  C   C1700     1.0  0.77176  0.77380  0.33390  1.0000
  C   C1701     1.0  0.66210  0.75417  0.35374  1.0000
  H   H1703     1.0  0.62274  0.97712  0.44959  1.0000
  S   S572      1.0  0.50654  0.85228  0.32692  1.0000
  H   H1704     1.0  0.62541  0.89085  0.34358  1.0000
  N   N144      1.0  0.50061  0.91509  0.38840  1.0000
  C   C1702     1.0  0.67449  0.78427  0.34282  1.0000
  S   S573      1.0  0.74603  0.83686  0.33022  1.0000
  H   H1705     1.0  0.65388  0.86440  0.34177  1.0000
  C   C1703     1.0  0.78164  0.78762  0.33720  1.0000
  C   C1704     1.0  0.69947  0.88164  0.37773  1.0000
  C   C1705     1.0  0.68949  0.89380  0.36362  1.0000
  C   C1706     1.0  0.67871  0.91185  0.36733  1.0000
  C   C1707     1.0  0.67857  0.91796  0.38485  1.0000
  C   C1708     1.0  0.68877  0.90589  0.39871  1.0000
  C   C1709     1.0  0.69890  0.88773  0.39529  1.0000
  H   H1706     1.0  0.51082  0.91264  0.41509  1.0000
  Fe  Fe284     1.0  0.73299  0.81122  0.32838  1.0000
  C   C1710     1.0  0.65894  0.77436  0.35054  1.0000
  H   H1707     1.0  0.68147  0.97865  0.44389  1.0000
  C   C1711     1.0  0.65289  0.87349  0.38692  1.0000
  C   C1712     1.0  0.64900  0.87083  0.35479  1.0000
  C   C1713     1.0  0.52169  0.94535  0.37490  1.0000
  S   S574      1.0  0.83557  0.75781  0.34195  1.0000
  H   H1708     1.0  0.90709  0.75585  0.34331  1.0000
  C   C1714     1.0  0.65890  0.86456  0.37050  1.0000
  C   C1715     1.0  0.51163  0.93965  0.36264  1.0000
  H   H1709     1.0  0.64662  0.97568  0.41813  1.0000
  C   C1716     1.0  0.68087  0.74414  0.34909  1.0000
  C   C1717     1.0  0.62737  0.89418  0.37250  1.0000
  C   C1718     1.0  0.81098  0.76361  0.33896  1.0000
  H   H1710     1.0  0.77399  0.74398  0.33082  1.0000
  H   H1711     1.0  0.66724  0.98014  0.39965  1.0000
  C   C1719     1.0  0.52122  0.93571  0.39393  1.0000
  C   C1720     1.0  0.63182  0.89792  0.40464  1.0000
  H   H1712     1.0  0.61509  0.90586  0.37309  1.0000
  H   H1713     1.0  0.52972  0.93949  0.40328  1.0000
  H   H1714     1.0  0.77427  0.80223  0.33787  1.0000
  H   H1715     1.0  0.87122  0.76406  0.35185  1.0000
  H   H1716     1.0  0.51256  0.94649  0.34759  1.0000
  C   C1721     1.0  0.61101  0.82295  0.32007  1.0000
  H   H1717     1.0  0.64994  0.74640  0.35920  1.0000
  H   H1718     1.0  0.59517  0.84479  0.33649  1.0000
  H   H1719     1.0  0.54698  0.83782  0.33556  1.0000
  H   H1720     1.0  0.85325  0.74206  0.37721  1.0000
  S   S575      1.0  0.70456  0.86393  0.32044  1.0000
  H   H1721     1.0  0.56100  0.85268  0.34253  1.0000
  Fe  Fe285     1.0  0.69469  0.83632  0.31967  1.0000
  H   H1722     1.0  0.72593  0.74808  0.34442  1.0000
  C   C1722     1.0  0.87904  0.75111  0.35943  1.0000
  H   H1723     1.0  0.67066  0.96441  0.42196  1.0000
  C   C1723     1.0  0.86895  0.73873  0.37371  1.0000
  C   C1724     1.0  0.89914  0.74654  0.35468  1.0000
  C   C1725     1.0  0.59417  0.83492  0.32712  1.0000
  H   H1724     1.0  0.49955  0.88533  0.39022  1.0000
  Fe  Fe286     1.0  0.62977  0.75147  0.31826  1.0000
  C   C1726     1.0  0.50120  0.92431  0.36964  1.0000
  H   H1725     1.0  0.72071  0.74657  0.32101  1.0000
  C   C1727     1.0  0.71576  0.74351  0.33689  1.0000
  H   H1726     1.0  0.62485  0.82345  0.32398  1.0000
  S   S576      1.0  0.58396  0.97859  0.38487  1.0000
  Fe  Fe287     1.0  0.60935  0.98087  0.36076  1.0000
  Fe  Fe288     1.0  0.60464  0.98097  0.40433  1.0000
  H   H1727     1.0  0.63899  0.98245  0.47545  1.0000
  C   C1728     1.0  0.49036  0.89849  0.39508  1.0000
  H   H1728     1.0  0.80850  0.73507  0.33518  1.0000
