data_image0
_chemical_formula_structural       HCH2CS2HCNSFeH2S2HCSHSFeSFeSFeSFeSFe2S2FeS2FeS2FeSFeS3FeS2FeS2FeSFeS3C6H4C6H4C6H10C2HC2HC6H4C2HCH5SC3H2CH2NCH3CS2C6H3C3H2NC6H8NC6H8CH6SH3C2H3FeC2NHFeNC3H2FeCSCHC2HCSH4CSH2NC6H8C4SCFeC2HNSCHC2HC3SCS2CNC2NC2HCSH4NCH2CNC6H9C4H2CHCH2C3S2C2HFeCH2CFeHSC2HSC3FeC2SFeH6SC2HFeHFeH2FeCH2SHC8HCHC5H2CSHSC3HNHCHSCH5C2H2CHNHFeHCHC2HCHSCSHFeS2HS2HCFeSHSC2FeSCFeSNC2FeSHCFeH3CNH5CSH2CNCHCH3C4H3SH3C2H2C2H5C2HC5FeHCNCH3SCH4NHCHC3HC3SHCHC2HC2FeS2FeHCFeS3FeS2FeS2FeS2FeSFeS3HCHFeSH2SH3C3SHNHSHCSCH2SHC2HCNH2C2HC7HNH2SCHC6H5C6H4C6H4CSC4HCHCHSC3HCHCSHCHCH2C3H3SC2H2C3HCH2CHCSNH2NHCHFeH3CH2CHNC6H9C2HCHC3FeH3CHC3SH3C2HFeC2H2CSHCHC2HCHFeSHCHCHCH2C3H2C2H2CSHCHNSC3FeCNHSCHSHCH3C2HCH4SHCFeSHFeS2FeSFe2SCSFeSFeSCFeS2FeSFeHS2HFeSFeHSFeHCHCSHSHFeSC6H4C3H2CH2CHC6H4C6HC2SC6H7C2H2S2HCH3C2H3CSCSFeC2SC2H2CHC2H2CH4CSCH2FeH4SFeCFeHCNHSCHSHSC2H2CH2C2HC3HCHNSHCHNFeSCH2CHCSHFeHCH3CHCH2CHC3SNC6H2SH2S4HCSH4C2H3C2HCNH3CSCHCHCFeSN2C6H9CHC8HSHC2HC2HC3HCNC2HCSC3HCNS2CH2SH3CHNH3NC2HSCH3C2NSFeHC4S3HCHC2SCFeS2FeSFeNSHCH5CSCHNC4FeS2FeS2FeSFeS2FeS2FeS2FeSFeS3FeSHFeS2FeSFeS3C6H4CHC2HC6H5C6HCH3C2H2FeH2CHCHC2SCH3C7H4CNC2FeSCHCSH2C2NC6H8C2SCFeH2C2SC2H6C4H3CNC6H9SCHC4HCH2CH2C3HNHNC6H4SH3NH3C2HSH3CHSH2C2H3CNCHC3HFeCSHCHC4H2CH2CH3SCHC4SCHCHC2HCH4C2HC2HC2FeSNCH2C2HSC2NH2SHCH10C3SH3CFeSHFeS2FeSFeHS2C7SH2FeS2FeS2FeHFeS3FeC4HNCHSHNSC2HC2H2CHC2H2CH6CH2C2HC8H6CHC5HCH2C3H2C3HCHSC3SCSNCHSCHCH5C2HC3FeSH3NC3H4NH2CHC3FeHCH4CSH8CH2CHC2FeHC2H2C2S2FeS2FeS2FeSFeS3H5SCHSHCH2CSC2FeC3HCSH2CHC2H2CHCHSH2CHFeC2HCSCHFeHNFeC2HN2SCHSNC8H4C5H6C2H3C6H4C6H5CHSH2C2HCH4NFeCFeC2HFeCHC3HSFeHC2H2CH3C2HCSHC2H3CHSCNHSHCSH2NCH4C2H2CSHFeS2HFeSCSC2H3SHC2FeHC2H5C2NCHC2H2CH2C2HCFeS2CH3SHFeC3SHCHNC2HC2HNCHC4SCH3SCH2FeCHCSC4HCH2FeCHSHFeHSH2CHFeHCHC3SC2HSNH2CSCH4CFeS2FeS2FeCFeS4NFeHCFeSHFeSH2SFeS2FeS2FeSFeHS2FeS2FeS2FeSFeHS2HC2H2C2H2CHC2NCHC6H4C2HC2H2C6H6CH2SH2NCHC4H2C10H6C2SC2H2SHC2H3C5H2CSNCHCHCH3C2HC3HC2H2SC2HCHC3HNH4NCH2SCFeHCSNC2SC4H3FeNFeCHSHCH5C5HCHCHCH3C2NHC2HC3H8C2FeC4H3CH4C3H2CSHSHCH4CH4CH2CHCH2C2SC5H3C2HCH2CHSFeC2H2CSFeCH2SFeHFeS2FeSHFeSFeSFeS3H2CH3CHC3HC2SH2C5HSH2SC2HCSCH2C6H4NHCSCSC7H4SHFeCH2C4HC2HSHCNCH2FeSC2H3NCH2CH5FeC2S2CHSCH4C2H2C3HNHSCHCH2CH3C2H3NSC4FeS2FeS2FeHFeS3FeS2CHFeCSHFeS2FeSHFeSFeS3H4CH4C6H4C6H4C6H2SHC7H3CHCH2C7H3C2HNH2C3HSH3CSCH2NH2C2HCH2CSH2FeSCNC2HCSCHFeC5HNC6H6NHC3HCH2CH2CH2C3HCH2C3H2NCHCH4C5HFeHS2FeSFeSC2FeC2HCFeSH3SH3SCFeSC3HC2HC2SFeSCFeS2FeSFeS3HCSFe2SHNC3H2CHFeSCNHCHSHCSCH2C6H4C3H4SCHC6HCH4NC3SHC5H3NH2CSCH2CHFeH2NCHCSHCNHCHC8H4SCHC6H5CH3C2SHCFeC2HNCH2C3HNC6H8NC2H5C2HC2SC3FeC3H2C2H2C4H2CH5FeHSH3CHSH2C3HSNC2HCSCHCHC2SCSH3SCH2SH2CHCH2CH2SH5CNSC2FeH2SHSHCH2C2HCHCSCSCH2FeH2SFeSFeS2CSHFeSFeS3FeSH2CH3Fe2S2FeHCFeC2S3FeS2CHFeSCSHC4HCH2FeHCHCSCH3CH5C6H4C3HFeCH2C2H2CSH2CHC7H3C6H4SC3H2CHC2SH2CSCFe3HFeH5NHNH3C2SC3NFeHCSCHSH2SCH4NC2NC4NHCSCH3SHC4HSC5HC2HNSC2H3CH3SC2HC3SNHFeH4CFeS2CSFeSFeS3CHSFe2S2HFeS2CHFeS2FeS2FeSFeS3C2SFeHFeC5H2C6H4FeSC4H2CNC3SH3FeC6H4C6H3NC6H8NC6H2SH6FeC3HCFeC4FeH3C2HS2NH2CH2C3H3SC2H3CH2SHSHCH2CSH3CSHCHCH3NH2CNFeHNCH2SCFeSCH5C6HC2H2CSHCFeHCHCHC5SCH3C2H3FeCSHCHNH4NCH2C3HCH4C3H5C2H2CHSC3H2CH2SHFeSFeS2HFeS2FeS2FeSFeS3FeS2FeSFeHFeS3FeS2FeS2HCH3C2FeHC3HCSC3HCHC4H3C6H4C6H4C6H4CFeH3SHCH3SC4NFeC5SCNC6H8NSCHC3SCH4CNH2C2NH2CHCH2CH3CH2CNC4SHCHCFeHSCH5SH3CHCN2C2HC3H4SH2CFeC2FeC4HCSH5C2HCH2SCH4CH2CHCHCSCH2C2SCSHFeSCFeS2FeHFe2S2FeS2FeS2FeSFeS5FeSFeS2FeS2FeSFeS4H2SHSCHSC3FeHSCH2SH2C6H4C6H4C7H4C6H2SHC6HSH2C6H4SHCH5CH2C4H3C7H5FeNC6H2SH5SC4FeHSHC2HC2HSCHCSCFeHNC5H5NC6H8NC2H2CH2CH2FeHC3HC3HCHCH2C2FeCNC5SHSNH2CN2C6H8NHCH3C2SCHCH3CHFeCHCSCH2C2H2CH3CHFeHCFeC3H2NHC3H2SHFeH3C3SHSH2CHCH4CHCHC2HCHCFeC2HCFeSHSFeC2NS2CHCHCHCS2C2NHSCH3NHSH2C2H3CSC3H3FeHFeSCHFeS2FeS2FeSFeS3FeS2FeS2FeSFeS3FeS2FeS2FeSFeS4HC4FeNC2HFeCH4CH2CHFeHSC2HCH3C2H2CHC4H2C6H2C6H6C3H5CH2NHCFeC2HC6H5C6H3C6H5C7H2FeCH2CHFe2SH2NHNC6H8NC6H3C2NH2C2SC3H3CHCH2NC6H8CN2CHCNC6H8C2HFeSH3C4HCHNC6H8CHCHCHCH2SCSCHFeCHFeCNSCHCFeS2HCHC2SCFeHCH5SHCH3C2HSCSNHC2SHC2FeC2HCHSCH2CNSH4C3HS2CSHC3H2S3CH2C3HC2SC2HCH2CHCHC2H2CSHCH2SH3CH3SFeH4CS2HC3FeHNFeS2HCFeS3FeSFeSFeS2HS2FeSCHFe2SFeS3H3SFeS2FeSHSFeH2FeH2C5H4C2HCNC2H2CHC6H4C3HC2HSNH2CHFeH2C8H4CHC7H3C6H6CSCHFeCH2C3HNC6H8CH2CNSCNC6H8C3SHSC3HSNSH3SH4CHCHSFe2H2C3H4CH3CH2C3SC2H2CH4C4HC4SCH3C2S2HNSFeC2HCHFeSNCH2CHSC2H4C2H2C2HSCHS2FeCH4C5NC4HC2FeCH4SC2NHCHCHCFeC2HCSFeHCFeHNHSC5NH2CS2CH2SHCNH2C2FeCH2FeCHSCHFeS2FeSFe2SFeS4FeS2C3FeS2HCSFeS3H5C6H4CHCH2SHFeCSC2HCHC7H3CH2SC7H6NCSHCH2C6H4C3HNHCHCHCH2SC3HCH2CHC2H2C2HCHSH2CHSHCH3CH2CHCHCH2NFeNHCHSNH4C3HCH2CNHC2FeSCSC2HSHS3FeS2FeSFeS2FeHSFeHSFeSFeHS3FeS2FeS2FeSFeS3FeS2FeS2FeSFeS3FeHS3C6H4C6H4CHC6FeH3C6H4C6H4C6H2FeC6H4C2H5C5H4C7H6SCSHFeHCSCHFeHSFeNC2H2NFeHNFeHFeCHCHC2H4NC5H2C7H3CHC2NHCSH2SHCNC6H8C3H2NC6H8NHCH2C2H6CHNC6H6CHCHFeSH3CHCH2CSH2C8HSHCH3C2HC4FeC2H2C2H2S2H2CHCHSC2H4C4HS2HFeH2NHSH4SNHFeCHCH2FeHSCH2SH3CHC2HSFeHSHC2HCFeHSHSH2S2CHFeSC2FeS2FeS2FeS2FeS2FeHFeCS2CHCSC2HC2H3C3HNCH5CH4CH4CSCNCHCHCFeH2CHC6H7CH2CFeC6HSHCHNHCFeCH2C6H5C2S3CH2C5HSNHC5HCHC2H2CH2C2HC2SFeNC5HSH4C3NH4C2HC3FeC2H2CH2CHCH2C3H2NHCHC2HCNH3SHCSHC2HCH7CSHNH2SFeH2FeS3C2FeHC2HC2FeHCH2CH3C2HSC3SCH2CHSHSH2C2H3CFeHCHSN2SHCHCH5CFeH2C3HNCH2C3
_chemical_formula_sum              "H2304 C2304 S768 N192 Fe384"
_cell_length_a       75.0968
_cell_length_b       74.922
_cell_length_c       75.2824
_cell_angle_alpha    75.0413
_cell_angle_beta     74.9267
_cell_angle_gamma    75.0409

_space_group_name_H-M_alt    "P 1"
_space_group_IT_number       1

loop_
  _space_group_symop_operation_xyz
  'x, y, z'

loop_
  _atom_site_type_symbol
  _atom_site_label
  _atom_site_symmetry_multiplicity
  _atom_site_fract_x
  _atom_site_fract_y
  _atom_site_fract_z
  _atom_site_occupancy
  H   H1        1.0  0.01035  0.07790  0.46666  1.0000
  C   C1        1.0  0.00346  0.06753  0.47708  1.0000
  H   H2        1.0  0.05094  0.09722  0.47720  1.0000
  H   H3        1.0  0.03159  0.23693  0.98922  1.0000
  C   C2        1.0  0.31550  0.12786  0.77676  1.0000
  S   S1        1.0  0.31798  0.01018  0.63300  1.0000
  S   S2        1.0  0.10671  0.20484  0.87346  1.0000
  H   H4        1.0  0.02001  0.13627  0.54000  1.0000
  C   C3        1.0  0.10469  0.13587  0.72861  1.0000
  N   N1        1.0  0.28505  0.99066  0.82289  1.0000
  S   S3        1.0  0.02506  0.08131  0.54869  1.0000
  Fe  Fe1       1.0  0.01808  0.05615  0.57075  1.0000
  H   H5        1.0  0.99989  0.21887  0.97263  1.0000
  H   H6        1.0  0.26779  0.11776  0.70249  1.0000
  S   S4        1.0  0.24920  0.20016  0.81769  1.0000
  S   S5        1.0  0.26446  0.00933  0.65561  1.0000
  H   H7        1.0  0.31308  0.04590  0.64533  1.0000
  C   C4        1.0  0.29934  0.09718  0.61197  1.0000
  S   S6        1.0  0.28193  0.18996  0.85101  1.0000
  H   H8        1.0  0.05256  0.09024  0.58830  1.0000
  S   S7        1.0  0.25587  0.08182  0.77785  1.0000
  Fe  Fe2       1.0  0.27680  0.07957  0.79521  1.0000
  S   S8        1.0  0.27579  0.10367  0.80838  1.0000
  Fe  Fe3       1.0  0.25565  0.05167  0.79236  1.0000
  S   S9        1.0  0.23046  0.03820  0.80411  1.0000
  Fe  Fe4       1.0  0.24908  0.01690  0.63172  1.0000
  S   S10       1.0  0.23436  0.04538  0.63838  1.0000
  Fe  Fe5       1.0  0.28709  0.02281  0.63471  1.0000
  S   S11       1.0  0.27539  0.05159  0.64095  1.0000
  Fe  Fe6       1.0  0.25176  0.03879  0.66025  1.0000
  Fe  Fe7       1.0  0.25933  0.05555  0.61863  1.0000
  S   S12       1.0  0.25840  0.08190  0.59635  1.0000
  S   S13       1.0  0.27301  0.02774  0.61035  1.0000
  Fe  Fe8       1.0  0.13265  0.16149  0.78555  1.0000
  S   S14       1.0  0.15452  0.14139  0.80042  1.0000
  S   S15       1.0  0.10674  0.18033  0.79910  1.0000
  Fe  Fe9       1.0  0.15227  0.15030  0.74778  1.0000
  S   S16       1.0  0.17581  0.12949  0.75936  1.0000
  S   S17       1.0  0.15223  0.15746  0.71690  1.0000
  Fe  Fe10      1.0  0.15294  0.12125  0.78377  1.0000
  S   S18       1.0  0.15089  0.09139  0.79752  1.0000
  Fe  Fe11      1.0  0.17531  0.15158  0.77478  1.0000
  S   S19       1.0  0.20225  0.15951  0.77453  1.0000
  S   S20       1.0  0.12919  0.14034  0.77089  1.0000
  S   S21       1.0  0.15359  0.17334  0.76110  1.0000
  Fe  Fe12      1.0  0.15535  0.11620  0.60422  1.0000
  S   S22       1.0  0.13169  0.14105  0.59971  1.0000
  S   S23       1.0  0.17709  0.10955  0.57890  1.0000
  Fe  Fe13      1.0  0.14250  0.10914  0.64682  1.0000
  S   S24       1.0  0.11742  0.13287  0.64515  1.0000
  S   S25       1.0  0.14834  0.09519  0.67571  1.0000
  Fe  Fe14      1.0  0.11418  0.12195  0.62115  1.0000
  S   S26       1.0  0.08588  0.11785  0.61930  1.0000
  Fe  Fe15      1.0  0.13788  0.14899  0.62409  1.0000
  S   S27       1.0  0.14003  0.17817  0.62602  1.0000
  S   S28       1.0  0.13777  0.09665  0.62463  1.0000
  S   S29       1.0  0.16304  0.12552  0.62653  1.0000
  C   C5        1.0  0.15150  0.13954  0.70611  1.0000
  C   C6        1.0  0.15223  0.12076  0.71578  1.0000
  C   C7        1.0  0.15130  0.10701  0.70649  1.0000
  C   C8        1.0  0.14937  0.11212  0.68768  1.0000
  C   C9        1.0  0.14848  0.13088  0.67826  1.0000
  C   C10       1.0  0.14979  0.14447  0.68733  1.0000
  H   H9        1.0  0.15358  0.11683  0.73032  1.0000
  H   H10       1.0  0.15199  0.09248  0.71389  1.0000
  H   H11       1.0  0.14663  0.13499  0.66394  1.0000
  H   H12       1.0  0.14915  0.15898  0.67986  1.0000
  C   C11       1.0  0.23576  0.08983  0.59169  1.0000
  C   C12       1.0  0.23346  0.09771  0.57325  1.0000
  C   C13       1.0  0.21536  0.10362  0.56935  1.0000
  C   C14       1.0  0.19957  0.10202  0.58394  1.0000
  C   C15       1.0  0.20184  0.09450  0.60243  1.0000
  C   C16       1.0  0.21995  0.08835  0.60629  1.0000
  H   H13       1.0  0.24568  0.09896  0.56195  1.0000
  H   H14       1.0  0.21358  0.10953  0.55504  1.0000
  H   H15       1.0  0.18966  0.09313  0.61371  1.0000
  H   H16       1.0  0.22166  0.08289  0.62062  1.0000
  C   C17       1.0  0.20846  0.05338  0.80252  1.0000
  C   C18       1.0  0.20670  0.07299  0.79713  1.0000
  C   C19       1.0  0.18904  0.08477  0.79564  1.0000
  C   C20       1.0  0.17306  0.07695  0.79962  1.0000
  C   C21       1.0  0.17474  0.05739  0.80536  1.0000
  C   C22       1.0  0.19239  0.04564  0.80679  1.0000
  H   H17       1.0  0.21885  0.07915  0.79432  1.0000
  H   H18       1.0  0.18780  0.09989  0.79158  1.0000
  H   H19       1.0  0.16241  0.05128  0.80852  1.0000
  H   H20       1.0  0.19362  0.03050  0.81106  1.0000
  H   H21       1.0  0.26892  0.06627  0.67315  1.0000
  H   H22       1.0  0.30853  0.10288  0.69672  1.0000
  H   H23       1.0  0.27658  0.15720  0.70463  1.0000
  H   H24       1.0  0.10801  0.17981  0.70321  1.0000
  H   H25       1.0  0.28487  0.06822  0.83422  1.0000
  H   H26       1.0  0.01167  0.23596  0.90684  1.0000
  C   C23       1.0  0.16207  0.19756  0.63517  1.0000
  C   C24       1.0  0.15885  0.17984  0.63525  1.0000
  H   H27       1.0  0.15271  0.21029  0.62978  1.0000
  C   C25       1.0  0.29403  0.17306  0.66283  1.0000
  C   C26       1.0  0.28393  0.16856  0.65191  1.0000
  H   H28       1.0  0.27036  0.17714  0.64999  1.0000
  C   C27       1.0  0.19593  0.19266  0.81946  1.0000
  C   C28       1.0  0.20978  0.19482  0.80299  1.0000
  C   C29       1.0  0.21155  0.18474  0.78913  1.0000
  C   C30       1.0  0.19915  0.17284  0.79149  1.0000
  C   C31       1.0  0.18475  0.17137  0.80755  1.0000
  C   C32       1.0  0.18318  0.18120  0.82158  1.0000
  H   H29       1.0  0.28503  0.03102  0.71518  1.0000
  H   H30       1.0  0.22244  0.18630  0.77653  1.0000
  H   H31       1.0  0.17512  0.16227  0.80948  1.0000
  H   H32       1.0  0.17233  0.17962  0.83422  1.0000
  C   C33       1.0  0.30128  0.17967  0.83544  1.0000
  C   C34       1.0  0.99872  0.04828  0.50842  1.0000
  H   H33       1.0  0.07238  0.10109  0.48061  1.0000
  C   C35       1.0  0.10595  0.16542  0.70639  1.0000
  H   H34       1.0  0.23593  0.04718  0.72746  1.0000
  H   H35       1.0  0.30173  0.16235  0.71709  1.0000
  H   H36       1.0  0.30822  0.15460  0.85620  1.0000
  H   H37       1.0  0.10550  0.12728  0.74251  1.0000
  H   H38       1.0  0.29802  0.20279  0.81184  1.0000
  S   S30       1.0  0.30202  0.07018  0.77353  1.0000
  C   C36       1.0  0.08406  0.10811  0.60088  1.0000
  C   C37       1.0  0.06750  0.10205  0.60197  1.0000
  C   C38       1.0  0.00019  0.23362  0.97075  1.0000
  H   H39       1.0  0.00381  0.13008  0.51788  1.0000
  H   H40       1.0  0.05620  0.10308  0.61420  1.0000
  C   C39       1.0  0.17758  0.19883  0.64179  1.0000
  H   H41       1.0  0.30880  0.05682  0.85399  1.0000
  H   H42       1.0  0.25509  0.99881  0.59143  1.0000
  N   N2        1.0  0.10404  0.15759  0.69262  1.0000
  C   C40       1.0  0.32230  0.00855  0.84775  1.0000
  H   H43       1.0  0.25301  0.16893  0.86632  1.0000
  H   H44       1.0  0.31079  0.11424  0.78295  1.0000
  H   H45       1.0  0.22118  0.06249  0.54851  1.0000
  C   C41       1.0  0.10301  0.12792  0.71444  1.0000
  S   S31       1.0  0.24782  0.21390  0.64018  1.0000
  S   S32       1.0  0.04685  0.04657  0.57765  1.0000
  C   C42       1.0  0.10745  0.20010  0.85152  1.0000
  C   C43       1.0  0.12272  0.18690  0.84413  1.0000
  C   C44       1.0  0.12315  0.18152  0.82745  1.0000
  C   C45       1.0  0.10815  0.18914  0.81818  1.0000
  C   C46       1.0  0.09310  0.20275  0.82528  1.0000
  C   C47       1.0  0.09277  0.20829  0.84188  1.0000
  H   H46       1.0  0.13419  0.18063  0.85146  1.0000
  H   H47       1.0  0.13484  0.17113  0.82209  1.0000
  H   H48       1.0  0.05817  0.22396  0.96574  1.0000
  C   C48       1.0  0.24085  0.22590  0.72369  1.0000
  C   C49       1.0  0.09286  0.99616  0.54880  1.0000
  C   C50       1.0  0.09831  0.00864  0.53205  1.0000
  H   H49       1.0  0.99892  0.22165  0.88794  1.0000
  H   H50       1.0  0.17328  0.06582  0.59418  1.0000
  N   N3        1.0  0.23577  0.14745  0.83394  1.0000
  C   C51       1.0  0.22296  0.15761  0.84614  1.0000
  C   C52       1.0  0.25466  0.14504  0.83298  1.0000
  C   C53       1.0  0.22896  0.16548  0.85795  1.0000
  C   C54       1.0  0.26115  0.15254  0.84474  1.0000
  C   C55       1.0  0.24817  0.16278  0.85732  1.0000
  C   C56       1.0  0.22942  0.13967  0.82123  1.0000
  H   H51       1.0  0.20799  0.15995  0.84667  1.0000
  H   H52       1.0  0.26478  0.13731  0.82307  1.0000
  H   H53       1.0  0.21875  0.17397  0.86722  1.0000
  H   H54       1.0  0.27614  0.15068  0.84394  1.0000
  H   H55       1.0  0.99341  0.01759  0.60586  1.0000
  H   H56       1.0  0.23696  0.12479  0.82116  1.0000
  H   H57       1.0  0.21408  0.13976  0.82545  1.0000
  H   H58       1.0  0.23221  0.14815  0.80673  1.0000
  N   N4        1.0  0.19018  0.16690  0.59264  1.0000
  C   C57       1.0  0.19974  0.14863  0.59307  1.0000
  C   C58       1.0  0.19679  0.17906  0.59889  1.0000
  C   C59       1.0  0.21615  0.14197  0.60034  1.0000
  C   C60       1.0  0.21315  0.17286  0.60627  1.0000
  C   C61       1.0  0.22280  0.15417  0.60708  1.0000
  C   C62       1.0  0.17315  0.17349  0.58476  1.0000
  H   H59       1.0  0.19460  0.13912  0.58785  1.0000
  H   H60       1.0  0.18921  0.19353  0.59863  1.0000
  H   H61       1.0  0.22365  0.12745  0.60073  1.0000
  H   H62       1.0  0.21804  0.18239  0.61175  1.0000
  H   H63       1.0  0.23537  0.14917  0.61298  1.0000
  H   H64       1.0  0.17698  0.17543  0.56921  1.0000
  H   H65       1.0  0.16382  0.16308  0.59044  1.0000
  H   H66       1.0  0.16472  0.18702  0.58861  1.0000
  C   C63       1.0  0.28263  0.14216  0.77444  1.0000
  H   H67       1.0  0.19771  0.03067  0.62817  1.0000
  H   H68       1.0  0.18018  0.21247  0.64146  1.0000
  H   H69       1.0  0.18698  0.07400  0.56036  1.0000
  H   H70       1.0  0.28645  0.08026  0.68784  1.0000
  H   H71       1.0  0.25859  0.01003  0.86761  1.0000
  H   H72       1.0  0.30644  0.04254  0.72760  1.0000
  S   S33       1.0  0.27903  0.03949  0.77069  1.0000
  H   H73       1.0  0.16332  0.22039  0.69513  1.0000
  H   H74       1.0  0.28020  0.02070  0.68936  1.0000
  H   H75       1.0  0.28802  0.18949  0.78171  1.0000
  C   C64       1.0  0.21807  0.04332  0.59504  1.0000
  C   C65       1.0  0.22624  0.04777  0.57594  1.0000
  H   H76       1.0  0.22698  0.03511  0.60475  1.0000
  H   H77       1.0  0.24124  0.04298  0.57108  1.0000
  H   H78       1.0  0.16881  0.14999  0.64275  1.0000
  Fe  Fe16      1.0  0.29821  0.04091  0.78847  1.0000
  C   C66       1.0  0.09858  0.10674  0.58497  1.0000
  C   C67       1.0  0.00213  0.00764  0.59731  1.0000
  N   N5        1.0  0.29118  0.12979  0.69983  1.0000
  H   H79       1.0  0.25386  0.15597  0.77258  1.0000
  Fe  Fe17      1.0  0.25130  0.22760  0.79745  1.0000
  N   N6        1.0  0.12420  0.00865  0.57546  1.0000
  C   C68       1.0  0.19110  0.04512  0.62156  1.0000
  C   C69       1.0  0.10269  0.13904  0.69643  1.0000
  C   C70       1.0  0.11722  0.00644  0.52265  1.0000
  H   H80       1.0  0.21911  0.20432  0.80082  1.0000
  H   H81       1.0  0.06227  0.08125  0.49505  1.0000
  Fe  Fe18      1.0  0.22080  0.23024  0.68661  1.0000
  C   C71       1.0  0.27114  0.07165  0.71602  1.0000
  S   S34       1.0  0.23211  0.22447  0.85133  1.0000
  C   C72       1.0  0.07978  0.09378  0.57125  1.0000
  H   H82       1.0  0.17572  0.04563  0.62430  1.0000
  C   C73       1.0  0.31724  0.08356  0.84749  1.0000
  C   C74       1.0  0.02796  0.12851  0.52913  1.0000
  H   H83       1.0  0.20459  0.20053  0.74843  1.0000
  C   C75       1.0  0.18979  0.18233  0.64859  1.0000
  S   S35       1.0  0.02360  0.03666  0.55091  1.0000
  H   H84       1.0  0.11135  0.11144  0.58392  1.0000
  H   H85       1.0  0.25335  0.06132  0.74220  1.0000
  H   H86       1.0  0.19349  0.05548  0.62846  1.0000
  H   H87       1.0  0.29682  0.06708  0.60051  1.0000
  C   C76       1.0  0.06542  0.09475  0.58730  1.0000
  S   S36       1.0  0.28457  0.08053  0.72635  1.0000
  H   H88       1.0  0.02204  0.11147  0.49391  1.0000
  H   H89       1.0  0.10751  0.09914  0.55778  1.0000
  N   N7        1.0  0.09902  0.14525  0.84384  1.0000
  C   C77       1.0  0.11254  0.13939  0.85445  1.0000
  C   C78       1.0  0.10017  0.13661  0.82951  1.0000
  C   C79       1.0  0.12767  0.12442  0.85088  1.0000
  C   C80       1.0  0.11500  0.12150  0.82567  1.0000
  C   C81       1.0  0.12877  0.11532  0.83651  1.0000
  C   C82       1.0  0.08253  0.15999  0.84862  1.0000
  H   H90       1.0  0.11175  0.14641  0.86566  1.0000
  H   H91       1.0  0.08968  0.14154  0.82082  1.0000
  H   H92       1.0  0.13850  0.11993  0.85915  1.0000
  H   H93       1.0  0.11598  0.11471  0.81424  1.0000
  H   H94       1.0  0.14046  0.10372  0.83348  1.0000
  H   H95       1.0  0.08591  0.16970  0.85564  1.0000
  H   H96       1.0  0.07771  0.16880  0.83572  1.0000
  H   H97       1.0  0.07087  0.15348  0.85813  1.0000
  C   C83       1.0  0.29155  0.15289  0.64332  1.0000
  C   C84       1.0  0.05721  0.11088  0.51415  1.0000
  C   C85       1.0  0.09635  0.09977  0.57017  1.0000
  C   C86       1.0  0.21498  0.05863  0.56331  1.0000
  S   S37       1.0  0.23129  0.19976  0.68564  1.0000
  C   C87       1.0  0.14614  0.22907  0.86053  1.0000
  Fe  Fe19      1.0  0.26065  0.21141  0.83612  1.0000
  C   C88       1.0  0.26555  0.06503  0.68816  1.0000
  C   C89       1.0  0.31095  0.06690  0.60169  1.0000
  H   H98       1.0  0.16922  0.22788  0.72300  1.0000
  N   N8        1.0  0.04826  0.10774  0.50191  1.0000
  S   S38       1.0  0.31914  0.12222  0.63523  1.0000
  C   C90       1.0  0.25140  0.05552  0.69928  1.0000
  H   H99       1.0  0.31478  0.01537  0.85938  1.0000
  C   C91       1.0  0.01998  0.99830  0.60051  1.0000
  C   C92       1.0  0.11449  0.04187  0.54996  1.0000
  H   H100      1.0  0.08145  0.20869  0.81815  1.0000
  C   C93       1.0  0.24688  0.05448  0.71875  1.0000
  C   C94       1.0  0.27534  0.07315  0.69650  1.0000
  C   C95       1.0  0.19577  0.06490  0.56990  1.0000
  S   S39       1.0  0.28491  0.19212  0.67415  1.0000
  C   C96       1.0  0.99572  0.00435  0.58288  1.0000
  S   S40       1.0  0.07732  0.08589  0.55191  1.0000
  S   S41       1.0  0.06952  0.99961  0.56154  1.0000
  C   C97       1.0  0.24359  0.99224  0.59222  1.0000
  N   N9        1.0  0.19918  0.04933  0.60138  1.0000
  C   C98       1.0  0.25813  0.00987  0.83915  1.0000
  C   C99       1.0  0.17107  0.16360  0.64225  1.0000
  N   N10       1.0  0.18644  0.20085  0.73082  1.0000
  C   C100      1.0  0.19428  0.18341  0.72665  1.0000
  C   C101      1.0  0.26794  0.00278  0.82306  1.0000
  H   H101      1.0  0.29839  0.12325  0.81899  1.0000
  C   C102      1.0  0.17194  0.20989  0.70399  1.0000
  S   S42       1.0  0.08308  0.22622  0.91637  1.0000
  H   H102      1.0  0.13418  0.23677  0.85358  1.0000
  H   H103      1.0  0.20299  0.17296  0.73547  1.0000
  H   H104      1.0  0.31907  0.16488  0.67426  1.0000
  H   H105      1.0  0.05437  0.12343  0.53781  1.0000
  N   N11       1.0  0.29940  0.14386  0.77717  1.0000
  C   C103      1.0  0.04723  0.12137  0.52787  1.0000
  H   H106      1.0  0.31498  0.16221  0.78090  1.0000
  H   H107      1.0  0.26790  0.21574  0.73154  1.0000
  C   C104      1.0  0.17530  0.21400  0.71979  1.0000
  N   N12       1.0  0.19848  0.09101  0.68842  1.0000
  C   C105      1.0  0.20330  0.08234  0.70536  1.0000
  C   C106      1.0  0.19584  0.11023  0.68271  1.0000
  C   C107      1.0  0.20529  0.09297  0.71726  1.0000
  C   C108      1.0  0.19772  0.12131  0.69425  1.0000
  C   C109      1.0  0.20237  0.11258  0.71167  1.0000
  C   C110      1.0  0.19642  0.07946  0.67634  1.0000
  H   H108      1.0  0.20560  0.06708  0.70976  1.0000
  H   H109      1.0  0.19176  0.11716  0.66940  1.0000
  H   H110      1.0  0.20899  0.08600  0.73075  1.0000
  H   H111      1.0  0.19506  0.13659  0.68990  1.0000
  H   H112      1.0  0.20354  0.12100  0.72091  1.0000
  H   H113      1.0  0.21036  0.07096  0.67096  1.0000
  H   H114      1.0  0.18677  0.06976  0.68444  1.0000
  H   H115      1.0  0.19021  0.08818  0.66421  1.0000
  H   H116      1.0  0.07209  0.10496  0.51361  1.0000
  C   C111      1.0  0.17982  0.19212  0.69970  1.0000
  C   C112      1.0  0.26910  0.17446  0.77738  1.0000
  C   C113      1.0  0.02930  0.11453  0.50316  1.0000
  C   C114      1.0  0.13225  0.03025  0.54632  1.0000
  H   H117      1.0  0.28309  0.12026  0.67942  1.0000
  H   H118      1.0  0.19573  0.15201  0.65408  1.0000
  C   C115      1.0  0.31946  0.13505  0.71437  1.0000
  H   H119      1.0  0.29466  0.09511  0.62750  1.0000
  C   C116      1.0  0.10608  0.15477  0.72462  1.0000
  H   H120      1.0  0.19718  0.16495  0.70777  1.0000
  H   H121      1.0  0.08095  0.21849  0.84748  1.0000
  C   C117      1.0  0.30007  0.02765  0.70971  1.0000
  C   C118      1.0  0.12933  0.99098  0.58873  1.0000
  C   C119      1.0  0.29291  0.07778  0.83522  1.0000
  S   S43       1.0  0.02457  0.07126  0.50034  1.0000
  S   S44       1.0  0.27462  0.05028  0.81144  1.0000
  C   C120      1.0  0.31835  0.01643  0.82976  1.0000
  C   C121      1.0  0.10656  0.01971  0.57888  1.0000
  H   H122      1.0  0.28402  0.14969  0.63447  1.0000
  Fe  Fe20      1.0  0.22069  0.20692  0.65884  1.0000
  C   C122      1.0  0.10486  0.16867  0.67337  1.0000
  H   H123      1.0  0.24576  0.22126  0.71048  1.0000
  H   H124      1.0  0.00210  0.98912  0.56075  1.0000
  C   C123      1.0  0.18807  0.06020  0.58912  1.0000
  Fe  Fe21      1.0  0.28075  0.06961  0.75763  1.0000
  H   H125      1.0  0.25730  0.18646  0.77750  1.0000
  S   S45       1.0  0.21007  0.18228  0.65617  1.0000
  C   C124      1.0  0.30623  0.07142  0.84670  1.0000
  C   C125      1.0  0.01889  0.12506  0.51672  1.0000
  H   H126      1.0  0.10026  0.18405  0.67310  1.0000
  S   S46       1.0  0.32291  0.01661  0.79214  1.0000
  C   C126      1.0  0.25678  0.06243  0.72712  1.0000
  C   C127      1.0  0.30895  0.14149  0.64617  1.0000
  C   C128      1.0  0.29031  0.09635  0.82488  1.0000
  Fe  Fe22      1.0  0.25734  0.20856  0.66728  1.0000
  C   C129      1.0  0.28893  0.14601  0.70607  1.0000
  C   C130      1.0  0.26719  0.15739  0.77462  1.0000
  S   S47       1.0  0.06251  0.05255  0.53185  1.0000
  Fe  Fe23      1.0  0.05455  0.07015  0.55382  1.0000
  H   H127      1.0  0.09553  0.16485  0.66627  1.0000
  H   H128      1.0  0.32228  0.11182  0.83873  1.0000
  H   H129      1.0  0.10255  0.11307  0.71719  1.0000
  H   H130      1.0  0.29255  0.99665  0.69593  1.0000
  H   H131      1.0  0.17713  0.18860  0.68766  1.0000
  H   H132      1.0  0.30788  0.02929  0.82760  1.0000
  S   S48       1.0  0.23923  0.04461  0.68941  1.0000
  C   C131      1.0  0.27656  0.12701  0.69177  1.0000
  C   C132      1.0  0.19109  0.17878  0.71105  1.0000
  H   H133      1.0  0.26184  0.00723  0.81063  1.0000
  Fe  Fe24      1.0  0.22113  0.21558  0.83072  1.0000
  H   H134      1.0  0.10190  0.13257  0.68540  1.0000
  Fe  Fe25      1.0  0.05318  0.02955  0.55543  1.0000
  H   H135      1.0  0.10817  0.16090  0.73532  1.0000
  H   H136      1.0  0.08771  0.04553  0.56919  1.0000
  Fe  Fe26      1.0  0.03225  0.06125  0.52902  1.0000
  C   C133      1.0  0.26590  0.00438  0.85515  1.0000
  H   H137      1.0  0.08795  0.01986  0.52617  1.0000
  H   H138      1.0  0.12139  0.01633  0.50983  1.0000
  S   S49       1.0  0.19564  0.20278  0.83811  1.0000
  H   H139      1.0  0.26744  0.14067  0.68665  1.0000
  C   C134      1.0  0.31840  0.14553  0.65789  1.0000
  C   C135      1.0  0.18634  0.16480  0.64890  1.0000
  C   C136      1.0  0.10156  0.03660  0.56633  1.0000
  C   C137      1.0  0.30614  0.18901  0.81678  1.0000
  C   C138      1.0  0.31212  0.03412  0.71687  1.0000
  C   C139      1.0  0.24723  0.22853  0.75290  1.0000
  C   C140      1.0  0.29431  0.01107  0.68823  1.0000
  C   C141      1.0  0.30028  0.10887  0.82687  1.0000
  H   H140      1.0  0.18541  0.22041  0.74763  1.0000
  C   C142      1.0  0.00778  0.06166  0.49506  1.0000
  H   H141      1.0  0.09619  0.01554  0.59131  1.0000
  C   C143      1.0  0.31383  0.10242  0.83806  1.0000
  C   C144      1.0  0.22217  0.23528  0.72873  1.0000
  C   C145      1.0  0.13691  0.01360  0.55931  1.0000
  C   C146      1.0  0.31131  0.16159  0.66567  1.0000
  C   C147      1.0  0.99558  0.23683  0.88672  1.0000
  H   H142      1.0  0.24470  0.01975  0.83902  1.0000
  H   H143      1.0  0.11953  0.16601  0.66509  1.0000
  C   C148      1.0  0.25338  0.22270  0.73567  1.0000
  S   S50       1.0  0.02916  0.22768  0.94055  1.0000
  H   H144      1.0  0.29983  0.01087  0.67304  1.0000
  S   S51       1.0  0.15455  0.99023  0.51901  1.0000
  C   C149      1.0  0.30313  0.14900  0.71323  1.0000
  C   C150      1.0  0.31196  0.16189  0.84177  1.0000
  C   C151      1.0  0.30691  0.11587  0.70137  1.0000
  H   H145      1.0  0.18100  0.19759  0.76046  1.0000
  N   N13       1.0  0.30714  0.01746  0.69583  1.0000
  H   H146      1.0  0.28106  0.12891  0.77230  1.0000
  C   C152      1.0  0.18945  0.20506  0.74766  1.0000
  H   H147      1.0  0.14222  0.03382  0.53331  1.0000
  S   S52       1.0  0.26345  0.22486  0.76730  1.0000
  C   C153      1.0  0.28636  0.17617  0.77976  1.0000
  H   H148      1.0  0.12050  0.99119  0.60306  1.0000
  H   H149      1.0  0.11058  0.05485  0.54005  1.0000
  H   H150      1.0  0.00173  0.04376  0.52233  1.0000
  H   H151      1.0  0.15060  0.00444  0.55613  1.0000
  H   H152      1.0  0.28707  0.09839  0.60573  1.0000
  C   C154      1.0  0.30150  0.16069  0.77941  1.0000
  C   C155      1.0  0.00722  0.99159  0.57193  1.0000
  H   H153      1.0  0.02527  0.00115  0.61138  1.0000
  H   H154      1.0  0.32218  0.03955  0.59429  1.0000
  C   C156      1.0  0.32189  0.18078  0.80461  1.0000
  H   H155      1.0  0.30419  0.11080  0.60672  1.0000
  N   N14       1.0  0.31464  0.08146  0.60707  1.0000
  H   H156      1.0  0.14060  0.21990  0.87395  1.0000
  Fe  Fe27      1.0  0.08543  0.22844  0.88556  1.0000
  H   H157      1.0  0.32337  0.12775  0.76209  1.0000
  C   C157      1.0  0.05903  0.09633  0.48797  1.0000
  H   H158      1.0  0.29351  0.99465  0.79312  1.0000
  C   C158      1.0  0.32125  0.11826  0.70870  1.0000
  C   C159      1.0  0.28316  0.99167  0.85500  1.0000
  H   H159      1.0  0.14425  0.98858  0.58991  1.0000
  C   C160      1.0  0.13075  0.99172  0.52998  1.0000
  H   H160      1.0  0.15603  0.21953  0.85152  1.0000
  S   S53       1.0  0.22959  0.99957  0.62836  1.0000
  C   C161      1.0  0.22943  0.99089  0.60851  1.0000
  S   S54       1.0  0.20743  0.23697  0.66162  1.0000
  H   H161      1.0  0.28948  0.98740  0.86730  1.0000
  Fe  Fe28      1.0  0.07053  0.45323  0.14991  1.0000
  S   S55       1.0  0.08512  0.45433  0.11981  1.0000
  S   S56       1.0  0.04664  0.43759  0.16462  1.0000
  H   H162      1.0  0.12023  0.47767  0.05829  1.0000
  S   S57       1.0  0.18667  0.46177  0.98210  1.0000
  S   S58       1.0  0.06303  0.48471  0.14702  1.0000
  H   H163      1.0  0.04697  0.41315  0.10965  1.0000
  C   C162      1.0  0.15805  0.43811  0.07975  1.0000
  Fe  Fe29      1.0  0.11094  0.45471  0.12923  1.0000
  S   S59       1.0  0.13907  0.43917  0.11611  1.0000
  H   H164      1.0  0.99898  0.44286  0.12535  1.0000
  S   S60       1.0  0.09717  0.45065  0.15999  1.0000
  C   C163      1.0  0.02505  0.27046  0.99897  1.0000
  C   C164      1.0  0.16778  0.47511  0.08897  1.0000
  Fe  Fe30      1.0  0.18046  0.46345  0.01238  1.0000
  S   S61       1.0  0.20470  0.44002  0.01939  1.0000
  C   C165      1.0  0.03955  0.41493  0.12367  1.0000
  Fe  Fe31      1.0  0.22073  0.46349  0.01217  1.0000
  S   S62       1.0  0.23978  0.46488  0.03059  1.0000
  N   N15       1.0  0.06334  0.46810  0.20371  1.0000
  C   C166      1.0  0.04668  0.42425  0.13345  1.0000
  C   C167      1.0  0.05742  0.45380  0.20017  1.0000
  Fe  Fe32      1.0  0.09078  0.48242  0.15453  1.0000
  S   S63       1.0  0.01463  0.39687  0.11830  1.0000
  H   H165      1.0  0.03555  0.48635  0.03241  1.0000
  C   C168      1.0  0.12822  0.46025  0.08367  1.0000
  Fe  Fe33      1.0  0.21216  0.44015  0.98832  1.0000
  H   H166      1.0  0.16861  0.42709  0.08576  1.0000
  H   H167      1.0  0.11580  0.46669  0.09256  1.0000
  H   H168      1.0  0.04425  0.45652  0.19555  1.0000
  C   C169      1.0  0.02095  0.41937  0.15996  1.0000
  N   N16       1.0  0.30873  0.41714  0.46655  1.0000
  H   H169      1.0  0.04794  0.47730  0.11846  1.0000
  H   H170      1.0  0.15356  0.48156  0.09509  1.0000
  H   H171      1.0  0.01760  0.42878  0.08609  1.0000
  H   H172      1.0  0.19890  0.47630  0.04777  1.0000
  H   H173      1.0  0.01699  0.28410  0.99229  1.0000
  C   C170      1.0  0.02303  0.40786  0.13185  1.0000
  S   S64       1.0  0.10641  0.48621  0.12449  1.0000
  H   H174      1.0  0.17339  0.43863  0.05117  1.0000
  H   H175      1.0  0.08538  0.47623  0.21094  1.0000
  C   C171      1.0  0.19611  0.45162  0.09262  1.0000
  N   N17       1.0  0.99228  0.44491  0.09898  1.0000
  C   C172      1.0  0.14714  0.45893  0.05239  1.0000
  H   H176      1.0  0.17186  0.45588  0.11509  1.0000
  C   C173      1.0  0.01365  0.41020  0.15005  1.0000
  H   H177      1.0  0.20411  0.44006  0.10126  1.0000
  H   H178      1.0  0.02088  0.44631  0.09675  1.0000
  H   H179      1.0  0.18241  0.41490  0.99137  1.0000
  C   C174      1.0  0.16081  0.44471  0.06018  1.0000
  C   C175      1.0  0.03753  0.42643  0.15171  1.0000
  C   C176      1.0  0.14179  0.44599  0.09155  1.0000
  C   C177      1.0  0.06843  0.43551  0.20201  1.0000
  H   H180      1.0  0.01643  0.47164  0.12112  1.0000
  H   H181      1.0  0.12450  0.47389  0.17959  1.0000
  H   H182      1.0  0.11020  0.48159  0.02743  1.0000
  S   S65       1.0  0.15040  0.46814  0.02812  1.0000
  H   H183      1.0  0.09458  0.41793  0.20829  1.0000
  H   H184      1.0  0.05950  0.42938  0.12694  1.0000
  H   H185      1.0  0.11345  0.48603  0.99296  1.0000
  C   C178      1.0  0.30685  0.44851  0.44761  1.0000
  C   C179      1.0  0.13078  0.46655  0.06417  1.0000
  H   H186      1.0  0.31148  0.45805  0.43461  1.0000
  H   H187      1.0  0.01378  0.42090  0.17410  1.0000
  C   C180      1.0  0.01190  0.44332  0.08868  1.0000
  C   C181      1.0  0.28722  0.44324  0.47862  1.0000
  H   H188      1.0  0.14900  0.47303  0.19674  1.0000
  H   H189      1.0  0.04577  0.48309  0.05236  1.0000
  H   H190      1.0  0.07842  0.48446  0.04817  1.0000
  H   H191      1.0  0.10544  0.44426  0.21417  1.0000
  H   H192      1.0  0.21767  0.45058  0.06732  1.0000
  C   C182      1.0  0.29311  0.45557  0.46196  1.0000
  C   C183      1.0  0.08571  0.43196  0.20728  1.0000
  H   H193      1.0  0.06380  0.42434  0.19875  1.0000
  C   C184      1.0  0.31464  0.42915  0.45019  1.0000
  C   C185      1.0  0.04012  0.48487  0.10770  1.0000
  C   C186      1.0  0.09180  0.44669  0.21057  1.0000
  C   C187      1.0  0.24008  0.48638  0.03610  1.0000
  C   C188      1.0  0.17812  0.46059  0.10043  1.0000
  Fe  Fe34      1.0  0.07944  0.48554  0.11750  1.0000
  H   H194      1.0  0.00093  0.40480  0.15654  1.0000
  C   C189      1.0  0.25258  0.48651  0.04707  1.0000
  N   N18       1.0  0.17510  0.48036  0.07021  1.0000
  C   C190      1.0  0.08037  0.46478  0.20871  1.0000
  H   H195      1.0  0.15928  0.39962  0.98573  1.0000
  H   H196      1.0  0.26103  0.47334  0.05298  1.0000
  H   H197      1.0  0.30852  0.39046  0.46190  1.0000
  S   S66       1.0  0.23074  0.46132  0.98174  1.0000
  C   C191      1.0  0.20366  0.45740  0.07359  1.0000
  H   H198      1.0  0.01286  0.45372  0.07514  1.0000
  H   H199      1.0  0.27791  0.48077  0.01067  1.0000
  H   H200      1.0  0.03040  0.27273  0.01048  1.0000
  H   H201      1.0  0.26017  0.48263  0.98711  1.0000
  N   N19       1.0  0.04077  0.26273  0.98498  1.0000
  H   H202      1.0  0.99759  0.31918  0.10918  1.0000
  C   C192      1.0  0.31630  0.39678  0.46854  1.0000
  H   H203      1.0  0.18756  0.34976  0.98672  1.0000
  C   C193      1.0  0.19293  0.47195  0.06255  1.0000
  C   C194      1.0  0.07977  0.48610  0.03313  1.0000
  C   C195      1.0  0.13782  0.48540  0.19514  1.0000
  H   H204      1.0  0.01487  0.26092  0.00532  1.0000
  C   C196      1.0  0.02222  0.48164  0.10921  1.0000
  C   C197      1.0  0.04227  0.24515  0.98183  1.0000
  C   C198      1.0  0.09775  0.48461  0.02150  1.0000
  S   S67       1.0  0.19587  0.48680  0.00736  1.0000
  H   H205      1.0  0.28717  0.47061  0.46017  1.0000
  C   C199      1.0  0.12396  0.48585  0.18542  1.0000
  H   H206      1.0  0.03684  0.48681  0.20920  1.0000
  C   C200      1.0  0.00566  0.28166  0.83303  1.0000
  C   C201      1.0  0.17472  0.43582  0.79497  1.0000
  H   H207      1.0  0.17668  0.47231  0.70716  1.0000
  C   C202      1.0  0.00304  0.29926  0.83752  1.0000
  C   C203      1.0  0.24011  0.27377  0.69427  1.0000
  Fe  Fe35      1.0  0.06015  0.26727  0.88194  1.0000
  S   S68       1.0  0.05655  0.26861  0.91216  1.0000
  S   S69       1.0  0.04471  0.29260  0.86457  1.0000
  Fe  Fe36      1.0  0.08742  0.25598  0.90803  1.0000
  H   H208      1.0  0.17296  0.43968  0.85549  1.0000
  C   C204      1.0  0.07044  0.46700  0.87227  1.0000
  Fe  Fe37      1.0  0.05727  0.40685  0.80910  1.0000
  S   S70       1.0  0.07265  0.40166  0.83247  1.0000
  S   S71       1.0  0.03633  0.38761  0.81685  1.0000
  S   S72       1.0  0.09432  0.43552  0.80756  1.0000
  Fe  Fe38      1.0  0.09821  0.40449  0.80970  1.0000
  S   S73       1.0  0.12529  0.38369  0.81282  1.0000
  S   S74       1.0  0.08355  0.40724  0.78634  1.0000
  Fe  Fe39      1.0  0.16396  0.36558  0.93359  1.0000
  S   S75       1.0  0.14317  0.38021  0.91519  1.0000
  S   S76       1.0  0.16120  0.37795  0.95888  1.0000
  Fe  Fe40      1.0  0.18102  0.33489  0.91069  1.0000
  S   S77       1.0  0.16187  0.34732  0.89029  1.0000
  S   S78       1.0  0.20150  0.30697  0.90986  1.0000
  Fe  Fe41      1.0  0.16749  0.37492  0.89143  1.0000
  S   S79       1.0  0.16851  0.39937  0.86691  1.0000
  Fe  Fe42      1.0  0.13919  0.35148  0.91568  1.0000
  S   S80       1.0  0.11053  0.34720  0.91588  1.0000
  S   S81       1.0  0.18888  0.36233  0.90968  1.0000
  S   S82       1.0  0.15776  0.33700  0.93636  1.0000
  H   H209      1.0  0.14807  0.44758  0.76776  1.0000
  C   C205      1.0  0.22627  0.33967  0.95274  1.0000
  H   H210      1.0  0.27666  0.44863  0.48992  1.0000
  Fe  Fe43      1.0  0.23572  0.25022  0.82859  1.0000
  S   S83       1.0  0.22512  0.28056  0.83180  1.0000
  H   H211      1.0  0.22894  0.27076  0.70636  1.0000
  H   H212      1.0  0.24007  0.34311  0.94693  1.0000
  S   S84       1.0  0.22222  0.24223  0.80918  1.0000
  H   H213      1.0  0.01276  0.28513  0.89722  1.0000
  H   H214      1.0  0.20790  0.27729  0.68525  1.0000
  H   H215      1.0  0.01882  0.26263  0.91200  1.0000
  C   C206      1.0  0.09456  0.45077  0.85028  1.0000
  C   C207      1.0  0.13895  0.45976  0.93017  1.0000
  C   C208      1.0  0.04729  0.31184  0.80649  1.0000
  S   S85       1.0  0.24788  0.23849  0.67056  1.0000
  H   H216      1.0  0.31522  0.38960  0.48358  1.0000
  N   N20       1.0  0.04251  0.32030  0.78950  1.0000
  H   H217      1.0  0.99763  0.41245  0.81241  1.0000
  S   S86       1.0  0.23798  0.27114  0.62511  1.0000
  H   H218      1.0  0.02077  0.38871  0.75671  1.0000
  C   C209      1.0  0.20225  0.32475  0.95192  1.0000
  S   S87       1.0  0.09160  0.25757  0.87717  1.0000
  C   C210      1.0  0.16162  0.42621  0.92158  1.0000
  H   H219      1.0  0.18100  0.42247  0.82966  1.0000
  H   H220      1.0  0.00144  0.28624  0.96439  1.0000
  S   S88       1.0  0.22145  0.41576  0.97308  1.0000
  H   H221      1.0  0.16276  0.42885  0.79686  1.0000
  C   C211      1.0  0.17257  0.26861  0.86996  1.0000
  C   C212      1.0  0.13532  0.45204  0.91672  1.0000
  H   H222      1.0  0.02309  0.32260  0.77229  1.0000
  C   C213      1.0  0.02830  0.38837  0.78265  1.0000
  N   N21       1.0  0.15342  0.45076  0.93924  1.0000
  H   H223      1.0  0.04044  0.30075  0.77453  1.0000
  H   H224      1.0  0.22670  0.32973  0.91557  1.0000
  C   C214      1.0  0.00782  0.35960  0.79843  1.0000
  C   C215      1.0  0.05746  0.32007  0.81420  1.0000
  H   H225      1.0  0.12280  0.45429  0.84756  1.0000
  C   C216      1.0  0.31895  0.41064  0.52019  1.0000
  C   C217      1.0  0.26106  0.27545  0.61739  1.0000
  C   C218      1.0  0.27653  0.26112  0.62115  1.0000
  C   C219      1.0  0.29482  0.26475  0.61498  1.0000
  C   C220      1.0  0.29779  0.28280  0.60534  1.0000
  C   C221      1.0  0.28229  0.29731  0.60202  1.0000
  C   C222      1.0  0.26396  0.29358  0.60789  1.0000
  H   H226      1.0  0.27444  0.24713  0.62852  1.0000
  N   N22       1.0  0.15548  0.24248  0.86388  1.0000
  H   H227      1.0  0.28445  0.31125  0.59455  1.0000
  H   H228      1.0  0.25203  0.30475  0.60501  1.0000
  S   S89       1.0  0.10909  0.26212  0.92012  1.0000
  C   C223      1.0  0.14785  0.25083  0.87908  1.0000
  H   H229      1.0  0.07071  0.34359  0.81012  1.0000
  C   C224      1.0  0.20762  0.29942  0.88827  1.0000
  C   C225      1.0  0.21628  0.28053  0.88757  1.0000
  C   C226      1.0  0.22156  0.27441  0.87039  1.0000
  C   C227      1.0  0.21841  0.28726  0.85379  1.0000
  C   C228      1.0  0.20968  0.30608  0.85455  1.0000
  C   C229      1.0  0.20426  0.31214  0.87170  1.0000
  H   H230      1.0  0.21899  0.27062  0.90033  1.0000
  H   H231      1.0  0.22836  0.25989  0.86994  1.0000
  H   H232      1.0  0.20725  0.31610  0.84175  1.0000
  H   H233      1.0  0.19791  0.32677  0.87196  1.0000
  H   H234      1.0  0.19264  0.26391  0.84449  1.0000
  C   C230      1.0  0.13805  0.38861  0.82686  1.0000
  C   C231      1.0  0.13359  0.40615  0.83197  1.0000
  C   C232      1.0  0.14351  0.40967  0.84367  1.0000
  C   C233      1.0  0.15772  0.39552  0.85060  1.0000
  C   C234      1.0  0.16236  0.37802  0.84537  1.0000
  C   C235      1.0  0.15264  0.37462  0.83339  1.0000
  H   H235      1.0  0.12238  0.41694  0.82710  1.0000
  H   H236      1.0  0.13966  0.42305  0.84799  1.0000
  H   H237      1.0  0.17349  0.36708  0.85051  1.0000
  H   H238      1.0  0.15623  0.36103  0.82942  1.0000
  C   C236      1.0  0.10934  0.28591  0.91841  1.0000
  C   C237      1.0  0.12459  0.29029  0.92268  1.0000
  C   C238      1.0  0.12518  0.30911  0.92156  1.0000
  C   C239      1.0  0.11023  0.32361  0.91672  1.0000
  C   C240      1.0  0.09485  0.31925  0.91262  1.0000
  C   C241      1.0  0.09449  0.30042  0.91325  1.0000
  H   H239      1.0  0.13602  0.27911  0.92686  1.0000
  H   H240      1.0  0.13707  0.31236  0.92476  1.0000
  H   H241      1.0  0.08324  0.33044  0.90889  1.0000
  H   H242      1.0  0.08267  0.29714  0.90995  1.0000
  C   C242      1.0  0.00915  0.36794  0.77939  1.0000
  S   S90       1.0  0.20666  0.24061  0.71328  1.0000
  C   C243      1.0  0.01643  0.36572  0.80956  1.0000
  C   C244      1.0  0.02666  0.38012  0.80177  1.0000
  C   C245      1.0  0.13411  0.46005  0.71695  1.0000
  C   C246      1.0  0.01956  0.38225  0.77148  1.0000
  H   H243      1.0  0.20155  0.24826  0.75000  1.0000
  C   C247      1.0  0.03118  0.31180  0.78208  1.0000
  H   H244      1.0  0.01300  0.31616  0.85056  1.0000
  C   C248      1.0  0.15714  0.45898  0.95325  1.0000
  H   H245      1.0  0.17671  0.44513  0.78075  1.0000
  S   S91       1.0  0.12024  0.47893  0.87178  1.0000
  C   C249      1.0  0.02961  0.28787  0.85296  1.0000
  C   C250      1.0  0.03218  0.27014  0.84875  1.0000
  C   C251      1.0  0.02019  0.26704  0.83880  1.0000
  H   H246      1.0  0.04369  0.25896  0.85266  1.0000
  C   C252      1.0  0.19684  0.34339  0.97531  1.0000
  H   H247      1.0  0.17049  0.41295  0.91853  1.0000
  C   C253      1.0  0.00700  0.27275  0.90627  1.0000
  S   S92       1.0  0.04995  0.43834  0.80699  1.0000
  H   H248      1.0  0.15021  0.27045  0.89452  1.0000
  C   C254      1.0  0.19554  0.38894  0.94973  1.0000
  H   H249      1.0  0.00043  0.34824  0.80463  1.0000
  C   C255      1.0  0.18007  0.26027  0.85432  1.0000
  H   H250      1.0  0.06068  0.31363  0.82799  1.0000
  H   H251      1.0  0.19928  0.38166  0.93819  1.0000
  C   C256      1.0  0.16497  0.43445  0.93478  1.0000
  C   C257      1.0  0.07099  0.24821  0.95877  1.0000
  C   C258      1.0  0.17025  0.44712  0.84172  1.0000
  H   H252      1.0  0.23079  0.30631  0.92971  1.0000
  H   H253      1.0  0.30672  0.25345  0.61761  1.0000
  H   H254      1.0  0.15841  0.47395  0.84991  1.0000
  S   S93       1.0  0.31089  0.38305  0.55104  1.0000
  C   C259      1.0  0.15827  0.47553  0.82093  1.0000
  C   C260      1.0  0.17304  0.39910  0.97648  1.0000
  H   H255      1.0  0.24679  0.29308  0.64813  1.0000
  H   H256      1.0  0.12374  0.45914  0.90965  1.0000
  C   C261      1.0  0.20880  0.39719  0.95326  1.0000
  C   C262      1.0  0.19042  0.33219  0.96714  1.0000
  C   C263      1.0  0.05917  0.34474  0.78634  1.0000
  H   H257      1.0  0.11740  0.43962  0.77060  1.0000
  C   C264      1.0  0.21648  0.28676  0.67455  1.0000
  H   H258      1.0  0.30789  0.42006  0.52775  1.0000
  H   H259      1.0  0.14401  0.46734  0.96043  1.0000
  C   C265      1.0  0.13663  0.45853  0.76330  1.0000
  H   H260      1.0  0.02338  0.26731  0.94216  1.0000
  C   C266      1.0  0.06323  0.33677  0.80412  1.0000
  S   S94       1.0  0.05810  0.44792  0.85288  1.0000
  N   N23       1.0  0.17096  0.44656  0.80977  1.0000
  H   H261      1.0  0.28786  0.26772  0.68250  1.0000
  H   H262      1.0  0.05111  0.47620  0.81960  1.0000
  N   N24       1.0  0.23603  0.28202  0.67693  1.0000
  H   H263      1.0  0.03616  0.39951  0.77652  1.0000
  C   C267      1.0  0.04877  0.33625  0.77917  1.0000
  H   H264      1.0  0.06352  0.35778  0.77846  1.0000
  Fe  Fe44      1.0  0.05235  0.23898  0.91783  1.0000
  H   H265      1.0  0.22274  0.39626  0.94437  1.0000
  H   H266      1.0  0.13515  0.24735  0.88878  1.0000
  H   H267      1.0  0.22357  0.24216  0.77128  1.0000
  C   C268      1.0  0.10434  0.46793  0.75898  1.0000
  H   H268      1.0  0.19710  0.31617  0.94553  1.0000
  H   H269      1.0  0.01528  0.35914  0.82431  1.0000
  C   C269      1.0  0.00286  0.24503  0.89727  1.0000
  H   H270      1.0  0.02065  0.30531  0.79362  1.0000
  N   N25       1.0  0.10472  0.37639  0.87425  1.0000
  C   C270      1.0  0.11620  0.38524  0.87884  1.0000
  C   C271      1.0  0.08613  0.38458  0.87475  1.0000
  C   C272      1.0  0.10917  0.40274  0.88407  1.0000
  C   C273      1.0  0.07861  0.40211  0.87988  1.0000
  C   C274      1.0  0.09023  0.41117  0.88466  1.0000
  C   C275      1.0  0.11244  0.35847  0.86794  1.0000
  H   H271      1.0  0.13089  0.37875  0.87850  1.0000
  H   H272      1.0  0.07708  0.37760  0.87100  1.0000
  H   H273      1.0  0.11843  0.40973  0.88751  1.0000
  H   H274      1.0  0.06394  0.40879  0.87992  1.0000
  H   H275      1.0  0.08457  0.42476  0.88866  1.0000
  H   H276      1.0  0.11397  0.36090  0.85246  1.0000
  H   H277      1.0  0.12647  0.35174  0.87146  1.0000
  H   H278      1.0  0.10308  0.34828  0.87511  1.0000
  H   H279      1.0  0.17934  0.27872  0.87236  1.0000
  C   C276      1.0  0.10822  0.45773  0.85457  1.0000
  C   C277      1.0  0.08413  0.47394  0.87663  1.0000
  H   H280      1.0  0.10901  0.47858  0.70948  1.0000
  C   C278      1.0  0.17122  0.24726  0.85140  1.0000
  H   H281      1.0  0.15967  0.47258  0.79292  1.0000
  C   C279      1.0  0.15630  0.26394  0.88239  1.0000
  C   C280      1.0  0.00100  0.27154  0.96618  1.0000
  C   C281      1.0  0.05401  0.27324  0.97521  1.0000
  Fe  Fe45      1.0  0.20450  0.48290  0.97765  1.0000
  H   H282      1.0  0.05581  0.47068  0.87912  1.0000
  H   H283      1.0  0.14398  0.42890  0.90216  1.0000
  H   H284      1.0  0.16737  0.46836  0.94640  1.0000
  C   C282      1.0  0.05730  0.23770  0.96858  1.0000
  H   H285      1.0  0.18781  0.42478  0.79551  1.0000
  C   C283      1.0  0.16196  0.47340  0.70724  1.0000
  C   C284      1.0  0.25008  0.28618  0.66178  1.0000
  C   C285      1.0  0.17774  0.38953  0.96161  1.0000
  S   S95       1.0  0.08233  0.46241  0.76146  1.0000
  H   H286      1.0  0.02227  0.25334  0.83545  1.0000
  H   H287      1.0  0.13009  0.47295  0.93338  1.0000
  H   H288      1.0  0.99465  0.39555  0.83391  1.0000
  C   C286      1.0  0.01341  0.26085  0.95347  1.0000
  C   C287      1.0  0.13948  0.47690  0.75530  1.0000
  H   H289      1.0  0.12701  0.44854  0.72453  1.0000
  Fe  Fe46      1.0  0.07756  0.43837  0.78611  1.0000
  C   C288      1.0  0.16273  0.46535  0.80660  1.0000
  C   C289      1.0  0.01504  0.30242  0.84731  1.0000
  H   H290      1.0  0.24679  0.32145  0.92672  1.0000
  H   H291      1.0  0.26197  0.26140  0.71024  1.0000
  C   C290      1.0  0.25879  0.26849  0.69656  1.0000
  S   S96       1.0  0.32113  0.28631  0.59724  1.0000
  H   H292      1.0  0.04306  0.29876  0.81427  1.0000
  C   C291      1.0  0.20415  0.40659  0.96829  1.0000
  H   H293      1.0  0.17679  0.42769  0.94154  1.0000
  C   C292      1.0  0.27328  0.27203  0.68101  1.0000
  C   C293      1.0  0.07559  0.45564  0.85885  1.0000
  H   H294      1.0  0.08000  0.48296  0.88678  1.0000
  C   C294      1.0  0.23171  0.32119  0.92847  1.0000
  H   H295      1.0  0.21015  0.30162  0.67576  1.0000
  Fe  Fe47      1.0  0.06752  0.43300  0.82853  1.0000
  S   S97       1.0  0.99809  0.36070  0.76518  1.0000
  H   H296      1.0  0.04518  0.34285  0.76557  1.0000
  C   C295      1.0  0.10302  0.46946  0.86761  1.0000
  H   H297      1.0  0.29045  0.41441  0.49363  1.0000
  C   C296      1.0  0.22842  0.23746  0.75814  1.0000
  H   H298      1.0  0.16104  0.44532  0.72360  1.0000
  C   C297      1.0  0.18609  0.40781  0.97968  1.0000
  H   H299      1.0  0.16298  0.44776  0.96437  1.0000
  H   H300      1.0  0.09877  0.44153  0.84047  1.0000
  C   C298      1.0  0.14669  0.43510  0.91249  1.0000
  C   C299      1.0  0.11919  0.45402  0.76502  1.0000
  C   C300      1.0  0.12399  0.47714  0.70840  1.0000
  H   H301      1.0  0.05279  0.28722  0.97761  1.0000
  H   H302      1.0  0.21582  0.28483  0.66056  1.0000
  C   C301      1.0  0.17472  0.43743  0.82704  1.0000
  C   C302      1.0  0.26893  0.28106  0.66351  1.0000
  H   H303      1.0  0.21977  0.35628  0.97411  1.0000
  H   H304      1.0  0.28005  0.28382  0.65125  1.0000
  C   C303      1.0  0.15319  0.45825  0.71644  1.0000
  S   S98       1.0  0.31224  0.34226  0.59680  1.0000
  H   H305      1.0  0.07988  0.27444  0.95421  1.0000
  C   C304      1.0  0.06933  0.26614  0.96199  1.0000
  H   H306      1.0  0.17709  0.24100  0.83911  1.0000
  N   N26       1.0  0.21995  0.32847  0.94496  1.0000
  S   S99       1.0  0.26529  0.23787  0.81482  1.0000
  C   C305      1.0  0.32327  0.39141  0.52839  1.0000
  C   C306      1.0  0.16201  0.46629  0.83860  1.0000
  C   C307      1.0  0.21491  0.34710  0.96816  1.0000
  Fe  Fe48      1.0  0.23566  0.24334  0.64526  1.0000
  C   C308      1.0  0.01314  0.24179  0.95574  1.0000
  N   N27       1.0  0.99914  0.26423  0.89538  1.0000
  H   H307      1.0  0.17617  0.32974  0.97226  1.0000
  S   S100      1.0  0.05410  0.23825  0.88774  1.0000
  C   C309      1.0  0.21595  0.24095  0.74602  1.0000
  H   H308      1.0  0.08286  0.24253  0.94863  1.0000
  S   S101      1.0  0.16185  0.48170  0.75282  1.0000
  H   H309      1.0  0.99599  0.27720  0.91825  1.0000
  C   C310      1.0  0.06052  0.48383  0.80776  1.0000
  H   H310      1.0  0.06780  0.47401  0.79808  1.0000
  H   H311      1.0  0.09722  0.48233  0.79297  1.0000
  H   H312      1.0  0.32390  0.39300  0.65097  1.0000
  C   C311      1.0  0.10711  0.48635  0.75100  1.0000
  C   C312      1.0  0.29509  0.42391  0.48062  1.0000
  H   H313      1.0  0.25147  0.65788  0.12778  1.0000
  C   C313      1.0  0.22723  0.62526  0.32889  1.0000
  H   H314      1.0  0.24249  0.58951  0.25720  1.0000
  H   H315      1.0  0.29244  0.73024  0.25894  1.0000
  H   H316      1.0  0.05420  0.71455  0.39893  1.0000
  H   H317      1.0  0.22919  0.64643  0.27616  1.0000
  S   S102      1.0  0.20967  0.51626  0.26559  1.0000
  H   H318      1.0  0.30117  0.52101  0.11611  1.0000
  C   C314      1.0  0.23580  0.58883  0.24628  1.0000
  Fe  Fe49      1.0  0.30114  0.72235  0.08515  1.0000
  S   S103      1.0  0.29056  0.72236  0.11594  1.0000
  H   H319      1.0  0.30090  0.69151  0.04599  1.0000
  Fe  Fe50      1.0  0.30009  0.68103  0.09022  1.0000
  S   S104      1.0  0.28957  0.67722  0.12134  1.0000
  S   S105      1.0  0.09036  0.50202  0.17332  1.0000
  Fe  Fe51      1.0  0.27050  0.70537  0.11478  1.0000
  S   S106      1.0  0.24007  0.70980  0.12962  1.0000
  Fe  Fe52      1.0  0.31054  0.69427  0.11988  1.0000
  Fe  Fe53      1.0  0.29797  0.55355  0.07301  1.0000
  S   S107      1.0  0.27913  0.70774  0.08346  1.0000
  C   C315      1.0  0.99948  0.52160  0.12544  1.0000
  S   S108      1.0  0.28129  0.56195  0.09972  1.0000
  Fe  Fe54      1.0  0.26023  0.57932  0.08261  1.0000
  S   S109      1.0  0.24697  0.60848  0.08806  1.0000
  Fe  Fe55      1.0  0.15397  0.71017  0.25002  1.0000
  S   S110      1.0  0.17909  0.71309  0.25890  1.0000
  C   C316      1.0  0.21090  0.51736  0.14280  1.0000
  Fe  Fe56      1.0  0.17371  0.67258  0.23867  1.0000
  S   S111      1.0  0.20018  0.67242  0.24726  1.0000
  S   S112      1.0  0.17612  0.65003  0.22286  1.0000
  Fe  Fe57      1.0  0.18073  0.68252  0.27235  1.0000
  S   S113      1.0  0.18755  0.67180  0.30096  1.0000
  Fe  Fe58      1.0  0.19602  0.70287  0.23286  1.0000
  H   H320      1.0  0.17138  0.72398  0.45139  1.0000
  S   S114      1.0  0.15441  0.68000  0.26523  1.0000
  S   S115      1.0  0.17073  0.70258  0.22257  1.0000
  H   H321      1.0  0.04234  0.70401  0.45772  1.0000
  Fe  Fe59      1.0  0.15319  0.55788  0.24144  1.0000
  S   S116      1.0  0.13560  0.58072  0.25675  1.0000
  Fe  Fe60      1.0  0.26060  0.71407  0.32428  1.0000
  H   H322      1.0  0.26787  0.53226  0.99938  1.0000
  S   S117      1.0  0.27805  0.68776  0.31423  1.0000
  Fe  Fe61      1.0  0.16122  0.52283  0.22499  1.0000
  H   H323      1.0  0.16893  0.50602  0.98141  1.0000
  C   C317      1.0  0.21096  0.56349  0.28182  1.0000
  H   H324      1.0  0.24050  0.51263  0.28342  1.0000
  C   C318      1.0  0.24643  0.53653  0.98371  1.0000
  S   S118      1.0  0.26183  0.51963  0.13096  1.0000
  H   H325      1.0  0.21946  0.50363  0.02021  1.0000
  S   S119      1.0  0.23600  0.71984  0.34789  1.0000
  H   H326      1.0  0.32364  0.54562  0.35924  1.0000
  Fe  Fe62      1.0  0.27204  0.58554  0.33671  1.0000
  S   S120      1.0  0.26295  0.60646  0.35577  1.0000
  C   C319      1.0  0.27408  0.66528  0.32648  1.0000
  C   C320      1.0  0.28246  0.64987  0.31773  1.0000
  C   C321      1.0  0.27938  0.63174  0.32682  1.0000
  C   C322      1.0  0.26806  0.62885  0.34483  1.0000
  C   C323      1.0  0.25992  0.64420  0.35377  1.0000
  C   C324      1.0  0.26275  0.66246  0.34453  1.0000
  H   H327      1.0  0.29132  0.65197  0.30382  1.0000
  H   H328      1.0  0.28588  0.61997  0.31991  1.0000
  H   H329      1.0  0.25113  0.64203  0.36772  1.0000
  H   H330      1.0  0.25632  0.67427  0.35141  1.0000
  C   C325      1.0  0.18675  0.69130  0.31013  1.0000
  C   C326      1.0  0.20026  0.69061  0.32015  1.0000
  C   C327      1.0  0.20170  0.70701  0.32484  1.0000
  H   H331      1.0  0.31581  0.56462  0.39459  1.0000
  H   H332      1.0  0.11725  0.69233  0.29076  1.0000
  C   C328      1.0  0.17363  0.70807  0.30621  1.0000
  H   H333      1.0  0.21005  0.67760  0.32372  1.0000
  H   H334      1.0  0.21273  0.70649  0.33181  1.0000
  C   C329      1.0  0.31825  0.71026  0.29187  1.0000
  H   H335      1.0  0.16285  0.70849  0.29893  1.0000
  C   C330      1.0  0.16326  0.63195  0.23233  1.0000
  C   C331      1.0  0.16519  0.61862  0.22154  1.0000
  C   C332      1.0  0.15620  0.60329  0.22886  1.0000
  C   C333      1.0  0.14509  0.60117  0.24701  1.0000
  C   C334      1.0  0.14253  0.61488  0.25763  1.0000
  C   C335      1.0  0.15177  0.63019  0.25035  1.0000
  H   H336      1.0  0.17378  0.62006  0.20747  1.0000
  H   H337      1.0  0.15781  0.59314  0.22034  1.0000
  H   H338      1.0  0.13370  0.61350  0.27156  1.0000
  H   H339      1.0  0.15008  0.64054  0.25868  1.0000
  C   C336      1.0  0.23515  0.71214  0.15319  1.0000
  C   C337      1.0  0.24954  0.71156  0.16212  1.0000
  C   C338      1.0  0.24524  0.71260  0.18122  1.0000
  C   C339      1.0  0.22663  0.71382  0.19154  1.0000
  C   C340      1.0  0.21230  0.71448  0.18253  1.0000
  C   C341      1.0  0.21653  0.71376  0.16340  1.0000
  H   H340      1.0  0.26397  0.71017  0.15438  1.0000
  C   C342      1.0  0.03039  0.52693  0.12327  1.0000
  C   C343      1.0  0.31416  0.52176  0.11940  1.0000
  S   S121      1.0  0.30571  0.49940  0.43334  1.0000
  C   C344      1.0  0.29141  0.64336  0.07951  1.0000
  C   C345      1.0  0.27252  0.65040  0.08695  1.0000
  C   C346      1.0  0.25888  0.63968  0.08945  1.0000
  C   C347      1.0  0.26415  0.62178  0.08487  1.0000
  C   C348      1.0  0.28310  0.61467  0.07773  1.0000
  C   C349      1.0  0.29667  0.62550  0.07491  1.0000
  H   H341      1.0  0.26836  0.66428  0.09032  1.0000
  H   H342      1.0  0.24420  0.64530  0.09468  1.0000
  H   H343      1.0  0.28729  0.60093  0.07406  1.0000
  H   H344      1.0  0.28231  0.50165  0.01446  1.0000
  H   H345      1.0  0.12202  0.52848  0.20691  1.0000
  H   H346      1.0  0.26531  0.50368  0.05730  1.0000
  H   H347      1.0  0.24519  0.51099  0.17033  1.0000
  C   C350      1.0  0.02079  0.52254  0.98642  1.0000
  C   C351      1.0  0.05844  0.73051  0.34914  1.0000
  H   H348      1.0  0.01121  0.51218  0.06967  1.0000
  H   H349      1.0  0.19550  0.53168  0.32730  1.0000
  S   S122      1.0  0.28633  0.54923  0.30432  1.0000
  S   S123      1.0  0.15773  0.52686  0.25460  1.0000
  H   H350      1.0  0.24953  0.54683  0.21750  1.0000
  C   C352      1.0  0.04534  0.49142  0.03788  1.0000
  H   H351      1.0  0.23687  0.64968  0.32914  1.0000
  H   H352      1.0  0.01763  0.50609  0.14479  1.0000
  H   H353      1.0  0.31678  0.56834  0.10005  1.0000
  C   C353      1.0  0.30487  0.50326  0.40949  1.0000
  C   C354      1.0  0.28977  0.51632  0.40281  1.0000
  H   H354      1.0  0.27865  0.52361  0.41241  1.0000
  H   H355      1.0  0.24868  0.55970  0.24622  1.0000
  H   H356      1.0  0.04351  0.52329  0.12817  1.0000
  C   C355      1.0  0.01587  0.51732  0.13259  1.0000
  S   S124      1.0  0.00305  0.69256  0.42031  1.0000
  C   C356      1.0  0.21832  0.58620  0.21910  1.0000
  S   S125      1.0  0.28544  0.52813  0.07707  1.0000
  Fe  Fe63      1.0  0.26350  0.54802  0.06191  1.0000
  C   C357      1.0  0.24014  0.52580  0.16491  1.0000
  C   C358      1.0  0.09831  0.73505  0.31481  1.0000
  S   S126      1.0  0.23218  0.57441  0.29968  1.0000
  C   C359      1.0  0.18012  0.52608  0.17111  1.0000
  C   C360      1.0  0.03463  0.71006  0.44653  1.0000
  H   H357      1.0  0.00591  0.73202  0.40727  1.0000
  H   H358      1.0  0.20462  0.61531  0.21929  1.0000
  C   C361      1.0  0.24667  0.53380  0.14613  1.0000
  H   H359      1.0  0.07562  0.69911  0.39087  1.0000
  C   C362      1.0  0.20586  0.55088  0.27411  1.0000
  C   C363      1.0  0.23419  0.55287  0.22060  1.0000
  H   H360      1.0  0.02723  0.68390  0.44688  1.0000
  H   H361      1.0  0.20502  0.54695  0.13066  1.0000
  C   C364      1.0  0.02604  0.69872  0.44039  1.0000
  H   H362      1.0  0.01064  0.55478  0.08724  1.0000
  H   H363      1.0  0.13662  0.50524  0.98075  1.0000
  H   H364      1.0  0.22707  0.54266  0.23194  1.0000
  H   H365      1.0  0.16796  0.52924  0.18217  1.0000
  C   C365      1.0  0.04673  0.70965  0.33713  1.0000
  S   S127      1.0  0.30303  0.51551  0.34724  1.0000
  C   C366      1.0  0.09702  0.71847  0.29240  1.0000
  H   H366      1.0  0.22685  0.61941  0.34374  1.0000
  H   H367      1.0  0.21120  0.58532  0.20861  1.0000
  Fe  Fe64      1.0  0.29867  0.57413  0.30184  1.0000
  H   H368      1.0  0.28889  0.52088  0.15371  1.0000
  H   H369      1.0  0.24970  0.53514  0.29694  1.0000
  H   H370      1.0  0.29268  0.59534  0.26336  1.0000
  H   H371      1.0  0.13174  0.69454  0.31615  1.0000
  S   S128      1.0  0.31658  0.59353  0.19675  1.0000
  Fe  Fe65      1.0  0.28712  0.54404  0.33492  1.0000
  C   C367      1.0  0.31913  0.49381  0.39705  1.0000
  Fe  Fe66      1.0  0.25835  0.56846  0.31164  1.0000
  H   H372      1.0  0.16604  0.49204  0.04432  1.0000
  C   C368      1.0  0.03110  0.72394  0.33376  1.0000
  N   N28       1.0  0.09056  0.73376  0.30076  1.0000
  H   H373      1.0  0.24442  0.67323  0.30321  1.0000
  S   S129      1.0  0.32498  0.57779  0.28034  1.0000
  C   C369      1.0  0.01170  0.49165  0.09565  1.0000
  H   H374      1.0  0.13888  0.57951  0.29544  1.0000
  S   S130      1.0  0.15407  0.55391  0.21255  1.0000
  H   H375      1.0  0.15276  0.58683  0.30729  1.0000
  S   S131      1.0  0.01370  0.52220  0.01081  1.0000
  C   C370      1.0  0.28087  0.49499  0.00344  1.0000
  C   C371      1.0  0.04738  0.49838  0.09285  1.0000
  H   H376      1.0  0.30157  0.55352  0.38653  1.0000
  H   H377      1.0  0.28865  0.70796  0.27457  1.0000
  C   C372      1.0  0.18905  0.72394  0.32030  1.0000
  H   H378      1.0  0.18434  0.56979  0.14870  1.0000
  H   H379      1.0  0.04006  0.54742  0.09916  1.0000
  C   C373      1.0  0.31741  0.58639  0.22062  1.0000
  C   C374      1.0  0.21644  0.53250  0.27460  1.0000
  H   H380      1.0  0.11874  0.71001  0.42323  1.0000
  C   C375      1.0  0.15353  0.57826  0.29698  1.0000
  C   C376      1.0  0.11313  0.72094  0.32066  1.0000
  C   C377      1.0  0.24487  0.52081  0.04115  1.0000
  H   H381      1.0  0.05335  0.49531  0.00074  1.0000
  C   C378      1.0  0.23228  0.52687  0.28288  1.0000
  H   H382      1.0  0.16167  0.58430  0.28310  1.0000
  N   N29       1.0  0.06412  0.48955  0.02565  1.0000
  S   S132      1.0  0.25035  0.54265  0.04019  1.0000
  H   H383      1.0  0.04787  0.69583  0.33448  1.0000
  C   C379      1.0  0.01547  0.70657  0.42627  1.0000
  H   H384      1.0  0.09919  0.69200  0.41551  1.0000
  N   N30       1.0  0.31399  0.71557  0.27441  1.0000
  Fe  Fe67      1.0  0.26701  0.53839  0.10254  1.0000
  S   S133      1.0  0.99242  0.73132  0.37626  1.0000
  C   C380      1.0  0.25499  0.50367  0.04960  1.0000
  H   H385      1.0  0.16368  0.56212  0.14760  1.0000
  H   H386      1.0  0.22356  0.53378  0.02473  1.0000
  C   C381      1.0  0.31818  0.49734  0.37803  1.0000
  H   H387      1.0  0.29698  0.53913  0.15917  1.0000
  C   C382      1.0  0.22655  0.53684  0.17652  1.0000
  S   S134      1.0  0.15454  0.49901  0.21583  1.0000
  H   H388      1.0  0.22883  0.55457  0.20768  1.0000
  Fe  Fe68      1.0  0.18510  0.55235  0.20806  1.0000
  H   H389      1.0  0.32469  0.71978  0.24479  1.0000
  C   C383      1.0  0.19016  0.50743  0.17214  1.0000
  H   H390      1.0  0.22313  0.51422  0.13178  1.0000
  H   H391      1.0  0.16651  0.51556  0.29362  1.0000
  H   H392      1.0  0.30499  0.72461  0.03810  1.0000
  C   C384      1.0  0.29558  0.53334  0.14754  1.0000
  H   H393      1.0  0.06327  0.69427  0.41525  1.0000
  C   C385      1.0  0.22914  0.50346  0.02865  1.0000
  H   H394      1.0  0.05687  0.49689  0.20680  1.0000
  H   H395      1.0  0.20535  0.71424  0.15656  1.0000
  C   C386      1.0  0.08354  0.49113  0.99460  1.0000
  H   H396      1.0  0.09101  0.71751  0.28112  1.0000
  C   C387      1.0  0.17495  0.55954  0.15555  1.0000
  C   C388      1.0  0.20572  0.50311  0.15794  1.0000
  C   C389      1.0  0.01398  0.72574  0.41805  1.0000
  S   S135      1.0  0.01237  0.71877  0.32757  1.0000
  N   N31       1.0  0.16243  0.55847  0.30290  1.0000
  C   C390      1.0  0.15914  0.54495  0.29564  1.0000
  C   C391      1.0  0.17511  0.55382  0.31437  1.0000
  C   C392      1.0  0.16863  0.52617  0.29988  1.0000
  C   C393      1.0  0.18489  0.53518  0.31884  1.0000
  C   C394      1.0  0.18165  0.52132  0.31146  1.0000
  C   C395      1.0  0.06735  0.70550  0.40306  1.0000
  H   H397      1.0  0.14948  0.54877  0.28610  1.0000
  H   H398      1.0  0.04684  0.53069  0.98457  1.0000
  S   S136      1.0  0.30868  0.65669  0.07556  1.0000
  H   H399      1.0  0.09721  0.52910  0.19028  1.0000
  H   H400      1.0  0.18973  0.50697  0.31409  1.0000
  S   S137      1.0  0.08665  0.71463  0.47025  1.0000
  S   S138      1.0  0.22161  0.71432  0.21565  1.0000
  S   S139      1.0  0.06846  0.50436  0.09262  1.0000
  S   S140      1.0  0.24404  0.55642  0.08799  1.0000
  H   H401      1.0  0.22158  0.53058  0.19092  1.0000
  C   C396      1.0  0.29422  0.72083  0.27271  1.0000
  S   S141      1.0  0.20094  0.56933  0.18282  1.0000
  H   H402      1.0  0.28594  0.54434  0.13945  1.0000
  H   H403      1.0  0.04267  0.51849  0.06748  1.0000
  H   H404      1.0  0.24537  0.55942  0.12488  1.0000
  H   H405      1.0  0.20254  0.57763  0.28147  1.0000
  C   C397      1.0  0.12005  0.70546  0.31198  1.0000
  C   C398      1.0  0.31281  0.55086  0.39460  1.0000
  H   H406      1.0  0.17832  0.56464  0.31952  1.0000
  H   H407      1.0  0.16851  0.56243  0.16986  1.0000
  H   H408      1.0  0.25638  0.71212  0.18810  1.0000
  C   C399      1.0  0.06033  0.71289  0.34494  1.0000
  C   C400      1.0  0.20063  0.53588  0.14229  1.0000
  H   H409      1.0  0.28938  0.60159  0.23013  1.0000
  C   C401      1.0  0.23153  0.52058  0.03119  1.0000
  N   N32       1.0  0.07846  0.71637  0.40789  1.0000
  H   H410      1.0  0.16862  0.50899  0.05637  1.0000
  H   H411      1.0  0.19789  0.71577  0.19021  1.0000
  H   H412      1.0  0.18589  0.49646  0.18395  1.0000
  C   C402      1.0  0.17462  0.72436  0.31151  1.0000
  S   S142      1.0  0.27081  0.59412  0.30620  1.0000
  C   C403      1.0  0.01929  0.50448  0.08024  1.0000
  H   H413      1.0  0.25332  0.66483  0.28169  1.0000
  C   C404      1.0  0.22322  0.60451  0.23884  1.0000
  H   H414      1.0  0.21774  0.60238  0.32425  1.0000
  C   C405      1.0  0.30228  0.59315  0.23420  1.0000
  Fe  Fe69      1.0  0.18839  0.52828  0.24686  1.0000
  S   S143      1.0  0.19250  0.52123  0.21871  1.0000
  N   N33       1.0  0.23065  0.57087  0.22650  1.0000
  N   N34       1.0  0.22825  0.66375  0.15046  1.0000
  C   C406      1.0  0.20960  0.66357  0.15793  1.0000
  C   C407      1.0  0.23948  0.66610  0.16103  1.0000
  C   C408      1.0  0.20184  0.66541  0.17656  1.0000
  C   C409      1.0  0.23219  0.66790  0.17974  1.0000
  C   C410      1.0  0.21324  0.66758  0.18749  1.0000
  C   C411      1.0  0.23587  0.66247  0.13071  1.0000
  H   H415      1.0  0.20059  0.66217  0.14942  1.0000
  H   H416      1.0  0.25400  0.66721  0.15485  1.0000
  H   H417      1.0  0.18702  0.66536  0.18247  1.0000
  H   H418      1.0  0.24097  0.67031  0.18792  1.0000
  H   H419      1.0  0.20726  0.66946  0.20182  1.0000
  H   H420      1.0  0.23013  0.65202  0.12689  1.0000
  H   H421      1.0  0.23217  0.67652  0.12151  1.0000
  H   H422      1.0  0.22153  0.57876  0.14531  1.0000
  H   H423      1.0  0.22924  0.67794  0.28688  1.0000
  C   C412      1.0  0.30417  0.58968  0.25294  1.0000
  H   H424      1.0  0.30709  0.71006  0.30437  1.0000
  C   C413      1.0  0.11192  0.70417  0.29778  1.0000
  C   C414      1.0  0.12272  0.51663  0.20086  1.0000
  C   C415      1.0  0.30332  0.51076  0.37127  1.0000
  C   C416      1.0  0.09474  0.70718  0.41398  1.0000
  C   C417      1.0  0.03709  0.50800  0.07895  1.0000
  C   C418      1.0  0.24029  0.55301  0.13927  1.0000
  C   C419      1.0  0.01183  0.54455  0.10024  1.0000
  C   C420      1.0  0.22674  0.55791  0.29009  1.0000
  H   H425      1.0  0.22008  0.61759  0.24378  1.0000
  S   S144      1.0  0.30115  0.56792  0.33181  1.0000
  H   H426      1.0  0.27759  0.53061  0.37856  1.0000
  C   C421      1.0  0.22891  0.64040  0.29093  1.0000
  C   C422      1.0  0.24060  0.66727  0.29294  1.0000
  H   H427      1.0  0.21876  0.61608  0.29035  1.0000
  C   C423      1.0  0.10588  0.71724  0.41828  1.0000
  C   C424      1.0  0.23929  0.57199  0.23997  1.0000
  H   H428      1.0  0.32455  0.66173  0.18028  1.0000
  C   C425      1.0  0.32132  0.57981  0.25788  1.0000
  C   C426      1.0  0.28916  0.52033  0.38367  1.0000
  C   C427      1.0  0.22675  0.56401  0.15088  1.0000
  H   H429      1.0  0.19328  0.55523  0.26851  1.0000
  C   C428      1.0  0.23749  0.53958  0.29055  1.0000
  N   N35       1.0  0.23408  0.64956  0.30172  1.0000
  C   C429      1.0  0.22283  0.62338  0.29889  1.0000
  C   C430      1.0  0.21447  0.60323  0.22512  1.0000
  H   H430      1.0  0.28560  0.72886  0.28363  1.0000
  C   C431      1.0  0.13724  0.50074  0.20296  1.0000
  S   S145      1.0  0.18354  0.55919  0.23544  1.0000
  C   C432      1.0  0.10865  0.51693  0.19145  1.0000
  C   C433      1.0  0.23313  0.64229  0.32050  1.0000
  C   C434      1.0  0.22212  0.61573  0.31797  1.0000
  H   H431      1.0  0.07214  0.70164  0.34802  1.0000
  C   C435      1.0  0.21948  0.55581  0.16936  1.0000
  N   N36       1.0  0.18565  0.54008  0.15650  1.0000
  S   S146      1.0  0.25778  0.56101  0.34273  1.0000
  S   S147      1.0  0.27794  0.57269  0.05521  1.0000
  C   C436      1.0  0.10918  0.50156  0.18370  1.0000
  H   H432      1.0  0.19246  0.73336  0.36383  1.0000
  H   H433      1.0  0.14304  0.73435  0.28231  1.0000
  S   S148      1.0  0.27477  0.73597  0.32698  1.0000
  H   H434      1.0  0.03941  0.50653  0.03842  1.0000
  H   H435      1.0  0.21381  0.48876  0.15870  1.0000
  H   H436      1.0  0.30708  0.54407  0.40927  1.0000
  C   C437      1.0  0.16411  0.49550  0.05829  1.0000
  H   H437      1.0  0.31125  0.62001  0.06907  1.0000
  N   N37       1.0  0.99751  0.53530  0.10965  1.0000
  H   H438      1.0  0.11919  0.72213  0.33180  1.0000
  H   H439      1.0  0.29438  0.49336  0.99303  1.0000
  H   H440      1.0  0.05172  0.49314  0.18632  1.0000
  N   N38       1.0  0.31377  0.52795  0.13511  1.0000
  C   C438      1.0  0.02844  0.54056  0.10694  1.0000
  C   C439      1.0  0.07274  0.73551  0.40612  1.0000
  H   H441      1.0  0.14876  0.49732  0.06447  1.0000
  S   S149      1.0  0.24543  0.73328  0.30238  1.0000
  C   C440      1.0  0.25655  0.49782  0.98599  1.0000
  H   H442      1.0  0.99619  0.51478  0.98348  1.0000
  H   H443      1.0  0.20514  0.72955  0.27750  1.0000
  H   H444      1.0  0.31318  0.63314  0.11373  1.0000
  C   C441      1.0  0.10019  0.73676  0.41635  1.0000
  C   C442      1.0  0.03249  0.72937  0.43867  1.0000
  N   N39       1.0  0.26560  0.50636  0.99402  1.0000
  S   S150      1.0  0.32290  0.69570  0.08928  1.0000
  Fe  Fe70      1.0  0.10425  0.73664  0.46130  1.0000
  H   H445      1.0  0.24237  0.55159  0.98332  1.0000
  C   C443      1.0  0.31676  0.71367  0.03371  1.0000
  C   C444      1.0  0.26092  0.52550  0.99274  1.0000
  C   C445      1.0  0.06581  0.49225  0.00666  1.0000
  C   C446      1.0  0.31434  0.69501  0.03822  1.0000
  S   S151      1.0  0.12735  0.73266  0.25120  1.0000
  S   S152      1.0  0.13383  0.73214  0.44463  1.0000
  S   S153      1.0  0.07514  0.73402  0.35963  1.0000
  H   H446      1.0  0.21276  0.73204  0.38551  1.0000
  C   C447      1.0  0.05156  0.48714  0.20147  1.0000
  H   H447      1.0  0.15996  0.73665  0.36042  1.0000
  C   C448      1.0  0.09960  0.48711  0.00213  1.0000
  C   C449      1.0  0.16197  0.72715  0.52068  1.0000
  S   S154      1.0  0.12748  0.51668  0.89450  1.0000
  C   C450      1.0  0.22960  0.57158  0.72563  1.0000
  Fe  Fe71      1.0  0.07298  0.52259  0.91162  1.0000
  S   S155      1.0  0.08918  0.54062  0.91798  1.0000
  S   S156      1.0  0.04197  0.52287  0.92331  1.0000
  Fe  Fe72      1.0  0.10520  0.54241  0.88801  1.0000
  S   S157      1.0  0.11171  0.57012  0.86969  1.0000
  Fe  Fe73      1.0  0.11003  0.51360  0.92378  1.0000
  N   N40       1.0  0.13274  0.49192  0.69936  1.0000
  S   S158      1.0  0.08675  0.52702  0.88081  1.0000
  H   H448      1.0  0.29367  0.71347  0.68238  1.0000
  C   C451      1.0  0.25213  0.62251  0.61013  1.0000
  H   H449      1.0  0.16438  0.69141  0.53900  1.0000
  H   H450      1.0  0.10670  0.57417  0.91114  1.0000
  H   H451      1.0  0.30115  0.63313  0.79154  1.0000
  H   H452      1.0  0.25692  0.66522  0.84061  1.0000
  H   H453      1.0  0.25727  0.67574  0.75477  1.0000
  C   C452      1.0  0.23075  0.64726  0.65036  1.0000
  S   S159      1.0  0.08618  0.69777  0.52392  1.0000
  C   C453      1.0  0.17877  0.50958  0.95142  1.0000
  H   H454      1.0  0.15171  0.66673  0.53288  1.0000
  N   N41       1.0  0.24473  0.63865  0.63570  1.0000
  C   C454      1.0  0.23296  0.69008  0.62103  1.0000
  C   C455      1.0  0.24564  0.68637  0.76005  1.0000
  C   C456      1.0  0.27457  0.52740  0.73034  1.0000
  C   C457      1.0  0.15537  0.51086  0.93383  1.0000
  Fe  Fe74      1.0  0.15291  0.68158  0.59156  1.0000
  S   S160      1.0  0.13916  0.66143  0.61553  1.0000
  S   S161      1.0  0.13798  0.70750  0.57387  1.0000
  Fe  Fe75      1.0  0.19233  0.66240  0.59757  1.0000
  S   S162      1.0  0.18242  0.64032  0.62195  1.0000
  S   S163      1.0  0.22335  0.66170  0.58644  1.0000
  Fe  Fe76      1.0  0.16271  0.63887  0.60497  1.0000
  S   S164      1.0  0.15591  0.61155  0.60433  1.0000
  Fe  Fe77      1.0  0.15975  0.66412  0.63102  1.0000
  S   S165      1.0  0.17468  0.65879  0.57929  1.0000
  S   S166      1.0  0.17142  0.68659  0.60826  1.0000
  Fe  Fe78      1.0  0.19362  0.65153  0.79867  1.0000
  S   S167      1.0  0.21024  0.63379  0.82035  1.0000
  S   S168      1.0  0.17462  0.67946  0.80216  1.0000
  Fe  Fe79      1.0  0.20826  0.62408  0.77281  1.0000
  S   S169      1.0  0.22622  0.60391  0.79178  1.0000
  S   S170      1.0  0.20882  0.62020  0.74413  1.0000
  Fe  Fe80      1.0  0.20115  0.60953  0.81509  1.0000
  S   S171      1.0  0.19506  0.58414  0.83786  1.0000
  Fe  Fe81      1.0  0.23374  0.62958  0.79549  1.0000
  S   S172      1.0  0.26435  0.63010  0.79121  1.0000
  S   S173      1.0  0.18239  0.62776  0.79565  1.0000
  S   S174      1.0  0.21798  0.64926  0.77434  1.0000
  Fe  Fe82      1.0  0.16805  0.50967  0.73508  1.0000
  S   S175      1.0  0.14605  0.53429  0.72554  1.0000
  H   H455      1.0  0.30781  0.68156  0.69844  1.0000
  Fe  Fe83      1.0  0.20007  0.53056  0.71542  1.0000
  S   S176      1.0  0.18063  0.55698  0.70408  1.0000
  S   S177      1.0  0.23128  0.52983  0.70671  1.0000
  Fe  Fe84      1.0  0.16236  0.55151  0.73275  1.0000
  S   S178      1.0  0.14785  0.57459  0.74832  1.0000
  Fe  Fe85      1.0  0.16622  0.53744  0.69770  1.0000
  S   S179      1.0  0.15347  0.54131  0.67271  1.0000
  S   S180      1.0  0.18286  0.52675  0.74481  1.0000
  S   S181      1.0  0.18714  0.51125  0.70652  1.0000
  C   C458      1.0  0.19224  0.60713  0.74530  1.0000
  C   C459      1.0  0.18827  0.60544  0.72874  1.0000
  C   C460      1.0  0.17470  0.59528  0.72964  1.0000
  C   C461      1.0  0.16476  0.58728  0.74711  1.0000
  C   C462      1.0  0.16878  0.58896  0.76365  1.0000
  C   C463      1.0  0.18278  0.59857  0.76273  1.0000
  H   H456      1.0  0.19571  0.61193  0.71524  1.0000
  H   H457      1.0  0.17174  0.59388  0.71682  1.0000
  H   H458      1.0  0.16133  0.58247  0.77716  1.0000
  H   H459      1.0  0.18621  0.59930  0.77555  1.0000
  C   C464      1.0  0.27213  0.64071  0.80526  1.0000
  H   H460      1.0  0.24468  0.65024  0.82160  1.0000
  C   C465      1.0  0.17420  0.69762  0.78201  1.0000
  C   C466      1.0  0.16357  0.71556  0.78400  1.0000
  H   H461      1.0  0.15572  0.71797  0.79772  1.0000
  C   C467      1.0  0.15652  0.59214  0.62349  1.0000
  C   C468      1.0  0.16573  0.59043  0.63806  1.0000
  C   C469      1.0  0.16541  0.57464  0.65316  1.0000
  C   C470      1.0  0.15574  0.56070  0.65372  1.0000
  C   C471      1.0  0.14674  0.56247  0.63909  1.0000
  C   C472      1.0  0.14721  0.57801  0.62406  1.0000
  H   H462      1.0  0.17323  0.60111  0.63759  1.0000
  H   H463      1.0  0.17249  0.57334  0.66437  1.0000
  H   H464      1.0  0.13930  0.55179  0.63935  1.0000
  H   H465      1.0  0.14018  0.57916  0.61283  1.0000
  H   H466      1.0  0.17162  0.64185  0.69172  1.0000
  C   C473      1.0  0.09932  0.70074  0.53896  1.0000
  C   C474      1.0  0.10258  0.71848  0.53827  1.0000
  C   C475      1.0  0.11400  0.72043  0.54946  1.0000
  C   C476      1.0  0.12228  0.70465  0.56148  1.0000
  C   C477      1.0  0.11864  0.68693  0.56265  1.0000
  C   C478      1.0  0.10711  0.68501  0.55147  1.0000
  H   H467      1.0  0.07519  0.51060  0.84939  1.0000
  C   C479      1.0  0.27123  0.62219  0.60798  1.0000
  H   H468      1.0  0.12490  0.67467  0.57195  1.0000
  H   H469      1.0  0.10450  0.67126  0.55223  1.0000
  H   H470      1.0  0.15191  0.73246  0.53280  1.0000
  C   C480      1.0  0.23722  0.68362  0.77917  1.0000
  C   C481      1.0  0.08007  0.50464  0.83683  1.0000
  H   H471      1.0  0.18439  0.51279  0.92132  1.0000
  H   H472      1.0  0.14317  0.73109  0.49375  1.0000
  Fe  Fe86      1.0  0.30888  0.53089  0.75200  1.0000
  H   H473      1.0  0.15192  0.49046  0.81840  1.0000
  H   H474      1.0  0.24736  0.61708  0.60052  1.0000
  C   C482      1.0  0.29146  0.64001  0.80231  1.0000
  H   H475      1.0  0.26026  0.53867  0.80421  1.0000
  C   C483      1.0  0.14063  0.68497  0.50926  1.0000
  H   H476      1.0  0.13434  0.67447  0.50696  1.0000
  C   C484      1.0  0.15753  0.69467  0.52717  1.0000
  C   C485      1.0  0.16520  0.50760  0.96807  1.0000
  S   S182      1.0  0.28015  0.52420  0.76581  1.0000
  C   C486      1.0  0.01629  0.51839  0.95699  1.0000
  H   H477      1.0  0.26511  0.57254  0.74456  1.0000
  H   H478      1.0  0.21742  0.56173  0.76160  1.0000
  H   H479      1.0  0.10863  0.50774  0.83278  1.0000
  C   C487      1.0  0.21557  0.71286  0.77413  1.0000
  C   C488      1.0  0.13511  0.57288  0.85938  1.0000
  C   C489      1.0  0.15058  0.55916  0.86433  1.0000
  C   C490      1.0  0.16894  0.56255  0.85717  1.0000
  C   C491      1.0  0.17200  0.57965  0.84498  1.0000
  C   C492      1.0  0.15657  0.59327  0.83981  1.0000
  C   C493      1.0  0.13820  0.58991  0.84705  1.0000
  H   H480      1.0  0.14842  0.54610  0.87398  1.0000
  H   H481      1.0  0.18081  0.55198  0.86131  1.0000
  H   H482      1.0  0.15871  0.60657  0.83060  1.0000
  H   H483      1.0  0.12629  0.60066  0.84327  1.0000
  C   C494      1.0  0.13837  0.70313  0.49817  1.0000
  N   N42       1.0  0.23922  0.57092  0.73900  1.0000
  C   C495      1.0  0.30919  0.69259  0.78004  1.0000
  C   C496      1.0  0.06772  0.49796  0.83028  1.0000
  Fe  Fe87      1.0  0.10807  0.50115  0.88928  1.0000
  S   S183      1.0  0.29459  0.66763  0.84069  1.0000
  C   C497      1.0  0.14974  0.73035  0.63189  1.0000
  H   H484      1.0  0.05861  0.53016  0.95076  1.0000
  C   C498      1.0  0.15148  0.49020  0.69863  1.0000
  S   S184      1.0  0.31508  0.68850  0.59698  1.0000
  H   H485      1.0  0.15170  0.51180  0.92063  1.0000
  H   H486      1.0  0.99775  0.71560  0.48076  1.0000
  C   C499      1.0  0.18422  0.69462  0.76416  1.0000
  C   C500      1.0  0.28702  0.54680  0.79825  1.0000
  N   N43       1.0  0.15953  0.67800  0.73934  1.0000
  C   C501      1.0  0.14873  0.68767  0.75293  1.0000
  C   C502      1.0  0.16348  0.65870  0.74311  1.0000
  C   C503      1.0  0.14187  0.67797  0.77095  1.0000
  C   C504      1.0  0.15640  0.64857  0.76084  1.0000
  C   C505      1.0  0.14569  0.65829  0.77487  1.0000
  C   C506      1.0  0.16732  0.68821  0.72071  1.0000
  H   H487      1.0  0.14586  0.70299  0.75010  1.0000
  H   H488      1.0  0.17234  0.65101  0.73246  1.0000
  H   H489      1.0  0.13402  0.68566  0.78192  1.0000
  H   H490      1.0  0.15951  0.63328  0.76378  1.0000
  H   H491      1.0  0.14062  0.65057  0.78886  1.0000
  H   H492      1.0  0.16283  0.70376  0.71940  1.0000
  H   H493      1.0  0.18298  0.68464  0.71807  1.0000
  H   H494      1.0  0.16263  0.68430  0.70965  1.0000
  C   C507      1.0  0.17083  0.66635  0.66911  1.0000
  C   C508      1.0  0.00976  0.51817  0.97638  1.0000
  S   S185      1.0  0.15194  0.66252  0.66209  1.0000
  C   C509      1.0  0.23700  0.52346  0.74294  1.0000
  Fe  Fe88      1.0  0.08158  0.72150  0.49889  1.0000
  H   H495      1.0  0.21215  0.67840  0.81133  1.0000
  H   H496      1.0  0.12904  0.51432  0.67584  1.0000
  C   C510      1.0  0.21370  0.69333  0.80605  1.0000
  C   C511      1.0  0.29839  0.64793  0.81338  1.0000
  S   S186      1.0  0.30825  0.56143  0.73973  1.0000
  C   C512      1.0  0.27837  0.73404  0.60504  1.0000
  C   C513      1.0  0.14557  0.71685  0.50203  1.0000
  H   H497      1.0  0.23961  0.55872  0.76778  1.0000
  H   H498      1.0  0.26461  0.57669  0.68679  1.0000
  H   H499      1.0  0.15925  0.59854  0.87668  1.0000
  H   H500      1.0  0.29182  0.62998  0.61817  1.0000
  H   H501      1.0  0.25956  0.59135  0.81747  1.0000
  H   H502      1.0  0.11650  0.73421  0.54869  1.0000
  C   C514      1.0  0.23875  0.70269  0.74785  1.0000
  C   C515      1.0  0.09888  0.50301  0.82748  1.0000
  C   C516      1.0  0.24213  0.50847  0.97669  1.0000
  C   C517      1.0  0.25731  0.57565  0.70137  1.0000
  H   H503      1.0  0.23507  0.65942  0.65277  1.0000
  H   H504      1.0  0.29978  0.68964  0.77291  1.0000
  H   H505      1.0  0.10737  0.50930  0.69119  1.0000
  C   C518      1.0  0.26656  0.65819  0.82989  1.0000
  N   N44       1.0  0.13116  0.61306  0.67291  1.0000
  C   C519      1.0  0.13476  0.61703  0.68823  1.0000
  C   C520      1.0  0.12627  0.59634  0.67414  1.0000
  C   C521      1.0  0.13337  0.60411  0.70542  1.0000
  C   C522      1.0  0.12503  0.58299  0.69104  1.0000
  C   C523      1.0  0.12850  0.58698  0.70677  1.0000
  C   C524      1.0  0.13307  0.62673  0.65504  1.0000
  H   H506      1.0  0.13881  0.63022  0.68716  1.0000
  H   H507      1.0  0.12381  0.59301  0.66189  1.0000
  H   H508      1.0  0.13622  0.60722  0.71760  1.0000
  H   H509      1.0  0.12174  0.56950  0.69178  1.0000
  H   H510      1.0  0.12757  0.57679  0.71999  1.0000
  H   H511      1.0  0.14795  0.62834  0.65002  1.0000
  H   H512      1.0  0.12907  0.62229  0.64385  1.0000
  H   H513      1.0  0.12407  0.64073  0.65688  1.0000
  H   H514      1.0  0.16277  0.72879  0.62077  1.0000
  S   S187      1.0  0.26391  0.69471  0.63056  1.0000
  C   C525      1.0  0.10508  0.49497  0.81158  1.0000
  H   H515      1.0  0.26199  0.66329  0.58170  1.0000
  C   C526      1.0  0.14687  0.50705  0.96770  1.0000
  C   C527      1.0  0.26688  0.57543  0.71504  1.0000
  C   C528      1.0  0.29632  0.56053  0.79881  1.0000
  C   C529      1.0  0.17381  0.51157  0.93420  1.0000
  H   H516      1.0  0.26979  0.53080  0.70256  1.0000
  C   C530      1.0  0.29660  0.59032  0.80625  1.0000
  H   H517      1.0  0.17374  0.69135  0.64762  1.0000
  H   H518      1.0  0.28162  0.57645  0.71110  1.0000
  C   C531      1.0  0.17310  0.72755  0.75053  1.0000
  H   H519      1.0  0.29924  0.59937  0.79198  1.0000
  H   H520      1.0  0.23485  0.50171  0.97041  1.0000
  C   C532      1.0  0.15744  0.56685  0.91796  1.0000
  C   C533      1.0  0.14487  0.55680  0.93140  1.0000
  C   C534      1.0  0.12655  0.55925  0.92891  1.0000
  H   H521      1.0  0.17180  0.56447  0.91976  1.0000
  N   N45       1.0  0.22219  0.69663  0.78592  1.0000
  H   H522      1.0  0.11685  0.55106  0.93894  1.0000
  N   N46       1.0  0.27272  0.67050  0.68555  1.0000
  C   C535      1.0  0.28776  0.66815  0.69359  1.0000
  C   C536      1.0  0.26465  0.68807  0.67697  1.0000
  C   C537      1.0  0.29545  0.68359  0.69267  1.0000
  C   C538      1.0  0.27205  0.70377  0.67569  1.0000
  C   C539      1.0  0.28755  0.70149  0.68361  1.0000
  C   C540      1.0  0.26479  0.65417  0.68680  1.0000
  H   H523      1.0  0.29425  0.65421  0.70031  1.0000
  H   H524      1.0  0.25266  0.69002  0.67067  1.0000
  H   H525      1.0  0.28153  0.61625  0.59685  1.0000
  H   H526      1.0  0.26599  0.71751  0.66824  1.0000
  S   S188      1.0  0.20220  0.50689  0.95289  1.0000
  H   H527      1.0  0.25427  0.65193  0.70021  1.0000
  H   H528      1.0  0.25750  0.65654  0.67505  1.0000
  H   H529      1.0  0.27603  0.64124  0.68604  1.0000
  N   N47       1.0  0.28653  0.57607  0.80604  1.0000
  H   H530      1.0  0.29479  0.53441  0.79261  1.0000
  H   H531      1.0  0.21516  0.56963  0.72964  1.0000
  H   H532      1.0  0.08482  0.49349  0.97950  1.0000
  C   C541      1.0  0.25765  0.56521  0.81199  1.0000
  C   C542      1.0  0.12465  0.49083  0.74918  1.0000
  H   H533      1.0  0.24506  0.70494  0.73296  1.0000
  S   S189      1.0  0.31267  0.69447  0.63949  1.0000
  H   H534      1.0  0.28015  0.72332  0.59704  1.0000
  H   H535      1.0  0.09610  0.73075  0.52928  1.0000
  H   H536      1.0  0.22261  0.69655  0.81402  1.0000
  C   C543      1.0  0.12207  0.50999  0.69079  1.0000
  H   H537      1.0  0.12662  0.50504  0.74311  1.0000
  S   S190      1.0  0.22431  0.72954  0.65834  1.0000
  H   H538      1.0  0.19839  0.64763  0.70168  1.0000
  H   H539      1.0  0.31031  0.58358  0.81047  1.0000
  C   C544      1.0  0.28600  0.65707  0.82719  1.0000
  C   C545      1.0  0.17779  0.65398  0.68436  1.0000
  H   H540      1.0  0.20862  0.68428  0.61525  1.0000
  H   H541      1.0  0.28891  0.52927  0.72528  1.0000
  H   H542      1.0  0.22248  0.52205  0.74787  1.0000
  C   C546      1.0  0.19293  0.65718  0.68993  1.0000
  N   N48       1.0  0.15175  0.57939  0.90272  1.0000
  C   C547      1.0  0.12085  0.57216  0.91339  1.0000
  H   H543      1.0  0.16920  0.59950  0.89566  1.0000
  C   C548      1.0  0.26740  0.57870  0.81230  1.0000
  C   C549      1.0  0.13363  0.58232  0.90048  1.0000
  C   C550      1.0  0.16519  0.58990  0.88903  1.0000
  H   H544      1.0  0.17805  0.57998  0.88352  1.0000
  Fe  Fe89      1.0  0.29533  0.68499  0.62500  1.0000
  C   C551      1.0  0.22984  0.56827  0.75889  1.0000
  S   S191      1.0  0.21804  0.67839  0.68871  1.0000
  H   H545      1.0  0.19204  0.68076  0.76234  1.0000
  C   C552      1.0  0.20049  0.67319  0.68075  1.0000
  H   H546      1.0  0.12900  0.59225  0.88845  1.0000
  C   C553      1.0  0.16300  0.73045  0.76832  1.0000
  C   C554      1.0  0.23902  0.63067  0.62426  1.0000
  C   C555      1.0  0.22375  0.68265  0.61148  1.0000
  C   C556      1.0  0.24480  0.52663  0.72365  1.0000
  H   H547      1.0  0.28841  0.59951  0.81632  1.0000
  H   H548      1.0  0.21809  0.72881  0.74555  1.0000
  C   C557      1.0  0.15037  0.68064  0.52379  1.0000
  H   H549      1.0  0.00765  0.51521  0.94921  1.0000
  H   H550      1.0  0.23107  0.57336  0.69626  1.0000
  C   C558      1.0  0.19346  0.68555  0.66561  1.0000
  H   H551      1.0  0.19139  0.70719  0.73470  1.0000
  H   H552      1.0  0.26798  0.64466  0.64278  1.0000
  H   H553      1.0  0.13065  0.70667  0.48696  1.0000
  S   S192      1.0  0.09293  0.49533  0.91933  1.0000
  C   C559      1.0  0.17896  0.68187  0.65949  1.0000
  H   H554      1.0  0.24200  0.51971  0.77080  1.0000
  C   C560      1.0  0.26757  0.54919  0.80483  1.0000
  C   C561      1.0  0.18373  0.70960  0.74843  1.0000
  C   C562      1.0  0.26346  0.63814  0.63389  1.0000
  C   C563      1.0  0.24806  0.52216  0.75590  1.0000
  S   S193      1.0  0.11929  0.50591  0.95123  1.0000
  C   C564      1.0  0.23421  0.67285  0.59736  1.0000
  H   H555      1.0  0.30860  0.70449  0.82084  1.0000
  C   C565      1.0  0.27699  0.62994  0.61998  1.0000
  H   H556      1.0  0.22487  0.69754  0.63203  1.0000
  C   C566      1.0  0.03400  0.52261  0.94765  1.0000
  C   C567      1.0  0.14198  0.50838  0.95067  1.0000
  H   H557      1.0  0.31141  0.55873  0.79337  1.0000
  C   C568      1.0  0.25962  0.64978  0.81911  1.0000
  H   H558      1.0  0.11963  0.49371  0.80411  1.0000
  H   H559      1.0  0.22885  0.63671  0.66373  1.0000
  H   H560      1.0  0.22502  0.58212  0.76318  1.0000
  H   H561      1.0  0.14018  0.72618  0.60180  1.0000
  C   C569      1.0  0.26367  0.52833  0.71745  1.0000
  C   C570      1.0  0.25385  0.67083  0.59264  1.0000
  H   H562      1.0  0.19924  0.69797  0.65854  1.0000
  C   C571      1.0  0.09232  0.48854  0.80535  1.0000
  C   C572      1.0  0.25264  0.68731  0.61687  1.0000
  H   H563      1.0  0.24248  0.56723  0.81715  1.0000
  C   C573      1.0  0.25751  0.57313  0.73392  1.0000
  C   C574      1.0  0.04504  0.52677  0.95779  1.0000
  Fe  Fe90      1.0  0.21248  0.70990  0.68394  1.0000
  S   S194      1.0  0.30741  0.65449  0.63384  1.0000
  N   N49       1.0  0.15517  0.71246  0.51626  1.0000
  C   C575      1.0  0.23851  0.57387  0.70664  1.0000
  H   H564      1.0  0.22417  0.63131  0.62545  1.0000
  H   H565      1.0  0.21687  0.65299  0.64617  1.0000
  C   C576      1.0  0.26309  0.67790  0.60248  1.0000
  C   C577      1.0  0.26683  0.52434  0.74960  1.0000
  H   H566      1.0  0.27829  0.67574  0.59914  1.0000
  S   S195      1.0  0.21960  0.72298  0.70400  1.0000
  C   C578      1.0  0.22370  0.71611  0.75492  1.0000
  C   C579      1.0  0.30195  0.69755  0.79760  1.0000
  N   N50       1.0  0.07394  0.48996  0.81478  1.0000
  H   H567      1.0  0.24254  0.67080  0.78850  1.0000
  H   H568      1.0  0.28721  0.69805  0.80421  1.0000
  S   S196      1.0  0.18281  0.72639  0.68573  1.0000
  H   H569      1.0  0.30803  0.73287  0.60067  1.0000
  C   C580      1.0  0.23698  0.52791  0.97566  1.0000
  H   H570      1.0  0.05184  0.49623  0.80005  1.0000
  H   H571      1.0  0.22560  0.53619  0.96873  1.0000
  H   H572      1.0  0.09566  0.49717  0.74632  1.0000
  H   H573      1.0  0.31333  0.64706  0.81111  1.0000
  H   H574      1.0  0.12165  0.52110  0.69833  1.0000
  H   H575      1.0  0.17600  0.72138  0.52447  1.0000
  H   H576      1.0  0.05322  0.49884  0.83792  1.0000
  H   H577      1.0  0.19925  0.70210  0.80894  1.0000
  H   H578      1.0  0.20362  0.72320  0.77941  1.0000
  H   H579      1.0  0.14939  0.54695  0.94352  1.0000
  C   C581      1.0  0.31400  0.70119  0.80695  1.0000
  C   C582      1.0  0.27101  0.73494  0.72275  1.0000
  C   C583      1.0  0.03834  0.52701  0.97699  1.0000
  S   S197      1.0  0.30318  0.72942  0.73586  1.0000
  H   H580      1.0  0.15835  0.50196  0.69151  1.0000
  H   H581      1.0  0.14694  0.71614  0.63926  1.0000
  H   H582      1.0  0.26475  0.72913  0.73704  1.0000
  C   C584      1.0  0.28976  0.73699  0.71835  1.0000
  Fe  Fe91      1.0  0.17393  0.80572  0.46053  1.0000
  S   S198      1.0  0.19696  0.82107  0.45731  1.0000
  H   H583      1.0  0.19720  0.74690  0.23949  1.0000
  Fe  Fe92      1.0  0.15276  0.83727  0.43468  1.0000
  S   S199      1.0  0.17374  0.85554  0.42952  1.0000
  S   S200      1.0  0.12901  0.84714  0.41897  1.0000
  Fe  Fe93      1.0  0.19531  0.82870  0.42667  1.0000
  S   S201      1.0  0.21845  0.82759  0.40067  1.0000
  Fe  Fe94      1.0  0.17338  0.84647  0.46058  1.0000
  H   H584      1.0  0.00495  0.78787  0.34569  1.0000
  S   S202      1.0  0.17425  0.81120  0.42985  1.0000
  S   S203      1.0  0.15033  0.83022  0.46588  1.0000
  C   C585      1.0  0.07725  0.81150  0.43801  1.0000
  C   C586      1.0  0.11058  0.76684  0.26045  1.0000
  C   C587      1.0  0.02213  0.87434  0.32568  1.0000
  C   C588      1.0  0.07690  0.84393  0.42478  1.0000
  C   C589      1.0  0.04317  0.74504  0.34517  1.0000
  C   C590      1.0  0.99524  0.87468  0.35165  1.0000
  C   C591      1.0  0.18648  0.73986  0.37596  1.0000
  S   S204      1.0  0.08071  0.76037  0.45408  1.0000
  H   H585      1.0  0.06598  0.85524  0.39933  1.0000
  H   H586      1.0  0.16175  0.93880  0.47286  1.0000
  Fe  Fe95      1.0  0.09457  0.78930  0.36719  1.0000
  S   S205      1.0  0.10562  0.76960  0.34718  1.0000
  S   S206      1.0  0.11042  0.78304  0.39049  1.0000
  Fe  Fe96      1.0  0.05838  0.80623  0.35208  1.0000
  S   S207      1.0  0.06642  0.78743  0.33099  1.0000
  S   S208      1.0  0.02889  0.82285  0.36108  1.0000
  Fe  Fe97      1.0  0.07644  0.76450  0.35407  1.0000
  H   H587      1.0  0.10865  0.74485  0.41948  1.0000
  Fe  Fe98      1.0  0.09511  0.79400  0.32571  1.0000
  S   S209      1.0  0.11341  0.79706  0.29665  1.0000
  S   S210      1.0  0.06596  0.78230  0.37566  1.0000
  S   S211      1.0  0.08652  0.81479  0.34509  1.0000
  Fe  Fe99      1.0  0.25825  0.75550  0.30612  1.0000
  C   C592      1.0  0.11616  0.77822  0.28555  1.0000
  C   C593      1.0  0.16045  0.75698  0.39454  1.0000
  C   C594      1.0  0.00456  0.88374  0.33439  1.0000
  C   C595      1.0  0.13611  0.76227  0.45746  1.0000
  H   H588      1.0  0.19402  0.79143  0.38544  1.0000
  N   N51       1.0  0.18730  0.81965  0.37092  1.0000
  C   C596      1.0  0.22257  0.78894  0.40772  1.0000
  H   H589      1.0  0.21243  0.85351  0.34854  1.0000
  S   S212      1.0  0.99431  0.90654  0.32328  1.0000
  H   H590      1.0  0.19763  0.79407  0.36041  1.0000
  N   N52       1.0  0.29375  0.76890  0.13173  1.0000
  S   S213      1.0  0.26980  0.77262  0.27807  1.0000
  C   C597      1.0  0.02062  0.84671  0.35106  1.0000
  C   C598      1.0  0.03013  0.85584  0.33394  1.0000
  H   H591      1.0  0.04346  0.84857  0.32691  1.0000
  C   C599      1.0  0.31585  0.78922  0.12465  1.0000
  C   C600      1.0  0.08903  0.82948  0.45371  1.0000
  H   H592      1.0  0.29134  0.77402  0.24035  1.0000
  H   H593      1.0  0.09968  0.81648  0.45735  1.0000
  C   C601      1.0  0.19058  0.74768  0.40360  1.0000
  H   H594      1.0  0.18712  0.87158  0.36967  1.0000
  C   C602      1.0  0.29297  0.77262  0.11312  1.0000
  C   C603      1.0  0.06944  0.80991  0.42365  1.0000
  H   H595      1.0  0.09738  0.79416  0.26714  1.0000
  H   H596      1.0  0.21237  0.82029  0.34962  1.0000
  C   C604      1.0  0.20111  0.84702  0.35782  1.0000
  H   H597      1.0  0.16179  0.85615  0.39137  1.0000
  H   H598      1.0  0.05942  0.82464  0.39833  1.0000
  H   H599      1.0  0.08037  0.79924  0.44890  1.0000
  H   H600      1.0  0.21541  0.78989  0.42201  1.0000
  H   H601      1.0  0.27152  0.75342  0.14040  1.0000
  H   H602      1.0  0.06677  0.79645  0.42331  1.0000
  C   C605      1.0  0.17296  0.74709  0.46271  1.0000
  H   H603      1.0  0.07872  0.76102  0.40951  1.0000
  H   H604      1.0  0.14714  0.78934  0.25006  1.0000
  C   C606      1.0  0.12370  0.75006  0.26441  1.0000
  C   C607      1.0  0.30498  0.77703  0.13757  1.0000
  H   H605      1.0  0.22085  0.74223  0.25897  1.0000
  C   C608      1.0  0.16449  0.78088  0.27072  1.0000
  C   C609      1.0  0.18063  0.76873  0.27611  1.0000
  C   C610      1.0  0.12453  0.82930  0.41052  1.0000
  C   C611      1.0  0.11645  0.83403  0.39466  1.0000
  C   C612      1.0  0.11219  0.81993  0.38817  1.0000
  C   C613      1.0  0.11590  0.80114  0.39766  1.0000
  C   C614      1.0  0.12413  0.79644  0.41341  1.0000
  C   C615      1.0  0.12856  0.81046  0.41976  1.0000
  H   H606      1.0  0.11339  0.84861  0.38743  1.0000
  H   H607      1.0  0.10590  0.82363  0.37597  1.0000
  H   H608      1.0  0.12677  0.78195  0.42095  1.0000
  H   H609      1.0  0.13457  0.80672  0.43214  1.0000
  H   H610      1.0  0.16248  0.82276  0.39239  1.0000
  H   H611      1.0  0.32250  0.77841  0.03697  1.0000
  C   C616      1.0  0.16353  0.76449  0.46743  1.0000
  H   H612      1.0  0.27780  0.75966  0.15903  1.0000
  C   C617      1.0  0.22632  0.80521  0.39459  1.0000
  C   C618      1.0  0.16002  0.78047  0.25399  1.0000
  C   C619      1.0  0.19907  0.87911  0.47882  1.0000
  C   C620      1.0  0.10705  0.78097  0.27077  1.0000
  C   C621      1.0  0.23620  0.80367  0.37627  1.0000
  H   H613      1.0  0.30184  0.75929  0.29627  1.0000
  C   C622      1.0  0.07469  0.74840  0.29518  1.0000
  H   H614      1.0  0.17404  0.79674  0.37428  1.0000
  H   H615      1.0  0.23964  0.81612  0.36621  1.0000
  C   C623      1.0  0.18826  0.79946  0.37282  1.0000
  C   C624      1.0  0.17325  0.82955  0.38246  1.0000
  C   C625      1.0  0.17279  0.84845  0.38196  1.0000
  H   H616      1.0  0.30291  0.78774  0.08511  1.0000
  H   H617      1.0  0.08010  0.85720  0.42493  1.0000
  C   C626      1.0  0.06897  0.84290  0.41025  1.0000
  C   C627      1.0  0.20102  0.82820  0.35855  1.0000
  C   C628      1.0  0.24157  0.78607  0.37087  1.0000
  H   H618      1.0  0.24910  0.78499  0.35671  1.0000
  C   C629      1.0  0.22878  0.77125  0.40260  1.0000
  H   H619      1.0  0.18365  0.76873  0.28944  1.0000
  S   S214      1.0  0.24550  0.74726  0.37835  1.0000
  C   C630      1.0  0.06531  0.82573  0.40967  1.0000
  C   C631      1.0  0.12896  0.76123  0.28989  1.0000
  C   C632      1.0  0.28360  0.75512  0.14536  1.0000
  S   S215      1.0  0.23328  0.76546  0.32798  1.0000
  C   C633      1.0  0.08343  0.74592  0.41050  1.0000
  S   S216      1.0  0.17443  0.77625  0.47751  1.0000
  N   N53       1.0  0.08110  0.82826  0.43830  1.0000
  C   C634      1.0  0.31503  0.79321  0.10568  1.0000
  H   H620      1.0  0.28450  0.76582  0.10831  1.0000
  S   S217      1.0  0.04071  0.74498  0.44712  1.0000
  C   C635      1.0  0.14521  0.77222  0.46455  1.0000
  H   H621      1.0  0.22658  0.75865  0.41308  1.0000
  C   C636      1.0  0.18695  0.85714  0.36970  1.0000
  H   H622      1.0  0.04156  0.75859  0.34861  1.0000
  H   H623      1.0  0.13617  0.75914  0.30119  1.0000
  H   H624      1.0  0.09630  0.84155  0.44981  1.0000
  H   H625      1.0  0.32260  0.74779  0.02058  1.0000
  H   H626      1.0  0.22283  0.89144  0.47649  1.0000
  C   C637      1.0  0.29427  0.76705  0.26921  1.0000
  C   C638      1.0  0.18811  0.75652  0.24830  1.0000
  H   H627      1.0  0.15513  0.79013  0.27978  1.0000
  C   C639      1.0  0.23802  0.76977  0.38411  1.0000
  C   C640      1.0  0.17183  0.76816  0.24272  1.0000
  C   C641      1.0  0.15613  0.74974  0.36612  1.0000
  Fe  Fe100     1.0  0.22222  0.74118  0.32604  1.0000
  S   S218      1.0  0.30737  0.74754  0.06230  1.0000
  H   H628      1.0  0.10336  0.76908  0.24910  1.0000
  H   H629      1.0  0.06121  0.74414  0.30305  1.0000
  H   H630      1.0  0.09315  0.74714  0.32148  1.0000
  N   N54       1.0  0.16787  0.74854  0.37938  1.0000
  C   C642      1.0  0.30112  0.76906  0.24973  1.0000
  C   C643      1.0  0.13298  0.74729  0.27911  1.0000
  C   C644      1.0  0.30699  0.76070  0.28126  1.0000
  H   H631      1.0  0.02945  0.88130  0.31235  1.0000
  H   H632      1.0  0.20508  0.87338  0.46624  1.0000
  H   H633      1.0  0.15825  0.76181  0.35414  1.0000
  H   H634      1.0  0.14573  0.76376  0.39734  1.0000
  N   N55       1.0  0.19227  0.75687  0.26485  1.0000
  H   H635      1.0  0.01710  0.75261  0.33539  1.0000
  H   H636      1.0  0.99585  0.74980  0.46735  1.0000
  C   C645      1.0  0.30337  0.78502  0.09989  1.0000
  H   H637      1.0  0.99587  0.84934  0.37324  1.0000
  C   C646      1.0  0.00331  0.85631  0.35999  1.0000
  C   C647      1.0  0.14555  0.74491  0.45264  1.0000
  C   C648      1.0  0.32492  0.75877  0.06322  1.0000
  Fe  Fe101     1.0  0.24856  0.74381  0.34868  1.0000
  H   H638      1.0  0.12175  0.76808  0.45571  1.0000
  C   C649      1.0  0.17170  0.75683  0.40677  1.0000
  H   H639      1.0  0.30625  0.77350  0.15218  1.0000
  H   H640      1.0  0.00653  0.79118  0.36809  1.0000
  H   H641      1.0  0.13786  0.78565  0.46824  1.0000
  H   H642      1.0  0.16574  0.76360  0.41874  1.0000
  C   C650      1.0  0.99659  0.79144  0.35930  1.0000
  S   S219      1.0  0.19201  0.74479  0.32451  1.0000
  H   H643      1.0  0.07765  0.83099  0.46638  1.0000
  H   H644      1.0  0.02070  0.75198  0.41807  1.0000
  H   H645      1.0  0.21323  0.74849  0.28160  1.0000
  H   H646      1.0  0.00417  0.82163  0.33312  1.0000
  H   H647      1.0  0.07544  0.75069  0.27984  1.0000
  H   H648      1.0  0.14091  0.75177  0.37293  1.0000
  H   H649      1.0  0.18717  0.74114  0.46488  1.0000
  H   H650      1.0  0.07490  0.76217  0.29808  1.0000
  C   C651      1.0  0.20869  0.74363  0.27102  1.0000
  H   H651      1.0  0.05983  0.74284  0.40136  1.0000
  H   H652      1.0  0.16824  0.76740  0.22990  1.0000
  C   C652      1.0  0.02937  0.74168  0.33766  1.0000
  H   H653      1.0  0.19941  0.74717  0.41315  1.0000
  C   C653      1.0  0.32059  0.76470  0.24233  1.0000
  C   C654      1.0  0.16408  0.73744  0.45501  1.0000
  Fe  Fe102     1.0  0.06227  0.73891  0.46540  1.0000
  H   H654      1.0  0.16472  0.73740  0.30812  1.0000
  C   C655      1.0  0.19806  0.73914  0.38811  1.0000
  C   C656      1.0  0.02238  0.73706  0.42424  1.0000
  H   H655      1.0  0.29336  0.74117  0.14771  1.0000
  H   H656      1.0  0.32376  0.80224  0.09539  1.0000
  C   C657      1.0  0.10629  0.98093  0.55571  1.0000
  C   C658      1.0  0.27420  0.76048  0.62640  1.0000
  S   S220      1.0  0.06985  0.79317  0.48920  1.0000
  S   S221      1.0  0.15314  0.91889  0.59028  1.0000
  Fe  Fe103     1.0  0.09325  0.82811  0.61094  1.0000
  S   S222      1.0  0.06873  0.81937  0.60637  1.0000
  S   S223      1.0  0.10451  0.81574  0.63756  1.0000
  Fe  Fe104     1.0  0.09670  0.85600  0.57372  1.0000
  S   S224      1.0  0.07273  0.84939  0.56552  1.0000
  S   S225      1.0  0.11598  0.87434  0.55404  1.0000
  Fe  Fe105     1.0  0.05819  0.85029  0.59561  1.0000
  S   S226      1.0  0.02709  0.86208  0.60490  1.0000
  Fe  Fe106     1.0  0.08513  0.81921  0.57691  1.0000
  S   S227      1.0  0.09054  0.79292  0.56543  1.0000
  S   S228      1.0  0.08135  0.85917  0.60292  1.0000
  S   S229      1.0  0.11047  0.82578  0.58228  1.0000
  H   H657      1.0  0.12856  0.86274  0.64286  1.0000
  H   H658      1.0  0.17327  0.93555  0.49208  1.0000
  H   H659      1.0  0.14250  0.77908  0.51011  1.0000
  H   H660      1.0  0.01428  0.87490  0.56737  1.0000
  H   H661      1.0  0.11893  0.79256  0.51078  1.0000
  S   S230      1.0  0.18391  0.75974  0.63505  1.0000
  C   C659      1.0  0.29773  0.74496  0.69996  1.0000
  H   H662      1.0  0.17730  0.90046  0.52351  1.0000
  S   S231      1.0  0.20493  0.92253  0.55895  1.0000
  H   H663      1.0  0.14691  0.91200  0.48876  1.0000
  C   C660      1.0  0.16811  0.82303  0.61449  1.0000
  H   H664      1.0  0.04558  0.95748  0.57153  1.0000
  H   H665      1.0  0.10480  0.91645  0.53920  1.0000
  C   C661      1.0  0.29252  0.98478  0.83870  1.0000
  S   S232      1.0  0.20033  0.76406  0.68012  1.0000
  C   C662      1.0  0.03676  0.96936  0.56337  1.0000
  C   C663      1.0  0.20121  0.89741  0.50066  1.0000
  Fe  Fe107     1.0  0.17303  0.96599  0.53431  1.0000
  C   C664      1.0  0.13546  0.84849  0.60735  1.0000
  C   C665      1.0  0.17362  0.88414  0.50538  1.0000
  C   C666      1.0  0.15461  0.83029  0.62897  1.0000
  H   H666      1.0  0.31220  0.74661  0.69644  1.0000
  C   C667      1.0  0.99950  0.89382  0.60803  1.0000
  S   S233      1.0  0.17503  0.96309  0.56412  1.0000
  H   H667      1.0  0.12359  0.83939  0.65383  1.0000
  H   H668      1.0  0.24435  0.76123  0.63199  1.0000
  C   C668      1.0  0.22850  0.97562  0.57797  1.0000
  H   H669      1.0  0.24564  0.95104  0.50024  1.0000
  C   C669      1.0  0.11524  0.74785  0.60011  1.0000
  C   C670      1.0  0.10285  0.76242  0.60816  1.0000
  H   H670      1.0  0.25469  0.94771  0.52970  1.0000
  H   H671      1.0  0.11302  0.94645  0.53962  1.0000
  C   C671      1.0  0.25824  0.75530  0.62464  1.0000
  H   H672      1.0  0.24440  0.93086  0.49258  1.0000
  C   C672      1.0  0.14870  0.84165  0.59250  1.0000
  H   H673      1.0  0.16540  0.79683  0.50588  1.0000
  S   S234      1.0  0.16870  0.93688  0.53776  1.0000
  H   H674      1.0  0.15069  0.85041  0.52218  1.0000
  H   H675      1.0  0.12362  0.75886  0.64424  1.0000
  C   C673      1.0  0.18345  0.89461  0.51106  1.0000
  H   H676      1.0  0.04508  0.97851  0.59172  1.0000
  Fe  Fe108     1.0  0.20613  0.95337  0.55400  1.0000
  C   C674      1.0  0.25349  0.89480  0.54031  1.0000
  C   C675      1.0  0.25306  0.90587  0.52229  1.0000
  H   H677      1.0  0.10925  0.81687  0.53331  1.0000
  C   C676      1.0  0.12019  0.93898  0.52833  1.0000
  S   S235      1.0  0.22919  0.96534  0.55887  1.0000
  C   C677      1.0  0.14685  0.83758  0.52164  1.0000
  H   H678      1.0  0.12633  0.78014  0.53245  1.0000
  Fe  Fe109     1.0  0.17356  0.93288  0.56677  1.0000
  H   H679      1.0  0.09088  0.77058  0.60208  1.0000
  N   N56       1.0  0.13844  0.84268  0.62531  1.0000
  Fe  Fe110     1.0  0.07543  0.76376  0.48379  1.0000
  C   C678      1.0  0.18117  0.87660  0.48911  1.0000
  C   C679      1.0  0.12358  0.81868  0.52764  1.0000
  H   H680      1.0  0.12266  0.85829  0.60447  1.0000
  N   N57       1.0  0.29181  0.75260  0.61772  1.0000
  N   N58       1.0  0.13668  0.80521  0.51937  1.0000
  S   S236      1.0  0.21384  0.91081  0.50730  1.0000
  C   C680      1.0  0.25265  0.93611  0.49974  1.0000
  H   H681      1.0  0.02828  0.96309  0.55744  1.0000
  S   S237      1.0  0.99325  0.94975  0.58420  1.0000
  N   N59       1.0  0.25312  0.92472  0.51871  1.0000
  C   C681      1.0  0.16017  0.94246  0.48666  1.0000
  C   C682      1.0  0.12508  0.91256  0.51366  1.0000
  C   C683      1.0  0.12646  0.79995  0.63675  1.0000
  C   C684      1.0  0.13706  0.79475  0.61996  1.0000
  C   C685      1.0  0.15465  0.78236  0.61965  1.0000
  C   C686      1.0  0.16179  0.77514  0.63611  1.0000
  C   C687      1.0  0.15120  0.78022  0.65295  1.0000
  C   C688      1.0  0.13355  0.79261  0.65325  1.0000
  H   H682      1.0  0.13170  0.80012  0.60723  1.0000
  H   H683      1.0  0.16276  0.77835  0.60661  1.0000
  H   H684      1.0  0.15659  0.77463  0.66573  1.0000
  H   H685      1.0  0.12539  0.79651  0.66632  1.0000
  C   C689      1.0  0.01833  0.88665  0.60022  1.0000
  C   C690      1.0  0.02940  0.89899  0.58800  1.0000
  C   C691      1.0  0.02161  0.91837  0.58349  1.0000
  C   C692      1.0  0.00274  0.92553  0.59117  1.0000
  C   C693      1.0  0.25444  0.90303  0.55460  1.0000
  H   H686      1.0  0.25556  0.92880  0.56171  1.0000
  H   H687      1.0  0.04390  0.89355  0.58187  1.0000
  H   H688      1.0  0.03021  0.92778  0.57385  1.0000
  H   H689      1.0  0.24569  0.73955  0.71232  1.0000
  H   H690      1.0  0.31037  0.97864  0.80549  1.0000
  H   H691      1.0  0.09651  0.77789  0.63033  1.0000
  C   C694      1.0  0.25506  0.92212  0.55068  1.0000
  C   C695      1.0  0.29498  0.98337  0.80589  1.0000
  H   H692      1.0  0.25279  0.88001  0.54319  1.0000
  H   H693      1.0  0.12750  0.97888  0.58390  1.0000
  H   H694      1.0  0.28922  0.97138  0.80524  1.0000
  C   C696      1.0  0.14309  0.90530  0.58130  1.0000
  C   C697      1.0  0.12466  0.90262  0.58927  1.0000
  C   C698      1.0  0.11621  0.89292  0.58112  1.0000
  C   C699      1.0  0.12630  0.88572  0.56516  1.0000
  C   C700      1.0  0.14483  0.88800  0.55756  1.0000
  C   C701      1.0  0.15325  0.89766  0.56565  1.0000
  H   H695      1.0  0.11674  0.90855  0.60136  1.0000
  H   H696      1.0  0.10177  0.89143  0.58692  1.0000
  H   H697      1.0  0.15278  0.88213  0.54549  1.0000
  H   H698      1.0  0.16768  0.89911  0.55983  1.0000
  C   C702      1.0  0.07403  0.79324  0.51110  1.0000
  C   C703      1.0  0.08060  0.77629  0.52273  1.0000
  C   C704      1.0  0.08505  0.77640  0.53965  1.0000
  C   C705      1.0  0.08264  0.79344  0.54523  1.0000
  C   C706      1.0  0.07538  0.81043  0.53398  1.0000
  C   C707      1.0  0.07127  0.81033  0.51681  1.0000
  H   H699      1.0  0.08225  0.76307  0.51869  1.0000
  H   H700      1.0  0.09041  0.76320  0.54841  1.0000
  H   H701      1.0  0.07331  0.82364  0.53828  1.0000
  H   H702      1.0  0.06600  0.82348  0.50794  1.0000
  H   H703      1.0  0.25447  0.89473  0.56872  1.0000
  C   C708      1.0  0.13930  0.91980  0.49972  1.0000
  H   H704      1.0  0.11022  0.85462  0.63746  1.0000
  S   S238      1.0  0.20412  0.95849  0.52364  1.0000
  H   H705      1.0  0.27243  0.77056  0.63512  1.0000
  H   H706      1.0  0.11783  0.84581  0.53512  1.0000
  C   C709      1.0  0.10593  0.76642  0.62409  1.0000
  C   C710      1.0  0.26825  0.74863  0.69037  1.0000
  H   H707      1.0  0.29321  0.75700  0.67183  1.0000
  C   C711      1.0  0.11554  0.92219  0.52808  1.0000
  H   H708      1.0  0.99983  0.86422  0.55901  1.0000
  H   H709      1.0  0.10210  0.97108  0.56855  1.0000
  H   H710      1.0  0.15862  0.95803  0.48426  1.0000
  H   H711      1.0  0.16359  0.73915  0.50847  1.0000
  N   N60       1.0  0.14397  0.93613  0.50023  1.0000
  Fe  Fe111     1.0  0.19509  0.74749  0.66172  1.0000
  C   C712      1.0  0.28695  0.75088  0.68603  1.0000
  Fe  Fe112     1.0  0.19082  0.74109  0.70397  1.0000
  C   C713      1.0  0.13450  0.94580  0.51418  1.0000
  C   C714      1.0  0.16024  0.82370  0.51338  1.0000
  H   H712      1.0  0.13565  0.96724  0.55202  1.0000
  Fe  Fe113     1.0  0.19997  0.92869  0.52946  1.0000
  C   C715      1.0  0.12136  0.75566  0.63184  1.0000
  H   H713      1.0  0.15988  0.88209  0.51348  1.0000
  C   C716      1.0  0.24316  0.98455  0.57710  1.0000
  C   C717      1.0  0.15491  0.80745  0.51244  1.0000
  C   C718      1.0  0.26026  0.74075  0.70877  1.0000
  H   H714      1.0  0.26720  0.93560  0.49126  1.0000
  S   S239      1.0  0.17191  0.74657  0.73124  1.0000
  Fe  Fe114     1.0  0.22864  0.74451  0.67865  1.0000
  H   H715      1.0  0.17453  0.82579  0.50732  1.0000
  C   C719      1.0  0.12840  0.83507  0.52882  1.0000
  C   C720      1.0  0.30842  0.75732  0.62069  1.0000
  H   H716      1.0  0.20365  0.98099  0.62181  1.0000
  H   H717      1.0  0.25219  0.89938  0.51128  1.0000
  C   C721      1.0  0.13092  0.78837  0.51811  1.0000
  H   H718      1.0  0.17534  0.82311  0.58482  1.0000
  H   H719      1.0  0.15468  0.74429  0.77000  1.0000
  H   H720      1.0  0.14614  0.84623  0.57832  1.0000
  C   C722      1.0  0.12459  0.85032  0.64062  1.0000
  C   C723      1.0  0.21465  0.98218  0.60927  1.0000
  H   H721      1.0  0.15690  0.82554  0.64323  1.0000
  C   C724      1.0  0.16509  0.82877  0.59615  1.0000
  S   S240      1.0  0.25549  0.75520  0.67235  1.0000
  H   H722      1.0  0.18059  0.81267  0.61758  1.0000
  C   C725      1.0  0.25445  0.93281  0.53253  1.0000
  C   C726      1.0  0.03108  0.98551  0.58937  1.0000
  H   H723      1.0  0.20281  0.96775  0.59504  1.0000
  H   H724      1.0  0.31986  0.75725  0.60788  1.0000
  H   H725      1.0  0.30519  0.77157  0.62401  1.0000
  C   C727      1.0  0.26037  0.74194  0.61393  1.0000
  H   H726      1.0  0.30607  0.97511  0.83864  1.0000
  S   S241      1.0  0.16690  0.86530  0.48199  1.0000
  C   C728      1.0  0.21412  0.97465  0.59409  1.0000
  N   N61       1.0  0.13364  0.74162  0.62365  1.0000
  H   H727      1.0  0.13832  0.95865  0.51468  1.0000
  S   S242      1.0  0.05540  0.74388  0.49500  1.0000
  H   H728      1.0  0.04611  0.97723  0.55172  1.0000
  C   C729      1.0  0.12526  0.97875  0.54635  1.0000
  S   S243      1.0  0.10085  0.74192  0.48991  1.0000
  H   H729      1.0  0.00092  0.90724  0.55677  1.0000
  H   H730      1.0  0.25439  0.98535  0.56474  1.0000
  N   N62       1.0  0.02456  0.98217  0.57542  1.0000
  C   C730      1.0  0.00047  0.87062  0.57053  1.0000
  H   H731      1.0  0.31371  0.74679  0.63253  1.0000
  H   H732      1.0  0.12183  0.89927  0.51358  1.0000
  H   H733      1.0  0.00019  0.85972  0.58378  1.0000
  H   H734      1.0  0.11292  0.74455  0.58775  1.0000
  C   C731      1.0  0.20907  0.88943  0.48463  1.0000
  C   C732      1.0  0.29405  0.73943  0.60722  1.0000
  H   H735      1.0  0.24816  0.73729  0.61294  1.0000
  H   H736      1.0  0.15264  0.73712  0.64207  1.0000
  C   C733      1.0  0.13064  0.73752  0.60811  1.0000
  S   S244      1.0  0.53936  0.09221  0.99089  1.0000
  H   H737      1.0  0.63599  0.22006  0.36077  1.0000
  Fe  Fe115     1.0  0.58647  0.04479  0.02703  1.0000
  S   S245      1.0  0.56544  0.07012  0.03517  1.0000
  S   S246      1.0  0.58652  0.01450  0.04126  1.0000
  H   H738      1.0  0.62439  0.03003  0.99425  1.0000
  Fe  Fe116     1.0  0.59080  0.08357  0.02803  1.0000
  S   S247      1.0  0.59192  0.09795  0.05084  1.0000
  C   C734      1.0  0.65668  0.11228  0.16252  1.0000
  S   S248      1.0  0.61186  0.05732  0.02180  1.0000
  C   C735      1.0  0.62291  0.19599  0.36744  1.0000
  C   C736      1.0  0.57647  0.00476  0.10507  1.0000
  H   H739      1.0  0.58464  0.13959  0.02249  1.0000
  H   H740      1.0  0.64039  0.19852  0.16491  1.0000
  H   H741      1.0  0.62277  0.06254  0.11916  1.0000
  S   S249      1.0  0.64163  0.18005  0.13515  1.0000
  H   H742      1.0  0.63148  0.23064  0.46847  1.0000
  C   C737      1.0  0.55228  0.13706  0.01307  1.0000
  C   C738      1.0  0.61909  0.12975  0.06658  1.0000
  Fe  Fe117     1.0  0.60695  0.06801  0.99231  1.0000
  H   H743      1.0  0.58127  0.04003  0.06620  1.0000
  C   C739      1.0  0.64896  0.99894  0.19127  1.0000
  C   C740      1.0  0.57840  0.98990  0.09621  1.0000
  H   H744      1.0  0.61281  0.20063  0.37941  1.0000
  H   H745      1.0  0.61997  0.11468  0.02056  1.0000
  H   H746      1.0  0.61144  0.05308  0.09531  1.0000
  H   H747      1.0  0.61865  0.13404  0.07937  1.0000
  H   H748      1.0  0.62354  0.06463  0.06134  1.0000
  C   C741      1.0  0.52888  0.04430  0.98360  1.0000
  C   C742      1.0  0.64902  0.20122  0.34149  1.0000
  N   N63       1.0  0.62290  0.17949  0.36280  1.0000
  C   C743      1.0  0.60723  0.11795  0.06657  1.0000
  H   H749      1.0  0.64517  0.15571  0.17324  1.0000
  C   C744      1.0  0.53082  0.07626  0.98316  1.0000
  C   C745      1.0  0.65084  0.14065  0.17443  1.0000
  H   H750      1.0  0.64653  0.08551  0.05148  1.0000
  H   H751      1.0  0.65565  0.10510  0.15212  1.0000
  C   C746      1.0  0.53598  0.11277  0.04388  1.0000
  H   H752      1.0  0.65504  0.11066  0.08102  1.0000
  H   H753      1.0  0.57558  0.03449  0.10103  1.0000
  C   C747      1.0  0.62863  0.06843  0.07184  1.0000
  C   C748      1.0  0.57083  0.14426  0.03160  1.0000
  H   H754      1.0  0.59514  0.17445  0.37011  1.0000
  C   C749      1.0  0.65158  0.20246  0.15330  1.0000
  Fe  Fe118     1.0  0.61507  0.19922  0.43066  1.0000
  S   S250      1.0  0.58702  0.21123  0.42242  1.0000
  S   S251      1.0  0.62747  0.16818  0.43641  1.0000
  C   C750      1.0  0.63101  0.13648  0.04989  1.0000
  H   H755      1.0  0.65169  0.17703  0.39930  1.0000
  H   H756      1.0  0.64300  0.13964  0.14919  1.0000
  H   H757      1.0  0.60757  0.16749  0.38930  1.0000
  S   S252      1.0  0.60891  0.21590  0.45331  1.0000
  H   H758      1.0  0.54411  0.05143  0.00053  1.0000
  Fe  Fe119     1.0  0.65621  0.15304  0.07428  1.0000
  C   C751      1.0  0.64778  0.13747  0.38720  1.0000
  C   C752      1.0  0.53922  0.12774  0.01109  1.0000
  C   C753      1.0  0.54902  0.12240  0.04540  1.0000
  S   S253      1.0  0.64421  0.14188  0.10459  1.0000
  H   H759      1.0  0.63544  0.16075  0.34377  1.0000
  C   C754      1.0  0.60747  0.11243  0.05002  1.0000
  H   H760      1.0  0.55311  0.11982  0.05879  1.0000
  N   N64       1.0  0.55696  0.13438  0.03009  1.0000
  C   C755      1.0  0.61966  0.11882  0.03340  1.0000
  C   C756      1.0  0.57722  0.02292  0.09423  1.0000
  H   H761      1.0  0.64036  0.13621  0.02034  1.0000
  C   C757      1.0  0.62800  0.06746  0.10427  1.0000
  C   C758      1.0  0.53555  0.05684  0.99003  1.0000
  H   H762      1.0  0.54006  0.99235  0.15829  1.0000
  N   N65       1.0  0.64738  0.08583  0.07954  1.0000
  C   C759      1.0  0.62173  0.06207  0.09092  1.0000
  H   H763      1.0  0.59780  0.11309  0.07949  1.0000
  C   C760      1.0  0.63536  0.17387  0.34745  1.0000
  C   C761      1.0  0.63564  0.13059  0.40366  1.0000
  C   C762      1.0  0.62965  0.14009  0.41861  1.0000
  C   C763      1.0  0.63514  0.15699  0.41705  1.0000
  S   S254      1.0  0.57280  0.00083  0.12965  1.0000
  C   C764      1.0  0.63887  0.99965  0.17768  1.0000
  H   H764      1.0  0.63093  0.11774  0.40491  1.0000
  H   H765      1.0  0.62054  0.13440  0.43139  1.0000
  H   H766      1.0  0.61347  0.15334  0.37204  1.0000
  S   S255      1.0  0.58330  0.05323  0.99723  1.0000
  C   C765      1.0  0.64958  0.13163  0.16088  1.0000
  H   H767      1.0  0.53010  0.10288  0.05590  1.0000
  H   H768      1.0  0.57312  0.14120  0.04620  1.0000
  Fe  Fe120     1.0  0.58217  0.22997  0.44294  1.0000
  C   C766      1.0  0.58237  0.01111  0.06576  1.0000
  H   H769      1.0  0.56610  0.15976  0.02727  1.0000
  C   C767      1.0  0.53108  0.11548  0.02659  1.0000
  S   S256      1.0  0.65349  0.12566  0.36836  1.0000
  C   C768      1.0  0.60901  0.16818  0.37406  1.0000
  C   C769      1.0  0.64161  0.08030  0.06636  1.0000
  C   C770      1.0  0.63121  0.13099  0.03332  1.0000
  C   C771      1.0  0.63603  0.20704  0.35695  1.0000
  H   H770      1.0  0.63777  0.01183  0.16627  1.0000
  C   C772      1.0  0.58038  0.02607  0.07454  1.0000
  H   H771      1.0  0.64573  0.08364  0.10872  1.0000
  H   H772      1.0  0.61949  0.99877  0.99437  1.0000
  Fe  Fe121     1.0  0.56464  0.07973  0.00449  1.0000
  C   C773      1.0  0.58118  0.99310  0.07662  1.0000
  H   H773      1.0  0.55885  0.14624  0.00084  1.0000
  S   S257      1.0  0.63045  0.21923  0.40828  1.0000
  H   H774      1.0  0.65338  0.07628  0.29219  1.0000
  Fe  Fe122     1.0  0.65434  0.16506  0.11087  1.0000
  H   H775      1.0  0.53577  0.12957  0.99749  1.0000
  S   S258      1.0  0.58808  0.09555  0.99786  1.0000
  H   H776      1.0  0.51379  0.22032  0.46897  1.0000
  H   H777      1.0  0.53261  0.02928  0.98905  1.0000
  C   C774      1.0  0.62160  0.00884  0.98122  1.0000
  H   H778      1.0  0.54061  0.98742  0.12694  1.0000
  Fe  Fe123     1.0  0.60199  0.23276  0.40175  1.0000
  H   H779      1.0  0.65591  0.18843  0.43455  1.0000
  C   C775      1.0  0.65504  0.19558  0.13677  1.0000
  H   H780      1.0  0.52134  0.10776  0.02504  1.0000
  C   C776      1.0  0.64858  0.18465  0.33660  1.0000
  C   C777      1.0  0.64094  0.07941  0.09829  1.0000
  C   C778      1.0  0.65377  0.15416  0.38572  1.0000
  S   S259      1.0  0.64537  0.15217  0.04906  1.0000
  C   C779      1.0  0.62435  0.02660  0.98116  1.0000
  C   C780      1.0  0.64716  0.16412  0.40051  1.0000
  H   H781      1.0  0.65736  0.17792  0.46812  1.0000
  S   S260      1.0  0.62995  0.05930  0.75854  1.0000
  N   N66       1.0  0.39100  0.15013  0.82703  1.0000
  H   H782      1.0  0.57896  0.00053  0.94927  1.0000
  H   H783      1.0  0.62317  0.00852  0.81798  1.0000
  C   C781      1.0  0.61936  0.99604  0.81641  1.0000
  S   S261      1.0  0.60451  0.03205  0.74214  1.0000
  C   C782      1.0  0.40225  0.14926  0.80807  1.0000
  H   H784      1.0  0.51535  0.09809  0.96465  1.0000
  H   H785      1.0  0.54252  0.99495  0.90223  1.0000
  H   H786      1.0  0.40451  0.03805  0.92588  1.0000
  H   H787      1.0  0.63824  0.20810  0.68855  1.0000
  C   C783      1.0  0.50605  0.00562  0.83331  1.0000
  Fe  Fe124     1.0  0.49295  0.04076  0.93984  1.0000
  S   S262      1.0  0.50011  0.01624  0.92548  1.0000
  S   S263      1.0  0.51079  0.03435  0.96175  1.0000
  Fe  Fe125     1.0  0.46240  0.06156  0.91760  1.0000
  S   S264      1.0  0.46757  0.03874  0.90166  1.0000
  S   S265      1.0  0.43732  0.08471  0.91186  1.0000
  Fe  Fe126     1.0  0.46913  0.01897  0.92931  1.0000
  C   C784      1.0  0.62118  0.00426  0.96449  1.0000
  Fe  Fe127     1.0  0.49802  0.03806  0.89911  1.0000
  S   S266      1.0  0.52064  0.03336  0.87354  1.0000
  S   S267      1.0  0.46174  0.04176  0.94581  1.0000
  S   S268      1.0  0.49311  0.06265  0.91290  1.0000
  S   S269      1.0  0.62707  0.06305  0.96530  1.0000
  N   N67       1.0  0.63192  0.12372  0.79219  1.0000
  Fe  Fe128     1.0  0.64280  0.21518  0.74709  1.0000
  H   H788      1.0  0.36135  0.15241  0.87706  1.0000
  C   C785      1.0  0.42679  0.04160  0.86379  1.0000
  Fe  Fe129     1.0  0.49261  0.21175  0.55794  1.0000
  S   S270      1.0  0.48845  0.21034  0.58899  1.0000
  H   H789      1.0  0.53616  0.00176  0.73663  1.0000
  Fe  Fe130     1.0  0.46011  0.20398  0.59117  1.0000
  S   S271      1.0  0.44388  0.18586  0.61563  1.0000
  H   H790      1.0  0.35458  0.03858  0.59737  1.0000
  H   H791      1.0  0.41218  0.20129  0.59139  1.0000
  S   S272      1.0  0.46560  0.20236  0.56086  1.0000
  Fe  Fe131     1.0  0.39824  0.09650  0.82251  1.0000
  S   S273      1.0  0.37021  0.11191  0.83598  1.0000
  S   S274      1.0  0.42629  0.09504  0.82896  1.0000
  Fe  Fe132     1.0  0.38236  0.08497  0.79490  1.0000
  S   S275      1.0  0.35296  0.09912  0.80585  1.0000
  S   S276      1.0  0.38801  0.06902  0.77179  1.0000
  Fe  Fe133     1.0  0.36550  0.12286  0.80652  1.0000
  S   S277      1.0  0.35180  0.15267  0.79517  1.0000
  Fe  Fe134     1.0  0.35980  0.08704  0.83436  1.0000
  H   H792      1.0  0.41218  0.13537  0.80786  1.0000
  S   S278      1.0  0.39462  0.10982  0.79293  1.0000
  S   S279      1.0  0.38823  0.07042  0.82348  1.0000
  Fe  Fe135     1.0  0.37246  0.07384  0.65487  1.0000
  S   S280      1.0  0.34843  0.09209  0.67073  1.0000
  S   S281      1.0  0.37436  0.04256  0.65989  1.0000
  Fe  Fe136     1.0  0.39045  0.10687  0.63129  1.0000
  S   S282      1.0  0.36736  0.12787  0.64448  1.0000
  S   S283      1.0  0.41500  0.11611  0.60915  1.0000
  Fe  Fe137     1.0  0.37014  0.10734  0.67167  1.0000
  S   S284      1.0  0.36924  0.12092  0.69543  1.0000
  Fe  Fe138     1.0  0.34771  0.11080  0.64238  1.0000
  H   H793      1.0  0.62712  0.20006  0.71221  1.0000
  S   S285      1.0  0.39463  0.08710  0.65864  1.0000
  S   S286      1.0  0.37053  0.09164  0.62631  1.0000
  H   H794      1.0  0.36110  0.06514  0.60709  1.0000
  C   C786      1.0  0.35844  0.03505  0.65129  1.0000
  C   C787      1.0  0.62038  0.99320  0.79853  1.0000
  H   H795      1.0  0.39877  0.01611  0.90964  1.0000
  H   H796      1.0  0.63017  0.18604  0.69494  1.0000
  C   C788      1.0  0.35150  0.01038  0.64022  1.0000
  C   C789      1.0  0.36401  0.01750  0.64609  1.0000
  H   H797      1.0  0.56222  0.21894  0.71374  1.0000
  H   H798      1.0  0.35609  0.99682  0.63612  1.0000
  C   C790      1.0  0.32732  0.15339  0.82941  1.0000
  H   H799      1.0  0.37813  0.00936  0.64656  1.0000
  C   C791      1.0  0.39737  0.20343  0.58988  1.0000
  C   C792      1.0  0.33238  0.16286  0.81083  1.0000
  N   N68       1.0  0.50181  0.20398  0.49500  1.0000
  C   C793      1.0  0.64162  0.12915  0.80393  1.0000
  H   H800      1.0  0.56395  0.02764  0.73426  1.0000
  C   C794      1.0  0.38226  0.08335  0.75073  1.0000
  C   C795      1.0  0.38403  0.07522  0.73537  1.0000
  C   C796      1.0  0.37981  0.08659  0.71835  1.0000
  C   C797      1.0  0.37394  0.10613  0.71666  1.0000
  C   C798      1.0  0.37199  0.11424  0.73206  1.0000
  C   C799      1.0  0.37606  0.10287  0.74910  1.0000
  H   H801      1.0  0.38881  0.06012  0.73660  1.0000
  H   H802      1.0  0.38133  0.08025  0.70651  1.0000
  H   H803      1.0  0.36749  0.12936  0.73079  1.0000
  H   H804      1.0  0.37467  0.10924  0.76087  1.0000
  C   C800      1.0  0.42107  0.11881  0.66660  1.0000
  C   C801      1.0  0.43707  0.14380  0.66139  1.0000
  H   H805      1.0  0.45869  0.11531  0.63009  1.0000
  C   C802      1.0  0.51750  0.05101  0.97019  1.0000
  C   C803      1.0  0.64777  0.05343  0.82542  1.0000
  H   H806      1.0  0.36723  0.16882  0.81720  1.0000
  H   H807      1.0  0.32585  0.18830  0.79031  1.0000
  C   C804      1.0  0.43436  0.16842  0.61166  1.0000
  C   C805      1.0  0.44339  0.15851  0.59729  1.0000
  C   C806      1.0  0.43692  0.14285  0.59622  1.0000
  C   C807      1.0  0.42134  0.13714  0.60940  1.0000
  C   C808      1.0  0.41183  0.14766  0.62320  1.0000
  C   C809      1.0  0.41832  0.16322  0.62432  1.0000
  H   H808      1.0  0.45584  0.16236  0.58752  1.0000
  H   H809      1.0  0.44433  0.13480  0.58549  1.0000
  H   H810      1.0  0.39992  0.14339  0.63349  1.0000
  H   H811      1.0  0.41126  0.17086  0.63545  1.0000
  H   H812      1.0  0.39423  0.13361  0.87263  1.0000
  H   H813      1.0  0.41045  0.16064  0.80312  1.0000
  C   C810      1.0  0.41563  0.02971  0.86293  1.0000
  H   H814      1.0  0.57408  0.00390  0.97302  1.0000
  H   H815      1.0  0.39308  0.15089  0.79803  1.0000
  S   S287      1.0  0.65319  0.03209  0.79929  1.0000
  H   H816      1.0  0.36637  0.03810  0.85093  1.0000
  H   H817      1.0  0.52479  0.22722  0.56223  1.0000
  N   N69       1.0  0.56700  0.02873  0.95239  1.0000
  C   C811      1.0  0.36221  0.16189  0.84732  1.0000
  H   H818      1.0  0.64365  0.07023  0.84607  1.0000
  C   C812      1.0  0.39868  0.14068  0.84233  1.0000
  C   C813      1.0  0.62646  0.04004  0.96443  1.0000
  C   C814      1.0  0.62630  0.03547  0.94756  1.0000
  C   C815      1.0  0.62370  0.01751  0.94758  1.0000
  H   H819      1.0  0.62112  0.08472  0.78645  1.0000
  H   H820      1.0  0.56023  0.05285  0.75125  1.0000
  C   C816      1.0  0.37317  0.16098  0.82932  1.0000
  C   C817      1.0  0.33151  0.02987  0.70991  1.0000
  C   C818      1.0  0.62689  0.20065  0.69735  1.0000
  C   C819      1.0  0.41817  0.03833  0.91573  1.0000
  C   C820      1.0  0.43409  0.08817  0.88881  1.0000
  C   C821      1.0  0.41584  0.09241  0.88526  1.0000
  C   C822      1.0  0.41320  0.09407  0.86702  1.0000
  C   C823      1.0  0.42882  0.09209  0.85219  1.0000
  C   C824      1.0  0.44701  0.08803  0.85575  1.0000
  C   C825      1.0  0.44965  0.08586  0.87402  1.0000
  H   H821      1.0  0.40377  0.09400  0.89673  1.0000
  H   H822      1.0  0.39912  0.09703  0.86441  1.0000
  H   H823      1.0  0.45915  0.08647  0.84434  1.0000
  H   H824      1.0  0.46377  0.08255  0.87665  1.0000
  H   H825      1.0  0.33091  0.13732  0.71928  1.0000
  H   H826      1.0  0.33183  0.00397  0.67892  1.0000
  C   C826      1.0  0.64767  0.23548  0.48593  1.0000
  C   C827      1.0  0.60119  0.00872  0.75084  1.0000
  S   S288      1.0  0.64434  0.19591  0.77521  1.0000
  C   C828      1.0  0.53970  0.04179  0.77470  1.0000
  C   C829      1.0  0.57479  0.21905  0.70268  1.0000
  H   H827      1.0  0.55568  0.19013  0.51540  1.0000
  H   H828      1.0  0.64773  0.14322  0.71893  1.0000
  S   S289      1.0  0.64590  0.10430  0.72540  1.0000
  H   H829      1.0  0.34289  0.03394  0.85542  1.0000
  C   C830      1.0  0.55591  0.03759  0.93954  1.0000
  C   C831      1.0  0.55561  0.21290  0.49103  1.0000
  H   H830      1.0  0.41108  0.23478  0.57755  1.0000
  H   H831      1.0  0.61969  0.99807  0.72711  1.0000
  H   H832      1.0  0.52076  0.18111  0.50812  1.0000
  C   C832      1.0  0.52913  0.01302  0.84613  1.0000
  C   C833      1.0  0.51472  0.02337  0.85771  1.0000
  C   C834      1.0  0.49595  0.02514  0.85679  1.0000
  C   C835      1.0  0.49163  0.01644  0.84446  1.0000
  C   C836      1.0  0.56298  0.06744  0.93879  1.0000
  H   H833      1.0  0.38307  0.00839  0.79289  1.0000
  H   H834      1.0  0.48479  0.03360  0.86520  1.0000
  C   C837      1.0  0.40815  0.14270  0.68590  1.0000
  S   S290      1.0  0.65681  0.01815  0.75181  1.0000
  N   N70       1.0  0.54443  0.01324  0.75547  1.0000
  C   C838      1.0  0.35107  0.04867  0.79921  1.0000
  H   H835      1.0  0.41271  0.15328  0.69076  1.0000
  C   C839      1.0  0.55357  0.05708  0.93270  1.0000
  H   H836      1.0  0.41295  0.13236  0.84050  1.0000
  C   C840      1.0  0.57482  0.05819  0.95135  1.0000
  H   H837      1.0  0.34100  0.03513  0.71503  1.0000
  H   H838      1.0  0.43648  0.05313  0.88187  1.0000
  H   H839      1.0  0.58223  0.06610  0.95617  1.0000
  C   C841      1.0  0.34170  0.99108  0.81768  1.0000
  C   C842      1.0  0.32796  0.00762  0.81471  1.0000
  H   H840      1.0  0.45953  0.21779  0.52266  1.0000
  C   C843      1.0  0.54816  0.20379  0.50930  1.0000
  C   C844      1.0  0.51918  0.08306  0.96993  1.0000
  C   C845      1.0  0.32727  0.03800  0.64539  1.0000
  H   H841      1.0  0.58098  0.01539  0.77556  1.0000
  C   C846      1.0  0.65636  0.11603  0.73614  1.0000
  C   C847      1.0  0.58984  0.22921  0.67044  1.0000
  H   H842      1.0  0.59348  0.20300  0.72112  1.0000
  H   H843      1.0  0.52178  0.22416  0.63026  1.0000
  S   S291      1.0  0.61442  0.22547  0.73903  1.0000
  C   C848      1.0  0.62998  0.10542  0.79564  1.0000
  C   C849      1.0  0.36975  0.15192  0.86301  1.0000
  H   H844      1.0  0.33385  0.10731  0.70957  1.0000
  C   C850      1.0  0.38815  0.14136  0.86054  1.0000
  H   H845      1.0  0.34314  0.06106  0.79142  1.0000
  C   C851      1.0  0.47149  0.21844  0.51094  1.0000
  C   C852      1.0  0.57665  0.03870  0.95807  1.0000
  C   C853      1.0  0.60732  0.22001  0.67499  1.0000
  H   H846      1.0  0.62809  0.15088  0.77406  1.0000
  N   N71       1.0  0.41712  0.03553  0.89749  1.0000
  H   H847      1.0  0.40478  0.13137  0.69833  1.0000
  H   H848      1.0  0.45895  0.99524  0.87267  1.0000
  H   H849      1.0  0.43488  0.04877  0.85102  1.0000
  H   H850      1.0  0.40936  0.11197  0.67407  1.0000
  N   N72       1.0  0.42267  0.13476  0.67117  1.0000
  C   C854      1.0  0.42753  0.04417  0.88131  1.0000
  H   H851      1.0  0.33519  0.09230  0.61369  1.0000
  H   H852      1.0  0.43795  0.15692  0.66438  1.0000
  S   S292      1.0  0.52069  0.19907  0.54130  1.0000
  C   C855      1.0  0.53216  0.01311  0.77249  1.0000
  Fe  Fe139     1.0  0.63267  0.03865  0.74068  1.0000
  H   H853      1.0  0.63714  0.04547  0.83359  1.0000
  C   C856      1.0  0.55192  0.04199  0.75719  1.0000
  S   S293      1.0  0.50049  0.99464  0.81807  1.0000
  N   N73       1.0  0.35957  0.03098  0.82836  1.0000
  C   C857      1.0  0.34957  0.04657  0.81849  1.0000
  C   C858      1.0  0.37170  0.01749  0.81933  1.0000
  S   S294      1.0  0.62783  0.98721  0.90875  1.0000
  C   C859      1.0  0.37363  0.01918  0.80001  1.0000
  C   C860      1.0  0.36314  0.03484  0.78995  1.0000
  C   C861      1.0  0.35782  0.02919  0.84857  1.0000
  C   C862      1.0  0.54694  0.99817  0.74535  1.0000
  H   H854      1.0  0.37973  0.00518  0.82709  1.0000
  H   H855      1.0  0.41521  0.02727  0.84946  1.0000
  H   H856      1.0  0.64392  0.23511  0.70686  1.0000
  Fe  Fe140     1.0  0.45306  0.23334  0.55640  1.0000
  N   N74       1.0  0.60849  0.21066  0.69298  1.0000
  Fe  Fe141     1.0  0.65054  0.07265  0.73498  1.0000
  C   C863      1.0  0.45202  0.99048  0.88703  1.0000
  H   H857      1.0  0.52002  0.02708  0.79595  1.0000
  S   S295      1.0  0.45464  0.99423  0.93879  1.0000
  H   H858      1.0  0.35372  0.01543  0.69080  1.0000
  C   C864      1.0  0.53076  0.21196  0.51942  1.0000
  H   H859      1.0  0.53605  0.99622  0.82517  1.0000
  H   H860      1.0  0.50380  0.07576  0.95304  1.0000
  H   H861      1.0  0.36226  0.01430  0.85570  1.0000
  H   H862      1.0  0.51281  0.99722  0.89225  1.0000
  H   H863      1.0  0.39751  0.20086  0.57596  1.0000
  C   C865      1.0  0.33305  0.02045  0.63998  1.0000
  C   C866      1.0  0.59251  0.20999  0.70675  1.0000
  C   C867      1.0  0.55398  0.02763  0.74762  1.0000
  C   C868      1.0  0.52480  0.00399  0.83412  1.0000
  C   C869      1.0  0.36821  0.22600  0.59920  1.0000
  H   H864      1.0  0.33532  0.13960  0.83435  1.0000
  C   C870      1.0  0.33864  0.01880  0.69633  1.0000
  H   H865      1.0  0.61056  0.10767  0.75889  1.0000
  C   C871      1.0  0.48684  0.20320  0.50992  1.0000
  H   H866      1.0  0.64266  0.22523  0.49803  1.0000
  C   C872      1.0  0.52120  0.22963  0.51141  1.0000
  H   H867      1.0  0.63641  0.12352  0.81907  1.0000
  H   H868      1.0  0.61998  0.22097  0.66417  1.0000
  H   H869      1.0  0.39504  0.14954  0.68050  1.0000
  C   C873      1.0  0.40534  0.02064  0.87950  1.0000
  C   C874      1.0  0.45768  0.99418  0.90179  1.0000
  N   N75       1.0  0.38710  0.22265  0.59150  1.0000
  H   H870      1.0  0.62491  0.00350  0.78613  1.0000
  C   C875      1.0  0.51259  0.07046  0.96337  1.0000
  C   C876      1.0  0.52964  0.02735  0.78237  1.0000
  H   H871      1.0  0.53811  0.05271  0.78240  1.0000
  C   C877      1.0  0.58740  0.00483  0.76706  1.0000
  C   C878      1.0  0.34005  0.04542  0.65081  1.0000
  C   C879      1.0  0.62206  0.09940  0.78392  1.0000
  H   H872      1.0  0.63968  0.14471  0.80174  1.0000
  H   H873      1.0  0.58556  0.03167  0.96813  1.0000
  H   H874      1.0  0.42921  0.02709  0.92163  1.0000
  H   H875      1.0  0.50777  0.23603  0.51889  1.0000
  H   H876      1.0  0.46919  0.00138  0.89879  1.0000
  H   H877      1.0  0.56087  0.08264  0.93405  1.0000
  H   H878      1.0  0.39709  0.01090  0.87902  1.0000
  H   H879      1.0  0.54366  0.01191  0.84655  1.0000
  C   C880      1.0  0.33606  0.99201  0.85071  1.0000
  C   C881      1.0  0.33240  0.08096  0.60898  1.0000
  Fe  Fe142     1.0  0.65518  0.03987  0.76810  1.0000
  C   C882      1.0  0.56884  0.00836  0.95969  1.0000
  C   C883      1.0  0.60930  0.99505  0.73987  1.0000
  C   C884      1.0  0.40639  0.02360  0.89678  1.0000
  C   C885      1.0  0.44893  0.12046  0.64199  1.0000
  H   H880      1.0  0.43247  0.09919  0.64783  1.0000
  H   H881      1.0  0.56877  0.20625  0.48313  1.0000
  H   H882      1.0  0.34035  0.05749  0.82549  1.0000
  C   C886      1.0  0.61597  0.11232  0.76861  1.0000
  H   H883      1.0  0.62736  0.04605  0.93468  1.0000
  H   H884      1.0  0.47710  0.01804  0.84365  1.0000
  H   H885      1.0  0.63486  0.09529  0.80733  1.0000
  H   H886      1.0  0.46144  0.14433  0.63858  1.0000
  C   C887      1.0  0.61768  0.13106  0.76535  1.0000
  C   C888      1.0  0.34711  0.06571  0.60518  1.0000
  C   C889      1.0  0.43415  0.11141  0.65195  1.0000
  H   H887      1.0  0.42165  0.05224  0.91444  1.0000
  H   H888      1.0  0.36452  0.03644  0.77495  1.0000
  C   C890      1.0  0.45050  0.13669  0.64678  1.0000
  S   S296      1.0  0.44567  0.23448  0.58682  1.0000
  H   H889      1.0  0.34791  0.17019  0.84904  1.0000
  S   S297      1.0  0.33772  0.07437  0.85656  1.0000
  H   H890      1.0  0.36070  0.21449  0.60434  1.0000
  C   C891      1.0  0.57349  0.22869  0.68439  1.0000
  H   H891      1.0  0.54814  0.02971  0.93514  1.0000
  H   H892      1.0  0.54401  0.06414  0.92324  1.0000
  H   H893      1.0  0.39091  0.19268  0.60113  1.0000
  H   H894      1.0  0.33111  0.13621  0.66121  1.0000
  C   C892      1.0  0.44854  0.98845  0.92035  1.0000
  H   H895      1.0  0.52438  0.00186  0.77867  1.0000
  H   H896      1.0  0.61362  0.14102  0.75309  1.0000
  H   H897      1.0  0.49819  0.23040  0.61059  1.0000
  H   H898      1.0  0.62284  0.01421  0.93471  1.0000
  C   C893      1.0  0.62589  0.13653  0.77727  1.0000
  H   H899      1.0  0.48681  0.19081  0.52123  1.0000
  H   H900      1.0  0.33557  0.05889  0.65509  1.0000
  C   C894      1.0  0.34348  0.05082  0.59966  1.0000
  H   H901      1.0  0.56123  0.99586  0.73618  1.0000
  C   C895      1.0  0.65147  0.06737  0.83250  1.0000
  H   H902      1.0  0.54679  0.21634  0.58425  1.0000
  H   H903      1.0  0.55490  0.00436  0.96279  1.0000
  C   C896      1.0  0.51745  0.18760  0.49397  1.0000
  C   C897      1.0  0.54135  0.23131  0.57982  1.0000
  S   S298      1.0  0.65111  0.05389  0.71576  1.0000
  C   C898      1.0  0.32528  0.05137  0.59793  1.0000
  C   C899      1.0  0.58094  0.98788  0.77168  1.0000
  C   C900      1.0  0.65463  0.13565  0.73044  1.0000
  C   C901      1.0  0.32618  0.01251  0.68954  1.0000
  C   C902      1.0  0.47162  0.23463  0.49678  1.0000
  H   H904      1.0  0.53055  0.19170  0.48471  1.0000
  H   H905      1.0  0.65361  0.01365  0.88854  1.0000
  H   H906      1.0  0.51373  0.17692  0.48852  1.0000
  C   C903      1.0  0.54570  0.23030  0.48284  1.0000
  C   C904      1.0  0.65762  0.04992  0.80772  1.0000
  H   H907      1.0  0.65692  0.01622  0.91954  1.0000
  C   C905      1.0  0.48688  0.23527  0.48154  1.0000
  H   H908      1.0  0.65699  0.12323  0.80034  1.0000
  H   H909      1.0  0.55988  0.23603  0.68104  1.0000
  C   C906      1.0  0.50185  0.21962  0.48075  1.0000
  H   H910      1.0  0.32531  0.12867  0.78523  1.0000
  S   S299      1.0  0.35331  0.45981  0.42961  1.0000
  Fe  Fe143     1.0  0.62224  0.23703  0.43013  1.0000
  C   C907      1.0  0.58237  0.31935  0.38499  1.0000
  C   C908      1.0  0.56484  0.38995  0.23745  1.0000
  H   H911      1.0  0.59512  0.39048  0.21041  1.0000
  H   H912      1.0  0.58042  0.41179  0.31619  1.0000
  C   C909      1.0  0.42079  0.48191  0.37450  1.0000
  S   S300      1.0  0.64982  0.26738  0.22506  1.0000
  Fe  Fe144     1.0  0.33274  0.48310  0.44230  1.0000
  C   C910      1.0  0.56889  0.42351  0.31326  1.0000
  H   H913      1.0  0.65129  0.42806  0.33962  1.0000
  H   H914      1.0  0.54593  0.26346  0.42015  1.0000
  S   S301      1.0  0.64215  0.25422  0.43160  1.0000
  Fe  Fe145     1.0  0.35447  0.44543  0.45964  1.0000
  H   H915      1.0  0.63289  0.45759  0.44249  1.0000
  Fe  Fe146     1.0  0.47970  0.47585  0.28303  1.0000
  S   S302      1.0  0.50545  0.45869  0.26705  1.0000
  S   S303      1.0  0.33209  0.46753  0.47221  1.0000
  Fe  Fe147     1.0  0.61520  0.35477  0.27368  1.0000
  S   S304      1.0  0.59439  0.33948  0.29544  1.0000
  H   H916      1.0  0.59278  0.34719  0.24684  1.0000
  Fe  Fe148     1.0  0.61205  0.38343  0.29731  1.0000
  S   S305      1.0  0.59136  0.37036  0.32099  1.0000
  Fe  Fe149     1.0  0.60987  0.34273  0.31589  1.0000
  S   S306      1.0  0.62013  0.32171  0.34025  1.0000
  Fe  Fe150     1.0  0.57772  0.36874  0.29848  1.0000
  S   S307      1.0  0.54594  0.37718  0.30396  1.0000
  S   S308      1.0  0.63187  0.35597  0.29394  1.0000
  S   S309      1.0  0.59720  0.38375  0.27493  1.0000
  H   H917      1.0  0.56519  0.40394  0.22880  1.0000
  H   H918      1.0  0.59733  0.31416  0.38631  1.0000
  C   C911      1.0  0.63060  0.40576  0.31865  1.0000
  H   H919      1.0  0.62298  0.28309  0.25467  1.0000
  H   H920      1.0  0.52686  0.47725  0.28684  1.0000
  H   H921      1.0  0.59640  0.46418  0.38694  1.0000
  C   C912      1.0  0.65472  0.30382  0.21975  1.0000
  H   H922      1.0  0.63906  0.37245  0.35754  1.0000
  C   C913      1.0  0.63784  0.42003  0.32158  1.0000
  C   C914      1.0  0.39508  0.46840  0.36310  1.0000
  C   C915      1.0  0.63118  0.38860  0.33162  1.0000
  H   H923      1.0  0.60660  0.38419  0.23021  1.0000
  C   C916      1.0  0.63628  0.32559  0.24018  1.0000
  C   C917      1.0  0.56388  0.35471  0.26069  1.0000
  S   S310      1.0  0.41533  0.47057  0.32671  1.0000
  H   H924      1.0  0.63835  0.40668  0.46259  1.0000
  H   H925      1.0  0.52206  0.47968  0.31116  1.0000
  C   C918      1.0  0.60184  0.47312  0.39255  1.0000
  C   C919      1.0  0.57269  0.44055  0.30187  1.0000
  C   C920      1.0  0.54777  0.36902  0.26194  1.0000
  C   C921      1.0  0.53562  0.43702  0.31690  1.0000
  C   C922      1.0  0.52406  0.46974  0.30177  1.0000
  H   H926      1.0  0.56380  0.34104  0.27009  1.0000
  S   S311      1.0  0.35622  0.41407  0.47011  1.0000
  H   H927      1.0  0.52115  0.43545  0.32274  1.0000
  H   H928      1.0  0.53514  0.36659  0.27242  1.0000
  S   S312      1.0  0.59518  0.25247  0.42144  1.0000
  C   C923      1.0  0.56603  0.30107  0.41369  1.0000
  C   C924      1.0  0.55771  0.45560  0.29817  1.0000
  H   H929      1.0  0.56930  0.30940  0.42181  1.0000
  C   C925      1.0  0.64604  0.39994  0.35048  1.0000
  S   S313      1.0  0.63129  0.34821  0.24545  1.0000
  C   C926      1.0  0.59799  0.37949  0.22298  1.0000
  H   H930      1.0  0.65578  0.25467  0.29284  1.0000
  H   H931      1.0  0.38517  0.46309  0.35873  1.0000
  C   C927      1.0  0.61494  0.29912  0.34747  1.0000
  C   C928      1.0  0.60456  0.29288  0.33817  1.0000
  C   C929      1.0  0.59975  0.27505  0.34529  1.0000
  C   C930      1.0  0.60501  0.26375  0.36187  1.0000
  C   C931      1.0  0.61580  0.26986  0.37079  1.0000
  C   C932      1.0  0.62086  0.28742  0.36352  1.0000
  H   H932      1.0  0.59999  0.30187  0.32573  1.0000
  H   H933      1.0  0.59140  0.27033  0.33836  1.0000
  H   H934      1.0  0.62015  0.26113  0.38342  1.0000
  H   H935      1.0  0.55222  0.28352  0.43838  1.0000
  N   N76       1.0  0.58050  0.37573  0.23606  1.0000
  H   H936      1.0  0.63232  0.44058  0.42967  1.0000
  C   C933      1.0  0.56818  0.29348  0.38438  1.0000
  S   S314      1.0  0.65128  0.47427  0.40380  1.0000
  C   C934      1.0  0.63333  0.44239  0.44356  1.0000
  S   S315      1.0  0.47058  0.46881  0.31433  1.0000
  C   C935      1.0  0.55276  0.27524  0.41288  1.0000
  C   C936      1.0  0.51667  0.43656  0.27840  1.0000
  C   C937      1.0  0.50661  0.42499  0.29311  1.0000
  C   C938      1.0  0.51577  0.40685  0.30095  1.0000
  C   C939      1.0  0.53511  0.40039  0.29452  1.0000
  C   C940      1.0  0.54529  0.41228  0.28031  1.0000
  C   C941      1.0  0.53604  0.43015  0.27207  1.0000
  H   H937      1.0  0.49165  0.42976  0.29802  1.0000
  H   H938      1.0  0.50777  0.39776  0.31195  1.0000
  H   H939      1.0  0.56018  0.40755  0.27530  1.0000
  H   H940      1.0  0.54389  0.43908  0.26073  1.0000
  S   S316      1.0  0.62067  0.40952  0.29890  1.0000
  H   H941      1.0  0.56073  0.46885  0.28934  1.0000
  Fe  Fe151     1.0  0.35592  0.48108  0.47079  1.0000
  C   C942      1.0  0.63068  0.29385  0.24625  1.0000
  H   H942      1.0  0.37926  0.46719  0.39168  1.0000
  H   H943      1.0  0.62579  0.37746  0.32942  1.0000
  C   C943      1.0  0.58024  0.35832  0.24759  1.0000
  C   C944      1.0  0.54819  0.38674  0.25023  1.0000
  C   C945      1.0  0.55026  0.42165  0.32080  1.0000
  C   C946      1.0  0.65032  0.32167  0.22445  1.0000
  H   H944      1.0  0.51062  0.46509  0.30409  1.0000
  C   C947      1.0  0.62652  0.31159  0.25117  1.0000
  C   C948      1.0  0.63876  0.38575  0.34754  1.0000
  H   H945      1.0  0.63750  0.43329  0.31153  1.0000
  S   S317      1.0  0.65527  0.39571  0.37074  1.0000
  H   H946      1.0  0.61570  0.31444  0.26334  1.0000
  C   C949      1.0  0.41131  0.47288  0.35018  1.0000
  N   N77       1.0  0.53947  0.45364  0.30553  1.0000
  C   C950      1.0  0.62050  0.46794  0.39507  1.0000
  H   H947      1.0  0.62939  0.45496  0.39149  1.0000
  H   H948      1.0  0.62907  0.29213  0.37063  1.0000
  Fe  Fe152     1.0  0.44126  0.48149  0.30973  1.0000
  S   S318      1.0  0.37837  0.45780  0.46034  1.0000
  C   C951      1.0  0.64478  0.28991  0.23054  1.0000
  C   C952      1.0  0.55884  0.27862  0.39338  1.0000
  H   H949      1.0  0.60655  0.36654  0.21794  1.0000
  H   H950      1.0  0.33154  0.39395  0.46181  1.0000
  H   H951      1.0  0.57642  0.33218  0.39108  1.0000
  N   N78       1.0  0.57164  0.30450  0.39452  1.0000
  C   C953      1.0  0.64725  0.28166  0.30086  1.0000
  H   H952      1.0  0.58218  0.32367  0.36972  1.0000
  H   H953      1.0  0.54716  0.40830  0.32935  1.0000
  C   C954      1.0  0.55631  0.28656  0.42314  1.0000
  H   H954      1.0  0.62075  0.43874  0.45418  1.0000
  H   H955      1.0  0.58721  0.44199  0.29597  1.0000
  H   H956      1.0  0.57290  0.29595  0.36925  1.0000
  H   H957      1.0  0.53584  0.39809  0.25152  1.0000
  H   H958      1.0  0.55681  0.26947  0.38530  1.0000
  Fe  Fe153     1.0  0.37514  0.47439  0.43158  1.0000
  C   C955      1.0  0.62763  0.47971  0.40192  1.0000
  C   C956      1.0  0.65106  0.41236  0.45846  1.0000
  S   S319      1.0  0.55321  0.24116  0.45922  1.0000
  S   S320      1.0  0.59700  0.24271  0.37227  1.0000
  C   C957      1.0  0.39174  0.47069  0.38176  1.0000
  H   H959      1.0  0.63932  0.27640  0.31467  1.0000
  S   S321      1.0  0.40091  0.48119  0.41036  1.0000
  C   C958      1.0  0.64566  0.41709  0.33745  1.0000
  H   H960      1.0  0.65791  0.33246  0.21588  1.0000
  H   H961      1.0  0.48721  0.24784  0.47050  1.0000
  H   H962      1.0  0.32558  0.42381  0.43910  1.0000
  H   H963      1.0  0.64100  0.31033  0.30474  1.0000
  C   C959      1.0  0.64127  0.23858  0.46922  1.0000
  C   C960      1.0  0.65658  0.26947  0.28848  1.0000
  H   H964      1.0  0.61973  0.48572  0.33621  1.0000
  H   H965      1.0  0.62897  0.46934  0.35541  1.0000
  C   C961      1.0  0.64822  0.30071  0.29531  1.0000
  C   C962      1.0  0.42416  0.47956  0.35597  1.0000
  C   C963      1.0  0.40462  0.47749  0.38744  1.0000
  H   H966      1.0  0.33084  0.48374  0.40203  1.0000
  N   N79       1.0  0.65084  0.43055  0.44869  1.0000
  H   H967      1.0  0.37489  0.48279  0.32538  1.0000
  S   S322      1.0  0.44990  0.48565  0.27822  1.0000
  C   C964      1.0  0.64796  0.25158  0.45343  1.0000
  H   H968      1.0  0.64977  0.33464  0.41925  1.0000
  C   C965      1.0  0.63152  0.48159  0.34379  1.0000
  H   H969      1.0  0.43685  0.48276  0.34625  1.0000
  H   H970      1.0  0.64466  0.47709  0.33369  1.0000
  C   C966      1.0  0.47858  0.39314  0.61786  1.0000
  H   H971      1.0  0.38210  0.41525  0.50161  1.0000
  H   H972      1.0  0.35257  0.44324  0.64888  1.0000
  H   H973      1.0  0.38080  0.34026  0.60755  1.0000
  C   C967      1.0  0.36194  0.43766  0.51300  1.0000
  C   C968      1.0  0.54639  0.24462  0.58665  1.0000
  H   H974      1.0  0.51182  0.28342  0.62918  1.0000
  H   H975      1.0  0.38209  0.38238  0.51496  1.0000
  H   H976      1.0  0.54928  0.27107  0.60195  1.0000
  N   N80       1.0  0.34312  0.41959  0.66801  1.0000
  S   S323      1.0  0.33994  0.32906  0.55793  1.0000
  C   C969      1.0  0.37644  0.38541  0.52931  1.0000
  C   C970      1.0  0.34248  0.42825  0.54331  1.0000
  C   C971      1.0  0.36779  0.25928  0.59387  1.0000
  C   C972      1.0  0.50914  0.27188  0.62488  1.0000
  Fe  Fe154     1.0  0.39433  0.42091  0.63517  1.0000
  S   S324      1.0  0.42520  0.41485  0.62309  1.0000
  S   S325      1.0  0.37325  0.42323  0.61780  1.0000
  Fe  Fe155     1.0  0.39990  0.42433  0.67272  1.0000
  S   S326      1.0  0.43165  0.41777  0.66411  1.0000
  S   S327      1.0  0.37944  0.43033  0.69934  1.0000
  Fe  Fe156     1.0  0.42650  0.43742  0.63691  1.0000
  H   H977      1.0  0.63548  0.25905  0.53415  1.0000
  Fe  Fe157     1.0  0.42773  0.39554  0.65095  1.0000
  S   S328      1.0  0.44355  0.36595  0.64817  1.0000
  S   S329      1.0  0.39523  0.44548  0.64645  1.0000
  S   S330      1.0  0.39650  0.40023  0.66221  1.0000
  Fe  Fe158     1.0  0.36402  0.33125  0.56915  1.0000
  S   S331      1.0  0.35429  0.31519  0.59794  1.0000
  S   S332      1.0  0.39493  0.32745  0.55655  1.0000
  C   C973      1.0  0.63659  0.25784  0.60507  1.0000
  H   H978      1.0  0.51157  0.26152  0.55315  1.0000
  Fe  Fe159     1.0  0.33881  0.34314  0.60462  1.0000
  C   C974      1.0  0.52694  0.26957  0.56940  1.0000
  S   S333      1.0  0.35066  0.35932  0.57662  1.0000
  H   H979      1.0  0.48887  0.28975  0.60881  1.0000
  Fe  Fe160     1.0  0.58242  0.28386  0.64910  1.0000
  S   S334      1.0  0.57499  0.31444  0.63535  1.0000
  S   S335      1.0  0.61088  0.27051  0.65643  1.0000
  Fe  Fe161     1.0  0.54870  0.27457  0.64062  1.0000
  S   S336      1.0  0.53875  0.30421  0.62576  1.0000
  H   H980      1.0  0.34078  0.36439  0.52469  1.0000
  Fe  Fe162     1.0  0.56920  0.30365  0.61279  1.0000
  S   S337      1.0  0.57918  0.31296  0.58178  1.0000
  Fe  Fe163     1.0  0.54510  0.31233  0.64981  1.0000
  S   S338      1.0  0.52649  0.33653  0.66295  1.0000
  S   S339      1.0  0.57862  0.27336  0.62537  1.0000
  S   S340      1.0  0.55307  0.28247  0.66577  1.0000
  H   H981      1.0  0.35841  0.37691  0.49301  1.0000
  H   H982      1.0  0.34894  0.48058  0.73447  1.0000
  H   H983      1.0  0.39442  0.26729  0.58051  1.0000
  H   H984      1.0  0.37036  0.35706  0.64572  1.0000
  C   C975      1.0  0.51884  0.25346  0.63053  1.0000
  H   H985      1.0  0.63720  0.24327  0.61355  1.0000
  H   H986      1.0  0.34964  0.45380  0.72049  1.0000
  H   H987      1.0  0.62401  0.26724  0.61184  1.0000
  H   H988      1.0  0.34325  0.24714  0.60645  1.0000
  C   C976      1.0  0.40475  0.30506  0.55125  1.0000
  C   C977      1.0  0.42321  0.29654  0.55332  1.0000
  C   C978      1.0  0.43119  0.27845  0.54966  1.0000
  C   C979      1.0  0.42104  0.26911  0.54317  1.0000
  C   C980      1.0  0.40271  0.27779  0.54067  1.0000
  C   C981      1.0  0.39441  0.29563  0.54507  1.0000
  H   H989      1.0  0.43129  0.30382  0.55800  1.0000
  H   H990      1.0  0.44532  0.27187  0.55166  1.0000
  H   H991      1.0  0.39476  0.27055  0.53576  1.0000
  H   H992      1.0  0.38016  0.30220  0.54339  1.0000
  C   C982      1.0  0.46607  0.35744  0.65356  1.0000
  C   C983      1.0  0.47698  0.34063  0.64835  1.0000
  C   C984      1.0  0.49536  0.33387  0.65158  1.0000
  C   C985      1.0  0.50295  0.34386  0.66010  1.0000
  C   C986      1.0  0.49191  0.36051  0.66563  1.0000
  C   C987      1.0  0.47353  0.36734  0.66231  1.0000
  H   H993      1.0  0.47125  0.33282  0.64172  1.0000
  H   H994      1.0  0.50357  0.32085  0.64762  1.0000
  H   H995      1.0  0.49767  0.36823  0.67235  1.0000
  H   H996      1.0  0.46515  0.38024  0.66651  1.0000
  C   C988      1.0  0.36631  0.40199  0.61994  1.0000
  C   C989      1.0  0.37300  0.38566  0.63231  1.0000
  C   C990      1.0  0.36559  0.36947  0.63567  1.0000
  C   C991      1.0  0.35203  0.36931  0.62606  1.0000
  C   C992      1.0  0.34603  0.38529  0.61292  1.0000
  C   C993      1.0  0.35301  0.40170  0.61003  1.0000
  H   H997      1.0  0.38357  0.38556  0.63962  1.0000
  H   H998      1.0  0.41165  0.45688  0.60746  1.0000
  S   S341      1.0  0.34242  0.34923  0.63098  1.0000
  H   H999      1.0  0.34781  0.41430  0.60041  1.0000
  C   C994      1.0  0.64328  0.30349  0.56754  1.0000
  C   C995      1.0  0.63312  0.30899  0.55319  1.0000
  C   C996      1.0  0.61335  0.31292  0.55753  1.0000
  C   C997      1.0  0.60367  0.31132  0.57627  1.0000
  C   C998      1.0  0.61382  0.30684  0.59056  1.0000
  C   C999      1.0  0.63358  0.30316  0.58617  1.0000
  C   C1000     1.0  0.33625  0.38336  0.67547  1.0000
  H   H1000     1.0  0.60558  0.31664  0.54639  1.0000
  H   H1001     1.0  0.60651  0.30573  0.60507  1.0000
  H   H1002     1.0  0.64133  0.29938  0.59733  1.0000
  C   C1001     1.0  0.61384  0.24076  0.71701  1.0000
  H   H1003     1.0  0.36581  0.44857  0.50100  1.0000
  C   C1002     1.0  0.33056  0.39680  0.66026  1.0000
  H   H1004     1.0  0.46542  0.41903  0.62769  1.0000
  H   H1005     1.0  0.33041  0.42510  0.64438  1.0000
  C   C1003     1.0  0.47807  0.40808  0.62598  1.0000
  C   C1004     1.0  0.34515  0.38829  0.68710  1.0000
  C   C1005     1.0  0.34749  0.44240  0.52796  1.0000
  C   C1006     1.0  0.65223  0.25120  0.57391  1.0000
  C   C1007     1.0  0.39584  0.45651  0.70576  1.0000
  C   C1008     1.0  0.37932  0.45004  0.70812  1.0000
  C   C1009     1.0  0.49500  0.37914  0.61583  1.0000
  H   H1006     1.0  0.52443  0.35142  0.62095  1.0000
  H   H1007     1.0  0.64043  0.31018  0.53874  1.0000
  H   H1008     1.0  0.40898  0.44960  0.69808  1.0000
  C   C1010     1.0  0.38695  0.25576  0.58583  1.0000
  C   C1011     1.0  0.33751  0.37928  0.51855  1.0000
  H   H1009     1.0  0.40994  0.48352  0.64371  1.0000
  N   N81       1.0  0.63612  0.25824  0.58560  1.0000
  H   H1010     1.0  0.55705  0.28254  0.57785  1.0000
  H   H1011     1.0  0.34971  0.37796  0.69895  1.0000
  C   C1012     1.0  0.54503  0.27731  0.58820  1.0000
  C   C1013     1.0  0.61185  0.26077  0.68017  1.0000
  C   C1014     1.0  0.59539  0.26018  0.69404  1.0000
  H   H1012     1.0  0.39614  0.46993  0.54497  1.0000
  S   S342      1.0  0.44302  0.45978  0.62103  1.0000
  H   H1013     1.0  0.46618  0.39213  0.61363  1.0000
  H   H1014     1.0  0.58184  0.26699  0.69051  1.0000
  H   H1015     1.0  0.58357  0.24918  0.72295  1.0000
  C   C1015     1.0  0.34640  0.43882  0.66405  1.0000
  S   S343      1.0  0.53745  0.24902  0.64223  1.0000
  C   C1016     1.0  0.37858  0.48023  0.72444  1.0000
  H   H1016     1.0  0.41353  0.31450  0.58949  1.0000
  H   H1017     1.0  0.33397  0.36910  0.67804  1.0000
  N   N82       1.0  0.36612  0.40500  0.52862  1.0000
  H   H1018     1.0  0.64216  0.25260  0.67430  1.0000
  H   H1019     1.0  0.45988  0.24664  0.49775  1.0000
  C   C1017     1.0  0.32924  0.41782  0.50249  1.0000
  C   C1018     1.0  0.63551  0.25859  0.54869  1.0000
  H   H1020     1.0  0.60622  0.27197  0.55557  1.0000
  C   C1019     1.0  0.39551  0.47139  0.71415  1.0000
  H   H1021     1.0  0.52099  0.25228  0.48700  1.0000
  H   H1022     1.0  0.49515  0.36739  0.60983  1.0000
  C   C1020     1.0  0.34353  0.40572  0.49265  1.0000
  S   S344      1.0  0.43096  0.24621  0.53921  1.0000
  H   H1023     1.0  0.35521  0.41036  0.69241  1.0000
  H   H1024     1.0  0.64906  0.26300  0.60549  1.0000
  Fe  Fe164     1.0  0.47418  0.24083  0.58219  1.0000
  S   S345      1.0  0.48030  0.24265  0.55106  1.0000
  C   C1021     1.0  0.49595  0.27541  0.61355  1.0000
  N   N83       1.0  0.53912  0.26348  0.58146  1.0000
  C   C1022     1.0  0.50123  0.24200  0.61446  1.0000
  C   C1023     1.0  0.34749  0.38640  0.50063  1.0000
  H   H1025     1.0  0.38413  0.47746  0.52565  1.0000
  C   C1024     1.0  0.63039  0.24220  0.70339  1.0000
  S   S346      1.0  0.47701  0.26556  0.59239  1.0000
  C   C1025     1.0  0.36243  0.45887  0.71843  1.0000
  H   H1026     1.0  0.34786  0.39863  0.55533  1.0000
  Fe  Fe165     1.0  0.32864  0.31521  0.58783  1.0000
  C   C1026     1.0  0.35207  0.40954  0.54346  1.0000
  C   C1027     1.0  0.61962  0.26510  0.57932  1.0000
  C   C1028     1.0  0.36200  0.47407  0.72634  1.0000
  C   C1029     1.0  0.43172  0.47437  0.60312  1.0000
  C   C1030     1.0  0.33425  0.41492  0.65664  1.0000
  H   H1027     1.0  0.36707  0.37532  0.53690  1.0000
  N   N84       1.0  0.41018  0.33469  0.60619  1.0000
  C   C1031     1.0  0.41889  0.31848  0.59968  1.0000
  C   C1032     1.0  0.41662  0.33952  0.61938  1.0000
  C   C1033     1.0  0.43477  0.30681  0.60606  1.0000
  C   C1034     1.0  0.43247  0.32818  0.62608  1.0000
  C   C1035     1.0  0.44158  0.31173  0.61934  1.0000
  C   C1036     1.0  0.39330  0.34638  0.59964  1.0000
  H   H1028     1.0  0.40954  0.35219  0.62484  1.0000
  H   H1029     1.0  0.44173  0.29399  0.60080  1.0000
  H   H1030     1.0  0.43756  0.33215  0.63648  1.0000
  H   H1031     1.0  0.45383  0.30272  0.62447  1.0000
  H   H1032     1.0  0.39075  0.36112  0.60153  1.0000
  H   H1033     1.0  0.39474  0.34709  0.58443  1.0000
  N   N85       1.0  0.51042  0.37994  0.62184  1.0000
  H   H1034     1.0  0.36027  0.27358  0.59476  1.0000
  C   C1037     1.0  0.51003  0.39452  0.62986  1.0000
  C   C1038     1.0  0.34832  0.40664  0.68326  1.0000
  C   C1039     1.0  0.49384  0.40878  0.63209  1.0000
  H   H1035     1.0  0.33545  0.38523  0.60555  1.0000
  C   C1040     1.0  0.52773  0.36556  0.61882  1.0000
  H   H1036     1.0  0.53325  0.28954  0.59050  1.0000
  H   H1037     1.0  0.52218  0.39506  0.63480  1.0000
  C   C1041     1.0  0.41623  0.46973  0.59969  1.0000
  H   H1038     1.0  0.49344  0.42024  0.63864  1.0000
  H   H1039     1.0  0.52094  0.28447  0.56549  1.0000
  C   C1042     1.0  0.40655  0.48169  0.58609  1.0000
  H   H1040     1.0  0.53609  0.36924  0.60438  1.0000
  H   H1041     1.0  0.53656  0.36412  0.62912  1.0000
  C   C1043     1.0  0.35827  0.24437  0.60049  1.0000
  C   C1044     1.0  0.62936  0.25206  0.68496  1.0000
  C   C1045     1.0  0.49220  0.26050  0.60806  1.0000
  H   H1042     1.0  0.60685  0.27085  0.58846  1.0000
  C   C1046     1.0  0.37116  0.41880  0.51353  1.0000
  H   H1043     1.0  0.40841  0.47600  0.71276  1.0000
  H   H1044     1.0  0.38827  0.38256  0.53661  1.0000
  C   C1047     1.0  0.65212  0.25111  0.55537  1.0000
  C   C1048     1.0  0.52162  0.25665  0.56231  1.0000
  C   C1049     1.0  0.61912  0.26566  0.56072  1.0000
  H   H1045     1.0  0.33109  0.43168  0.55494  1.0000
  H   H1046     1.0  0.33294  0.44876  0.66792  1.0000
  N   N86       1.0  0.41095  0.48514  0.51990  1.0000
  C   C1050     1.0  0.52869  0.23879  0.49323  1.0000
  H   H1047     1.0  0.34017  0.45701  0.52751  1.0000
  C   C1051     1.0  0.59639  0.25012  0.71241  1.0000
  H   H1048     1.0  0.35647  0.43986  0.67208  1.0000
  H   H1049     1.0  0.55573  0.23975  0.59653  1.0000
  H   H1050     1.0  0.39443  0.47805  0.58372  1.0000
  H   H1051     1.0  0.42520  0.48118  0.54215  1.0000
  C   C1052     1.0  0.39333  0.48149  0.53277  1.0000
  C   C1053     1.0  0.39635  0.23730  0.58442  1.0000
  C   C1054     1.0  0.42614  0.48451  0.52706  1.0000
  C   C1055     1.0  0.52891  0.23740  0.56754  1.0000
  C   C1056     1.0  0.51451  0.23847  0.62570  1.0000
  H   H1052     1.0  0.58902  0.23717  0.65633  1.0000
  Fe  Fe166     1.0  0.32560  0.35623  0.56772  1.0000
  H   H1053     1.0  0.32596  0.43268  0.49643  1.0000
  S   S347      1.0  0.62509  0.62861  0.14806  1.0000
  S   S348      1.0  0.64562  0.66384  0.14189  1.0000
  Fe  Fe167     1.0  0.64642  0.63497  0.16023  1.0000
  S   S349      1.0  0.64127  0.62816  0.19183  1.0000
  Fe  Fe168     1.0  0.62650  0.65621  0.12785  1.0000
  S   S350      1.0  0.60030  0.67733  0.12178  1.0000
  C   C1057     1.0  0.61596  0.49630  0.40686  1.0000
  C   C1058     1.0  0.34378  0.63862  0.23885  1.0000
  Fe  Fe169     1.0  0.47257  0.49850  0.31294  1.0000
  C   C1059     1.0  0.49168  0.68900  0.98854  1.0000
  C   C1060     1.0  0.61693  0.50983  0.35710  1.0000
  H   H1054     1.0  0.36125  0.51470  0.10130  1.0000
  C   C1061     1.0  0.49928  0.54200  0.46159  1.0000
  Fe  Fe170     1.0  0.64415  0.65602  0.29425  1.0000
  S   S351      1.0  0.61522  0.64891  0.30279  1.0000
  H   H1055     1.0  0.33264  0.63713  0.17950  1.0000
  H   H1056     1.0  0.34882  0.66696  0.23172  1.0000
  H   H1057     1.0  0.36025  0.65258  0.13277  1.0000
  S   S352      1.0  0.51935  0.71343  0.04341  1.0000
  H   H1058     1.0  0.48318  0.55840  0.40379  1.0000
  H   H1059     1.0  0.44657  0.53845  0.18443  1.0000
  H   H1060     1.0  0.65419  0.69260  0.22518  1.0000
  S   S353      1.0  0.39669  0.72777  0.21241  1.0000
  C   C1062     1.0  0.33614  0.64931  0.18279  1.0000
  Fe  Fe171     1.0  0.55096  0.70537  0.04049  1.0000
  S   S354      1.0  0.56869  0.67750  0.05173  1.0000
  C   C1063     1.0  0.34678  0.68529  0.02325  1.0000
  C   C1064     1.0  0.59043  0.49021  0.39659  1.0000
  C   C1065     1.0  0.45791  0.73589  0.01526  1.0000
  H   H1061     1.0  0.36043  0.52552  0.13013  1.0000
  C   C1066     1.0  0.44087  0.58434  0.20463  1.0000
  C   C1067     1.0  0.64996  0.49850  0.35382  1.0000
  H   H1062     1.0  0.36040  0.66800  0.11002  1.0000
  C   C1068     1.0  0.59741  0.50164  0.40404  1.0000
  C   C1069     1.0  0.33407  0.57550  0.22591  1.0000
  S   S355      1.0  0.64905  0.67902  0.26862  1.0000
  Fe  Fe172     1.0  0.55852  0.52918  0.38369  1.0000
  S   S356      1.0  0.57096  0.54368  0.35489  1.0000
  C   C1070     1.0  0.65008  0.68399  0.18449  1.0000
  Fe  Fe173     1.0  0.53243  0.56528  0.39331  1.0000
  S   S357      1.0  0.54344  0.58288  0.36529  1.0000
  S   S358      1.0  0.50648  0.57943  0.41168  1.0000
  Fe  Fe174     1.0  0.54151  0.55904  0.35348  1.0000
  S   S359      1.0  0.52996  0.56462  0.32738  1.0000
  Fe  Fe175     1.0  0.57207  0.56600  0.36926  1.0000
  S   S360      1.0  0.60054  0.57417  0.36166  1.0000
  S   S361      1.0  0.52873  0.54258  0.38106  1.0000
  S   S362      1.0  0.56137  0.55043  0.39849  1.0000
  H   H1063     1.0  0.36605  0.70231  0.27906  1.0000
  C   C1071     1.0  0.43318  0.60149  0.19403  1.0000
  S   S363      1.0  0.44239  0.51068  0.31099  1.0000
  Fe  Fe176     1.0  0.34620  0.58750  0.18025  1.0000
  Fe  Fe177     1.0  0.45268  0.51434  0.27969  1.0000
  S   S364      1.0  0.43926  0.54175  0.26243  1.0000
  H   H1064     1.0  0.36798  0.51726  0.46190  1.0000
  N   N87       1.0  0.33006  0.53866  0.38649  1.0000
  C   C1072     1.0  0.48095  0.54943  0.47050  1.0000
  C   C1073     1.0  0.35143  0.70560  0.27782  1.0000
  C   C1074     1.0  0.34752  0.52397  0.12727  1.0000
  H   H1065     1.0  0.42947  0.61434  0.19950  1.0000
  H   H1066     1.0  0.33417  0.61740  0.20876  1.0000
  C   C1075     1.0  0.61087  0.72304  0.06791  1.0000
  H   H1067     1.0  0.47452  0.52734  0.41770  1.0000
  Fe  Fe178     1.0  0.38277  0.71169  0.20052  1.0000
  S   S365      1.0  0.38494  0.68020  0.21077  1.0000
  C   C1076     1.0  0.36367  0.51688  0.37083  1.0000
  N   N88       1.0  0.37518  0.52240  0.29133  1.0000
  H   H1068     1.0  0.49446  0.67396  0.99422  1.0000
  C   C1077     1.0  0.47547  0.53308  0.40277  1.0000
  H   H1069     1.0  0.34601  0.63580  0.25307  1.0000
  S   S366      1.0  0.39137  0.63165  0.15106  1.0000
  H   H1070     1.0  0.33868  0.61098  0.24137  1.0000
  C   C1078     1.0  0.57145  0.63721  0.09399  1.0000
  S   S367      1.0  0.50854  0.73569  0.99080  1.0000
  C   C1079     1.0  0.43277  0.52417  0.23750  1.0000
  H   H1071     1.0  0.48942  0.59256  0.46940  1.0000
  H   H1072     1.0  0.40186  0.53042  0.28077  1.0000
  C   C1080     1.0  0.38714  0.66679  0.19397  1.0000
  C   C1081     1.0  0.38756  0.67531  0.17507  1.0000
  C   C1082     1.0  0.38890  0.66438  0.16200  1.0000
  C   C1083     1.0  0.38935  0.64497  0.16785  1.0000
  C   C1084     1.0  0.38862  0.63645  0.18682  1.0000
  C   C1085     1.0  0.38787  0.64730  0.19978  1.0000
  H   H1073     1.0  0.38687  0.69032  0.17046  1.0000
  H   H1074     1.0  0.38936  0.67106  0.14736  1.0000
  H   H1075     1.0  0.38903  0.62148  0.19145  1.0000
  H   H1076     1.0  0.38757  0.64063  0.21441  1.0000
  C   C1086     1.0  0.33973  0.62465  0.23226  1.0000
  C   C1087     1.0  0.35009  0.50338  0.31904  1.0000
  C   C1088     1.0  0.47186  0.52299  0.39133  1.0000
  H   H1077     1.0  0.42879  0.49885  0.47355  1.0000
  H   H1078     1.0  0.34029  0.70162  0.30771  1.0000
  H   H1079     1.0  0.36988  0.50988  0.39848  1.0000
  H   H1080     1.0  0.46149  0.61786  0.47687  1.0000
  S   S368      1.0  0.36015  0.55926  0.17293  1.0000
  C   C1089     1.0  0.34282  0.52879  0.39742  1.0000
  H   H1081     1.0  0.58859  0.51469  0.40744  1.0000
  C   C1090     1.0  0.51988  0.54586  0.32749  1.0000
  C   C1091     1.0  0.52307  0.52895  0.34053  1.0000
  C   C1092     1.0  0.51351  0.51469  0.34210  1.0000
  C   C1093     1.0  0.50093  0.51708  0.33044  1.0000
  C   C1094     1.0  0.49830  0.53365  0.31677  1.0000
  C   C1095     1.0  0.50776  0.54809  0.31533  1.0000
  H   H1082     1.0  0.53283  0.52682  0.34953  1.0000
  C   C1096     1.0  0.33195  0.56539  0.09626  1.0000
  H   H1083     1.0  0.48855  0.53557  0.30775  1.0000
  H   H1084     1.0  0.50532  0.56113  0.30515  1.0000
  H   H1085     1.0  0.39688  0.49980  0.30053  1.0000
  H   H1086     1.0  0.45101  0.55460  0.20589  1.0000
  N   N89       1.0  0.33375  0.71802  0.02399  1.0000
  C   C1097     1.0  0.48717  0.57625  0.36784  1.0000
  C   C1098     1.0  0.37128  0.55797  0.08645  1.0000
  C   C1099     1.0  0.49715  0.72020  0.98610  1.0000
  S   S369      1.0  0.39060  0.72789  0.17114  1.0000
  H   H1087     1.0  0.51566  0.50185  0.35263  1.0000
  C   C1100     1.0  0.36945  0.49602  0.31658  1.0000
  C   C1101     1.0  0.50713  0.55074  0.44331  1.0000
  C   C1102     1.0  0.49678  0.56718  0.43401  1.0000
  C   C1103     1.0  0.47837  0.57445  0.44282  1.0000
  C   C1104     1.0  0.47040  0.56550  0.46092  1.0000
  H   H1088     1.0  0.33138  0.51270  0.09422  1.0000
  H   H1089     1.0  0.52134  0.54503  0.43661  1.0000
  H   H1090     1.0  0.47026  0.58712  0.43566  1.0000
  N   N90       1.0  0.33858  0.64558  0.20221  1.0000
  H   H1091     1.0  0.47036  0.52284  0.36316  1.0000
  H   H1092     1.0  0.44153  0.72914  0.99168  1.0000
  C   C1105     1.0  0.63519  0.52607  0.36721  1.0000
  S   S370      1.0  0.35404  0.72992  0.20666  1.0000
  C   C1106     1.0  0.35059  0.52701  0.35978  1.0000
  H   H1093     1.0  0.56013  0.64348  0.08636  1.0000
  H   H1094     1.0  0.36228  0.70749  0.01165  1.0000
  C   C1107     1.0  0.43466  0.58534  0.16963  1.0000
  H   H1095     1.0  0.60518  0.53415  0.36994  1.0000
  Fe  Fe179     1.0  0.65002  0.61656  0.12774  1.0000
  H   H1096     1.0  0.55755  0.65047  0.11759  1.0000
  H   H1097     1.0  0.46033  0.55011  0.16315  1.0000
  N   N91       1.0  0.35629  0.64054  0.11185  1.0000
  C   C1108     1.0  0.65136  0.51291  0.36176  1.0000
  H   H1098     1.0  0.36811  0.54911  0.06267  1.0000
  C   C1109     1.0  0.33945  0.61747  0.10066  1.0000
  S   S371      1.0  0.37035  0.59101  0.19070  1.0000
  H   H1099     1.0  0.65771  0.58033  0.16318  1.0000
  C   C1110     1.0  0.33618  0.57253  0.24442  1.0000
  N   N92       1.0  0.63290  0.49722  0.35141  1.0000
  H   H1100     1.0  0.38651  0.55502  0.08250  1.0000
  C   C1111     1.0  0.40710  0.55571  0.22319  1.0000
  H   H1101     1.0  0.37683  0.50841  0.36474  1.0000
  C   C1112     1.0  0.38841  0.53201  0.27632  1.0000
  C   C1113     1.0  0.36227  0.56474  0.10286  1.0000
  C   C1114     1.0  0.60409  0.59589  0.34676  1.0000
  C   C1115     1.0  0.58914  0.60942  0.34047  1.0000
  C   C1116     1.0  0.59266  0.62599  0.32747  1.0000
  C   C1117     1.0  0.61110  0.62915  0.32076  1.0000
  C   C1118     1.0  0.62599  0.61584  0.32744  1.0000
  C   C1119     1.0  0.62247  0.59925  0.34040  1.0000
  H   H1102     1.0  0.57491  0.60707  0.34551  1.0000
  H   H1103     1.0  0.58110  0.63632  0.32241  1.0000
  H   H1104     1.0  0.64022  0.61820  0.32236  1.0000
  H   H1105     1.0  0.63406  0.58887  0.34535  1.0000
  S   S372      1.0  0.55710  0.71829  0.00960  1.0000
  C   C1120     1.0  0.38186  0.50573  0.30250  1.0000
  H   H1106     1.0  0.33984  0.52938  0.41217  1.0000
  C   C1121     1.0  0.59264  0.67853  0.10125  1.0000
  C   C1122     1.0  0.57492  0.68951  0.09890  1.0000
  C   C1123     1.0  0.56781  0.68978  0.08333  1.0000
  C   C1124     1.0  0.57846  0.67918  0.06993  1.0000
  C   C1125     1.0  0.59651  0.66876  0.07188  1.0000
  C   C1126     1.0  0.60359  0.66840  0.08754  1.0000
  H   H1107     1.0  0.56642  0.69743  0.10942  1.0000
  H   H1108     1.0  0.55377  0.69763  0.08209  1.0000
  H   H1109     1.0  0.60514  0.71047  0.07057  1.0000
  H   H1110     1.0  0.43545  0.55107  0.16543  1.0000
  H   H1111     1.0  0.34547  0.56950  0.21568  1.0000
  C   C1127     1.0  0.36847  0.52263  0.47368  1.0000
  H   H1112     1.0  0.49529  0.57689  0.35313  1.0000
  H   H1113     1.0  0.62140  0.50535  0.41232  1.0000
  H   H1114     1.0  0.63658  0.63169  0.22969  1.0000
  C   C1128     1.0  0.34372  0.70259  0.15902  1.0000
  C   C1129     1.0  0.37401  0.53991  0.47050  1.0000
  S   S373      1.0  0.48767  0.49972  0.33466  1.0000
  H   H1115     1.0  0.50976  0.69498  0.00356  1.0000
  C   C1130     1.0  0.33701  0.70536  0.29385  1.0000
  Fe  Fe180     1.0  0.37039  0.57618  0.14447  1.0000
  C   C1131     1.0  0.44638  0.55121  0.17291  1.0000
  C   C1132     1.0  0.34872  0.70409  0.01899  1.0000
  H   H1116     1.0  0.32917  0.48988  0.36849  1.0000
  N   N93       1.0  0.48214  0.55775  0.37591  1.0000
  C   C1133     1.0  0.48042  0.55063  0.39481  1.0000
  H   H1117     1.0  0.36773  0.60425  0.08916  1.0000
  H   H1118     1.0  0.42845  0.51122  0.21693  1.0000
  C   C1134     1.0  0.36728  0.62682  0.10242  1.0000
  C   C1135     1.0  0.34243  0.65939  0.20861  1.0000
  C   C1136     1.0  0.34252  0.56867  0.10774  1.0000
  H   H1119     1.0  0.44312  0.58363  0.21850  1.0000
  N   N94       1.0  0.58295  0.59677  0.30235  1.0000
  C   C1137     1.0  0.58265  0.61377  0.29000  1.0000
  C   C1138     1.0  0.59958  0.58597  0.30667  1.0000
  C   C1139     1.0  0.59937  0.62021  0.28132  1.0000
  C   C1140     1.0  0.61657  0.59194  0.29816  1.0000
  C   C1141     1.0  0.61642  0.60917  0.28539  1.0000
  C   C1142     1.0  0.56515  0.59079  0.31192  1.0000
  H   H1120     1.0  0.56940  0.62266  0.28715  1.0000
  H   H1121     1.0  0.59971  0.57300  0.31725  1.0000
  H   H1122     1.0  0.59908  0.63401  0.27209  1.0000
  H   H1123     1.0  0.62962  0.58369  0.30210  1.0000
  H   H1124     1.0  0.62934  0.61443  0.27934  1.0000
  H   H1125     1.0  0.56739  0.57539  0.31802  1.0000
  H   H1126     1.0  0.55796  0.59849  0.32345  1.0000
  H   H1127     1.0  0.55561  0.59355  0.30199  1.0000
  N   N95       1.0  0.60287  0.61920  0.09481  1.0000
  C   C1143     1.0  0.58810  0.62617  0.08576  1.0000
  C   C1144     1.0  0.62050  0.60801  0.08605  1.0000
  H   H1128     1.0  0.61310  0.61703  0.11929  1.0000
  H   H1129     1.0  0.58929  0.62382  0.07184  1.0000
  H   H1130     1.0  0.62069  0.60772  0.07132  1.0000
  H   H1131     1.0  0.63265  0.61406  0.08583  1.0000
  H   H1132     1.0  0.62265  0.59327  0.09429  1.0000
  C   C1145     1.0  0.60139  0.62263  0.11217  1.0000
  C   C1146     1.0  0.65569  0.63501  0.20275  1.0000
  H   H1133     1.0  0.35087  0.54260  0.28436  1.0000
  C   C1147     1.0  0.47314  0.53059  0.37218  1.0000
  C   C1148     1.0  0.33016  0.52905  0.13917  1.0000
  S   S374      1.0  0.40383  0.53891  0.19579  1.0000
  C   C1149     1.0  0.34341  0.52029  0.30745  1.0000
  C   C1150     1.0  0.41200  0.53958  0.21546  1.0000
  C   C1151     1.0  0.63147  0.70641  0.09018  1.0000
  Fe  Fe181     1.0  0.37978  0.60513  0.16087  1.0000
  C   C1152     1.0  0.34800  0.51786  0.11110  1.0000
  C   C1153     1.0  0.32944  0.68077  0.03289  1.0000
  C   C1154     1.0  0.43025  0.60205  0.17633  1.0000
  H   H1134     1.0  0.32772  0.66622  0.03644  1.0000
  H   H1135     1.0  0.37756  0.54782  0.45630  1.0000
  C   C1155     1.0  0.35621  0.52960  0.29348  1.0000
  C   C1156     1.0  0.61789  0.52451  0.36491  1.0000
  H   H1136     1.0  0.41174  0.56874  0.24361  1.0000
  H   H1137     1.0  0.35337  0.52636  0.34508  1.0000
  C   C1157     1.0  0.41532  0.55615  0.23784  1.0000
  C   C1158     1.0  0.64976  0.63562  0.22189  1.0000
  C   C1159     1.0  0.33380  0.53795  0.36787  1.0000
  C   C1160     1.0  0.42834  0.54044  0.24488  1.0000
  H   H1138     1.0  0.38049  0.64935  0.11423  1.0000
  H   H1139     1.0  0.64103  0.67856  0.17896  1.0000
  C   C1161     1.0  0.36085  0.55466  0.07516  1.0000
  H   H1140     1.0  0.49627  0.57913  0.37587  1.0000
  H   H1141     1.0  0.47423  0.58750  0.36803  1.0000
  H   H1142     1.0  0.42447  0.61533  0.16785  1.0000
  H   H1143     1.0  0.33282  0.60877  0.09595  1.0000
  H   H1144     1.0  0.46808  0.50930  0.39723  1.0000
  Fe  Fe182     1.0  0.38505  0.56393  0.18115  1.0000
  H   H1145     1.0  0.38251  0.62475  0.09940  1.0000
  S   S375      1.0  0.39665  0.57843  0.15202  1.0000
  H   H1146     1.0  0.60324  0.50827  0.35617  1.0000
  H   H1147     1.0  0.35866  0.67431  0.01913  1.0000
  H   H1148     1.0  0.34397  0.67289  0.19938  1.0000
  C   C1162     1.0  0.44529  0.56792  0.19742  1.0000
  H   H1149     1.0  0.62288  0.70712  0.10453  1.0000
  S   S376      1.0  0.35434  0.60417  0.15110  1.0000
  H   H1150     1.0  0.34938  0.56471  0.24825  1.0000
  H   H1151     1.0  0.39731  0.56794  0.21764  1.0000
  C   C1163     1.0  0.47831  0.54810  0.36465  1.0000
  C   C1164     1.0  0.34696  0.71041  0.26011  1.0000
  C   C1165     1.0  0.34745  0.71870  0.16231  1.0000
  H   H1152     1.0  0.32836  0.52610  0.30920  1.0000
  S   S377      1.0  0.35445  0.49878  0.44209  1.0000
  N   N96       1.0  0.62466  0.72319  0.07670  1.0000
  C   C1166     1.0  0.34514  0.65613  0.22697  1.0000
  C   C1167     1.0  0.35902  0.61515  0.09662  1.0000
  H   H1153     1.0  0.61732  0.66002  0.08913  1.0000
  C   C1168     1.0  0.34119  0.55807  0.08004  1.0000
  S   S378      1.0  0.56807  0.49766  0.39098  1.0000
  C   C1169     1.0  0.33588  0.70395  0.14372  1.0000
  H   H1154     1.0  0.60484  0.66064  0.06146  1.0000
  C   C1170     1.0  0.50033  0.70085  0.99385  1.0000
  H   H1155     1.0  0.38263  0.54741  0.27258  1.0000
  C   C1171     1.0  0.35978  0.51773  0.38978  1.0000
  C   C1172     1.0  0.42465  0.52377  0.22283  1.0000
  S   S379      1.0  0.37684  0.56766  0.11646  1.0000
  C   C1173     1.0  0.32804  0.71541  0.25863  1.0000
  S   S380      1.0  0.32935  0.55164  0.06593  1.0000
  H   H1156     1.0  0.33544  0.57405  0.12035  1.0000
  H   H1157     1.0  0.63043  0.69327  0.08659  1.0000
  H   H1158     1.0  0.63270  0.68157  0.21237  1.0000
  S   S381      1.0  0.55330  0.73048  0.04997  1.0000
  C   C1174     1.0  0.36485  0.65322  0.11738  1.0000
  H   H1159     1.0  0.32846  0.65354  0.12363  1.0000
  H   H1160     1.0  0.58428  0.63723  0.13408  1.0000
  S   S382      1.0  0.64954  0.64365  0.10630  1.0000
  H   H1161     1.0  0.45803  0.72106  0.01679  1.0000
  H   H1162     1.0  0.44284  0.51205  0.24273  1.0000
  C   C1175     1.0  0.58503  0.63379  0.12071  1.0000
  H   H1163     1.0  0.43225  0.58592  0.15588  1.0000
  C   C1176     1.0  0.57002  0.64118  0.11148  1.0000
  H   H1164     1.0  0.45625  0.57129  0.46757  1.0000
  H   H1165     1.0  0.35307  0.71757  0.17442  1.0000
  C   C1177     1.0  0.33711  0.64274  0.11607  1.0000
  H   H1166     1.0  0.34662  0.68918  0.16848  1.0000
  H   H1167     1.0  0.39156  0.52595  0.26357  1.0000
  S   S383      1.0  0.32890  0.68443  0.14104  1.0000
  H   H1168     1.0  0.35810  0.71098  0.24757  1.0000
  H   H1169     1.0  0.50754  0.52955  0.46890  1.0000
  H   H1170     1.0  0.47948  0.55378  0.34970  1.0000
  H   H1171     1.0  0.64653  0.70518  0.09027  1.0000
  H   H1172     1.0  0.65575  0.64255  0.24555  1.0000
  C   C1178     1.0  0.32842  0.63116  0.11068  1.0000
  N   N97       1.0  0.44176  0.56851  0.18031  1.0000
  S   S384      1.0  0.48322  0.50509  0.28184  1.0000
  C   C1179     1.0  0.33719  0.62838  0.21379  1.0000
  C   C1180     1.0  0.33290  0.72113  0.13102  1.0000
  Fe  Fe183     1.0  0.52574  0.72867  0.01325  1.0000
  H   H1173     1.0  0.34026  0.49597  0.32983  1.0000
  H   H1174     1.0  0.47698  0.73022  0.03411  1.0000
  S   S385      1.0  0.65668  0.66771  0.31179  1.0000
  H   H1175     1.0  0.34930  0.65233  0.17279  1.0000
  S   S386      1.0  0.64887  0.58967  0.12060  1.0000
  H   H1176     1.0  0.65640  0.55315  0.11251  1.0000
  C   C1181     1.0  0.34351  0.73616  0.15015  1.0000
  H   H1177     1.0  0.32762  0.72197  0.11877  1.0000
  H   H1178     1.0  0.32993  0.53422  0.15144  1.0000
  C   C1182     1.0  0.33123  0.51673  0.10712  1.0000
  C   C1183     1.0  0.65766  0.69184  0.21044  1.0000
  H   H1179     1.0  0.63589  0.53721  0.37365  1.0000
  C   C1184     1.0  0.64541  0.68567  0.20327  1.0000
  H   H1180     1.0  0.43084  0.48710  0.37883  1.0000
  C   C1185     1.0  0.41183  0.49020  0.50092  1.0000
  S   S387      1.0  0.34947  0.66526  0.61942  1.0000
  C   C1186     1.0  0.36228  0.70653  0.89060  1.0000
  S   S388      1.0  0.42424  0.57916  0.49900  1.0000
  C   C1187     1.0  0.39145  0.50790  0.63107  1.0000
  H   H1181     1.0  0.47907  0.54611  0.52727  1.0000
  H   H1182     1.0  0.39079  0.71400  0.77903  1.0000
  Fe  Fe184     1.0  0.33336  0.55786  0.75223  1.0000
  H   H1183     1.0  0.41526  0.70192  0.83917  1.0000
  H   H1184     1.0  0.33657  0.66941  0.75675  1.0000
  S   S389      1.0  0.42033  0.53481  0.50863  1.0000
  Fe  Fe185     1.0  0.32691  0.66410  0.64563  1.0000
  S   S390      1.0  0.38951  0.68680  0.72747  1.0000
  Fe  Fe186     1.0  0.36515  0.66428  0.82739  1.0000
  S   S391      1.0  0.37807  0.63690  0.84401  1.0000
  S   S392      1.0  0.38213  0.68620  0.81200  1.0000
  C   C1188     1.0  0.36922  0.51724  0.68664  1.0000
  S   S393      1.0  0.47051  0.68131  0.96762  1.0000
  H   H1185     1.0  0.36246  0.59959  0.71335  1.0000
  Fe  Fe187     1.0  0.35365  0.64437  0.86716  1.0000
  S   S394      1.0  0.35642  0.64476  0.89631  1.0000
  Fe  Fe188     1.0  0.35848  0.62461  0.83455  1.0000
  S   S395      1.0  0.36745  0.59626  0.82575  1.0000
  S   S396      1.0  0.34161  0.67234  0.85080  1.0000
  S   S397      1.0  0.34789  0.65163  0.81559  1.0000
  Fe  Fe189     1.0  0.40176  0.56309  0.50251  1.0000
  S   S398      1.0  0.35399  0.55032  0.72648  1.0000
  H   H1186     1.0  0.35028  0.72544  0.66414  1.0000
  H   H1187     1.0  0.33111  0.61672  0.77569  1.0000
  C   C1189     1.0  0.34138  0.62281  0.53258  1.0000
  H   H1188     1.0  0.38545  0.69414  0.84908  1.0000
  H   H1189     1.0  0.38552  0.49442  0.53816  1.0000
  H   H1190     1.0  0.45185  0.58833  0.53434  1.0000
  Fe  Fe190     1.0  0.43414  0.73077  0.92397  1.0000
  Fe  Fe191     1.0  0.42402  0.69402  0.92398  1.0000
  S   S399      1.0  0.40682  0.72333  0.92503  1.0000
  S   S400      1.0  0.42367  0.67886  0.90156  1.0000
  Fe  Fe192     1.0  0.44696  0.69514  0.95180  1.0000
  H   H1191     1.0  0.38071  0.51543  0.69416  1.0000
  C   C1190     1.0  0.37689  0.52335  0.63436  1.0000
  Fe  Fe193     1.0  0.40549  0.71442  0.95615  1.0000
  C   C1191     1.0  0.37380  0.62344  0.74019  1.0000
  C   C1192     1.0  0.36561  0.69963  0.87427  1.0000
  S   S401      1.0  0.35154  0.72017  0.70237  1.0000
  S   S402      1.0  0.42056  0.68430  0.95549  1.0000
  S   S403      1.0  0.45172  0.70239  0.92035  1.0000
  Fe  Fe194     1.0  0.41376  0.57816  0.53004  1.0000
  S   S404      1.0  0.43379  0.55094  0.53853  1.0000
  S   S405      1.0  0.41115  0.60433  0.54103  1.0000
  C   C1193     1.0  0.32978  0.58874  0.68231  1.0000
  H   H1192     1.0  0.41124  0.60121  0.87197  1.0000
  Fe  Fe195     1.0  0.41046  0.53724  0.53873  1.0000
  S   S406      1.0  0.39958  0.51274  0.55893  1.0000
  C   C1194     1.0  0.33421  0.61871  0.66179  1.0000
  S   S407      1.0  0.38976  0.56436  0.53266  1.0000
  H   H1193     1.0  0.44266  0.61556  0.50970  1.0000
  C   C1195     1.0  0.35293  0.73150  0.64932  1.0000
  C   C1196     1.0  0.36392  0.51232  0.49200  1.0000
  C   C1197     1.0  0.37563  0.54661  0.48561  1.0000
  C   C1198     1.0  0.37124  0.53622  0.50393  1.0000
  H   H1194     1.0  0.43274  0.51564  0.57066  1.0000
  C   C1199     1.0  0.37606  0.71399  0.89389  1.0000
  H   H1195     1.0  0.42574  0.69652  0.85943  1.0000
  H   H1196     1.0  0.37240  0.54131  0.51569  1.0000
  Fe  Fe196     1.0  0.37313  0.71611  0.71937  1.0000
  H   H1197     1.0  0.38721  0.65884  0.68636  1.0000
  C   C1200     1.0  0.36771  0.59871  0.89878  1.0000
  H   H1198     1.0  0.39716  0.50542  0.61689  1.0000
  C   C1201     1.0  0.37304  0.66031  0.69577  1.0000
  S   S408      1.0  0.35814  0.49003  0.49638  1.0000
  C   C1202     1.0  0.49725  0.71195  0.92297  1.0000
  H   H1199     1.0  0.37102  0.67233  0.70273  1.0000
  H   H1200     1.0  0.41872  0.57865  0.85044  1.0000
  H   H1201     1.0  0.34405  0.62185  0.80057  1.0000
  C   C1203     1.0  0.51380  0.72838  0.93420  1.0000
  H   H1202     1.0  0.46787  0.72176  0.95779  1.0000
  H   H1203     1.0  0.34955  0.68814  0.74742  1.0000
  H   H1204     1.0  0.39967  0.49114  0.49523  1.0000
  H   H1205     1.0  0.36117  0.51165  0.52134  1.0000
  H   H1206     1.0  0.51150  0.68281  0.94663  1.0000
  C   C1204     1.0  0.37536  0.65368  0.89810  1.0000
  C   C1205     1.0  0.37452  0.66010  0.91433  1.0000
  C   C1206     1.0  0.38930  0.66771  0.91577  1.0000
  C   C1207     1.0  0.40516  0.66853  0.90114  1.0000
  C   C1208     1.0  0.40620  0.66158  0.88519  1.0000
  C   C1209     1.0  0.39129  0.65440  0.88357  1.0000
  H   H1207     1.0  0.36230  0.65945  0.92570  1.0000
  H   H1208     1.0  0.38841  0.67292  0.92817  1.0000
  H   H1209     1.0  0.41849  0.66203  0.87388  1.0000
  H   H1210     1.0  0.39218  0.64938  0.87108  1.0000
  C   C1210     1.0  0.35772  0.59281  0.80812  1.0000
  C   C1211     1.0  0.36109  0.57470  0.80425  1.0000
  C   C1212     1.0  0.35345  0.57166  0.79028  1.0000
  H   H1211     1.0  0.52364  0.69516  0.95533  1.0000
  Fe  Fe197     1.0  0.33378  0.69524  0.61236  1.0000
  C   C1213     1.0  0.34681  0.60788  0.79777  1.0000
  H   H1212     1.0  0.36957  0.56294  0.81213  1.0000
  H   H1213     1.0  0.35602  0.55766  0.78749  1.0000
  C   C1214     1.0  0.36732  0.62812  0.70448  1.0000
  C   C1215     1.0  0.34256  0.58682  0.77998  1.0000
  H   H1214     1.0  0.34261  0.70262  0.80582  1.0000
  H   H1215     1.0  0.39401  0.71426  0.74535  1.0000
  C   C1216     1.0  0.46035  0.58929  0.52018  1.0000
  S   S409      1.0  0.33217  0.58418  0.76254  1.0000
  H   H1216     1.0  0.34458  0.70939  0.64174  1.0000
  H   H1217     1.0  0.36055  0.53169  0.68698  1.0000
  C   C1217     1.0  0.45506  0.60480  0.50625  1.0000
  H   H1218     1.0  0.36492  0.62975  0.69049  1.0000
  C   C1218     1.0  0.39198  0.68515  0.75030  1.0000
  C   C1219     1.0  0.39277  0.70139  0.75574  1.0000
  C   C1220     1.0  0.39108  0.70124  0.77473  1.0000
  C   C1221     1.0  0.38835  0.68495  0.78828  1.0000
  C   C1222     1.0  0.38850  0.66842  0.78279  1.0000
  C   C1223     1.0  0.39047  0.66848  0.76373  1.0000
  C   C1224     1.0  0.41243  0.49827  0.57562  1.0000
  H   H1219     1.0  0.36881  0.57780  0.86350  1.0000
  H   H1220     1.0  0.38663  0.65573  0.79326  1.0000
  H   H1221     1.0  0.38986  0.65591  0.75957  1.0000
  C   C1225     1.0  0.35528  0.62590  0.57895  1.0000
  C   C1226     1.0  0.35772  0.60955  0.57210  1.0000
  C   C1227     1.0  0.37503  0.60245  0.56111  1.0000
  C   C1228     1.0  0.39003  0.61174  0.55669  1.0000
  C   C1229     1.0  0.38778  0.62781  0.56402  1.0000
  C   C1230     1.0  0.37045  0.63487  0.57519  1.0000
  H   H1222     1.0  0.34609  0.60247  0.57507  1.0000
  H   H1223     1.0  0.37658  0.58997  0.55586  1.0000
  H   H1224     1.0  0.39934  0.63504  0.56077  1.0000
  H   H1225     1.0  0.36867  0.64753  0.58039  1.0000
  S   S410      1.0  0.35297  0.72935  0.74237  1.0000
  C   C1231     1.0  0.37500  0.64037  0.72702  1.0000
  C   C1232     1.0  0.39311  0.71424  0.88081  1.0000
  C   C1233     1.0  0.48109  0.55905  0.53048  1.0000
  H   H1226     1.0  0.34927  0.70560  0.90095  1.0000
  H   H1227     1.0  0.49421  0.69882  0.92216  1.0000
  C   C1234     1.0  0.36973  0.52631  0.65275  1.0000
  H   H1228     1.0  0.37640  0.62169  0.75413  1.0000
  C   C1235     1.0  0.52026  0.69377  0.94227  1.0000
  C   C1236     1.0  0.47977  0.69648  0.97560  1.0000
  S   S411      1.0  0.37856  0.49892  0.73471  1.0000
  H   H1229     1.0  0.35322  0.66057  0.52014  1.0000
  H   H1230     1.0  0.49611  0.55721  0.53100  1.0000
  C   C1237     1.0  0.36929  0.60870  0.73522  1.0000
  S   S412      1.0  0.38153  0.72603  0.97791  1.0000
  C   C1238     1.0  0.48494  0.72766  0.97355  1.0000
  Fe  Fe198     1.0  0.35134  0.52031  0.73960  1.0000
  Fe  Fe199     1.0  0.32874  0.65824  0.60674  1.0000
  Fe  Fe200     1.0  0.44212  0.55067  0.50757  1.0000
  H   H1231     1.0  0.40277  0.59644  0.83737  1.0000
  Fe  Fe201     1.0  0.33215  0.73563  0.72402  1.0000
  H   H1232     1.0  0.33449  0.59393  0.65212  1.0000
  H   H1233     1.0  0.41847  0.72079  0.84801  1.0000
  H   H1234     1.0  0.35521  0.69326  0.87192  1.0000
  H   H1235     1.0  0.36835  0.59546  0.74523  1.0000
  H   H1236     1.0  0.34745  0.58698  0.89220  1.0000
  N   N98       1.0  0.37147  0.64263  0.70954  1.0000
  H   H1237     1.0  0.37202  0.64766  0.53232  1.0000
  N   N99       1.0  0.39634  0.70726  0.86491  1.0000
  H   H1238     1.0  0.38388  0.62953  0.50693  1.0000
  H   H1239     1.0  0.36023  0.50688  0.69449  1.0000
  H   H1240     1.0  0.35462  0.69385  0.77483  1.0000
  C   C1239     1.0  0.33945  0.60492  0.78368  1.0000
  C   C1240     1.0  0.40383  0.58373  0.84890  1.0000
  S   S413      1.0  0.33255  0.63568  0.59033  1.0000
  C   C1241     1.0  0.35283  0.73029  0.61729  1.0000
  C   C1242     1.0  0.39111  0.49896  0.66433  1.0000
  C   C1243     1.0  0.36503  0.51933  0.50712  1.0000
  N   N100      1.0  0.37700  0.51427  0.66740  1.0000
  Fe  Fe202     1.0  0.32890  0.55147  0.71530  1.0000
  H   H1241     1.0  0.37386  0.71890  0.90680  1.0000
  C   C1244     1.0  0.41484  0.70661  0.85217  1.0000
  S   S414      1.0  0.43158  0.72412  0.95499  1.0000
  C   C1245     1.0  0.33980  0.69494  0.78109  1.0000
  H   H1242     1.0  0.39023  0.61042  0.90089  1.0000
  S   S415      1.0  0.34736  0.72047  0.60093  1.0000
  H   H1243     1.0  0.37884  0.65166  0.73086  1.0000
  H   H1244     1.0  0.36216  0.66401  0.68707  1.0000
  S   S416      1.0  0.47210  0.53910  0.49401  1.0000
  C   C1246     1.0  0.48750  0.72905  0.91401  1.0000
  H   H1245     1.0  0.33726  0.62705  0.64776  1.0000
  H   H1246     1.0  0.39967  0.57248  0.84465  1.0000
  H   H1247     1.0  0.37119  0.53296  0.62274  1.0000
  H   H1248     1.0  0.53351  0.68885  0.93257  1.0000
  N   N101      1.0  0.35691  0.63078  0.52544  1.0000
  C   C1247     1.0  0.42815  0.50284  0.57871  1.0000
  C   C1248     1.0  0.36604  0.61100  0.71727  1.0000
  N   N102      1.0  0.39152  0.58837  0.86641  1.0000
  C   C1249     1.0  0.37379  0.58455  0.87188  1.0000
  C   C1250     1.0  0.39747  0.59754  0.87663  1.0000
  C   C1251     1.0  0.36164  0.58963  0.88814  1.0000
  C   C1252     1.0  0.38572  0.60272  0.89302  1.0000
  N   N103      1.0  0.47577  0.57548  0.51594  1.0000
  H   H1249     1.0  0.38209  0.60184  0.49568  1.0000
  C   C1253     1.0  0.38281  0.70011  0.86145  1.0000
  S   S417      1.0  0.33522  0.62907  0.85975  1.0000
  C   C1254     1.0  0.37061  0.60768  0.50609  1.0000
  H   H1250     1.0  0.35825  0.60328  0.91113  1.0000
  H   H1251     1.0  0.47243  0.56046  0.54467  1.0000
  H   H1252     1.0  0.32709  0.62137  0.70764  1.0000
  S   S418      1.0  0.33235  0.65036  0.67442  1.0000
  H   H1253     1.0  0.34808  0.64953  0.54472  1.0000
  C   C1255     1.0  0.34019  0.60693  0.52676  1.0000
  C   C1256     1.0  0.32892  0.61538  0.69549  1.0000
  C   C1257     1.0  0.37146  0.62337  0.51242  1.0000
  C   C1258     1.0  0.39863  0.49560  0.64613  1.0000
  H   H1254     1.0  0.40411  0.71928  0.88385  1.0000
  S   S419      1.0  0.33257  0.52764  0.76670  1.0000
  C   C1259     1.0  0.47640  0.71587  0.96824  1.0000
  C   C1260     1.0  0.33192  0.62654  0.67743  1.0000
  C   C1261     1.0  0.34962  0.72242  0.63659  1.0000
  C   C1262     1.0  0.35756  0.64800  0.53088  1.0000
  C   C1263     1.0  0.42833  0.49451  0.48855  1.0000
  H   H1255     1.0  0.35833  0.53832  0.65524  1.0000
  C   C1264     1.0  0.35487  0.59942  0.51333  1.0000
  C   C1265     1.0  0.33304  0.70002  0.79861  1.0000
  H   H1256     1.0  0.35417  0.58713  0.50859  1.0000
  N   N104      1.0  0.51005  0.71180  0.93308  1.0000
  S   S420      1.0  0.38395  0.56745  0.48159  1.0000
  C   C1266     1.0  0.44289  0.48869  0.51510  1.0000
  C   C1267     1.0  0.33288  0.59989  0.66424  1.0000
  H   H1257     1.0  0.45667  0.49760  0.48635  1.0000
  H   H1258     1.0  0.47721  0.72925  0.90612  1.0000
  H   H1259     1.0  0.32992  0.62859  0.54304  1.0000
  C   C1268     1.0  0.43776  0.49090  0.59254  1.0000
  H   H1260     1.0  0.44976  0.49454  0.59515  1.0000
  H   H1261     1.0  0.44004  0.73340  0.88600  1.0000
  H   H1262     1.0  0.32798  0.60049  0.53259  1.0000
  S   S421      1.0  0.32806  0.56523  0.68538  1.0000
  C   C1269     1.0  0.33540  0.68489  0.75421  1.0000
  C   C1270     1.0  0.32809  0.59643  0.69791  1.0000
  H   H1263     1.0  0.52383  0.72828  0.94236  1.0000
  C   C1271     1.0  0.46560  0.60608  0.48789  1.0000
  C   C1272     1.0  0.44396  0.49373  0.49572  1.0000
  C   C1273     1.0  0.48619  0.57664  0.49798  1.0000
  S   S422      1.0  0.32764  0.52107  0.72632  1.0000
  N   N105      1.0  0.32792  0.69133  0.77203  1.0000
  H   H1264     1.0  0.32599  0.58787  0.71188  1.0000
  Fe  Fe203     1.0  0.32546  0.65666  0.84112  1.0000
  H   H1265     1.0  0.39667  0.48927  0.67598  1.0000
  H   H1266     1.0  0.49805  0.56537  0.49449  1.0000
  H   H1267     1.0  0.45473  0.48864  0.52087  1.0000
  H   H1268     1.0  0.32602  0.69215  0.74412  1.0000
  C   C1274     1.0  0.48132  0.59195  0.48371  1.0000
  Fe  Fe204     1.0  0.61325  0.93594  0.13454  1.0000
  S   S423      1.0  0.60793  0.92066  0.16458  1.0000
  S   S424      1.0  0.63296  0.92254  0.11142  1.0000
  C   C1275     1.0  0.65018  0.98318  0.20604  1.0000
  S   S425      1.0  0.57664  0.95847  0.17327  1.0000
  Fe  Fe205     1.0  0.60789  0.94831  0.17134  1.0000
  S   S426      1.0  0.62362  0.94853  0.19332  1.0000
  Fe  Fe206     1.0  0.57735  0.93212  0.16352  1.0000
  S   S427      1.0  0.55560  0.91349  0.17539  1.0000
  S   S428      1.0  0.61594  0.96249  0.14116  1.0000
  S   S429      1.0  0.58285  0.94571  0.13303  1.0000
  C   C1276     1.0  0.49575  0.77575  0.09728  1.0000
  H   H1269     1.0  0.49226  0.79307  0.11710  1.0000
  S   S430      1.0  0.60318  0.85198  0.10874  1.0000
  Fe  Fe207     1.0  0.38977  0.84557  0.01551  1.0000
  Fe  Fe208     1.0  0.42102  0.81537  0.03087  1.0000
  S   S431      1.0  0.40845  0.79182  0.02958  1.0000
  S   S432      1.0  0.44724  0.80653  0.04277  1.0000
  H   H1270     1.0  0.52831  0.96978  0.18696  1.0000
  Fe  Fe209     1.0  0.38107  0.80896  0.04210  1.0000
  S   S433      1.0  0.41818  0.83114  0.00184  1.0000
  S   S434      1.0  0.39405  0.83176  0.04493  1.0000
  C   C1277     1.0  0.50174  0.78519  0.16092  1.0000
  H   H1271     1.0  0.63158  0.87131  0.08270  1.0000
  Fe  Fe210     1.0  0.50020  0.86750  0.12476  1.0000
  S   S435      1.0  0.50877  0.85599  0.09825  1.0000
  S   S436      1.0  0.51619  0.89053  0.12165  1.0000
  Fe  Fe211     1.0  0.47104  0.84255  0.14212  1.0000
  S   S437      1.0  0.47729  0.83005  0.11682  1.0000
  S   S438      1.0  0.44865  0.83161  0.16608  1.0000
  Fe  Fe212     1.0  0.50729  0.82787  0.11737  1.0000
  S   S439      1.0  0.52894  0.80171  0.11248  1.0000
  Fe  Fe213     1.0  0.47801  0.85901  0.10002  1.0000
  S   S440      1.0  0.46442  0.86914  0.07476  1.0000
  S   S441      1.0  0.50138  0.83872  0.14384  1.0000
  S   S442      1.0  0.46908  0.87241  0.12528  1.0000
  C   C1278     1.0  0.62110  0.92902  0.04720  1.0000
  C   C1279     1.0  0.46098  0.78176  0.20191  1.0000
  S   S443      1.0  0.42906  0.75414  0.16644  1.0000
  Fe  Fe214     1.0  0.36294  0.74742  0.17810  1.0000
  H   H1272     1.0  0.45856  0.78844  0.00932  1.0000
  Fe  Fe215     1.0  0.40266  0.80929  0.00193  1.0000
  C   C1280     1.0  0.50384  0.76844  0.15504  1.0000
  C   C1281     1.0  0.50206  0.78625  0.10646  1.0000
  C   C1282     1.0  0.52108  0.78730  0.10230  1.0000
  C   C1283     1.0  0.53391  0.77701  0.08960  1.0000
  C   C1284     1.0  0.52758  0.76661  0.08029  1.0000
  H   H1273     1.0  0.54872  0.77734  0.08670  1.0000
  H   H1274     1.0  0.63096  0.94250  0.07211  1.0000
  C   C1285     1.0  0.45261  0.82410  0.05084  1.0000
  C   C1286     1.0  0.46433  0.81882  0.06385  1.0000
  C   C1287     1.0  0.46840  0.83257  0.07092  1.0000
  C   C1288     1.0  0.46084  0.85169  0.06496  1.0000
  C   C1289     1.0  0.44963  0.85699  0.05144  1.0000
  C   C1290     1.0  0.44529  0.84322  0.04456  1.0000
  H   H1275     1.0  0.47010  0.80403  0.06864  1.0000
  H   H1276     1.0  0.47752  0.82832  0.08083  1.0000
  H   H1277     1.0  0.44405  0.87178  0.04647  1.0000
  H   H1278     1.0  0.43641  0.84738  0.03434  1.0000
  Fe  Fe216     1.0  0.58483  0.97096  0.14251  1.0000
  S   S444      1.0  0.36502  0.79292  0.06851  1.0000
  C   C1291     1.0  0.56555  0.79422  0.04343  1.0000
  C   C1292     1.0  0.56587  0.78027  0.03398  1.0000
  C   C1293     1.0  0.57918  0.77819  0.01742  1.0000
  C   C1294     1.0  0.59244  0.78981  0.01054  1.0000
  H   H1279     1.0  0.55495  0.79614  0.05596  1.0000
  H   H1280     1.0  0.55554  0.77145  0.03925  1.0000
  C   C1295     1.0  0.64132  0.80337  0.12060  1.0000
  N   N106      1.0  0.47574  0.77720  0.18569  1.0000
  C   C1296     1.0  0.35073  0.77906  0.06552  1.0000
  C   C1297     1.0  0.63211  0.96863  0.19299  1.0000
  C   C1298     1.0  0.64174  0.96811  0.20690  1.0000
  S   S445      1.0  0.63287  0.82081  0.03655  1.0000
  H   H1281     1.0  0.60561  0.94702  0.07862  1.0000
  H   H1282     1.0  0.59323  0.73891  0.04807  1.0000
  H   H1283     1.0  0.33469  0.75040  0.12415  1.0000
  Fe  Fe217     1.0  0.61467  0.84160  0.08183  1.0000
  C   C1299     1.0  0.54594  0.90562  0.16037  1.0000
  C   C1300     1.0  0.53292  0.89369  0.16811  1.0000
  C   C1301     1.0  0.52392  0.88846  0.15650  1.0000
  C   C1302     1.0  0.52760  0.89551  0.13709  1.0000
  C   C1303     1.0  0.54064  0.90736  0.12941  1.0000
  C   C1304     1.0  0.55004  0.91205  0.14090  1.0000
  H   H1284     1.0  0.52962  0.88865  0.18317  1.0000
  H   H1285     1.0  0.51380  0.87943  0.16262  1.0000
  H   H1286     1.0  0.54357  0.91291  0.11442  1.0000
  H   H1287     1.0  0.56013  0.92099  0.13469  1.0000
  C   C1305     1.0  0.61088  0.87224  0.10856  1.0000
  C   C1306     1.0  0.60284  0.88178  0.12335  1.0000
  C   C1307     1.0  0.60941  0.89741  0.12401  1.0000
  C   C1308     1.0  0.62433  0.90336  0.11010  1.0000
  C   C1309     1.0  0.63232  0.89391  0.09519  1.0000
  C   C1310     1.0  0.62541  0.87851  0.09427  1.0000
  H   H1288     1.0  0.59157  0.87705  0.13442  1.0000
  H   H1289     1.0  0.60306  0.90462  0.13552  1.0000
  H   H1290     1.0  0.57739  0.97602  0.10439  1.0000
  N   N107      1.0  0.55794  0.85213  0.11584  1.0000
  C   C1311     1.0  0.55953  0.86883  0.10341  1.0000
  C   C1312     1.0  0.55655  0.83689  0.10982  1.0000
  C   C1313     1.0  0.55976  0.87063  0.08443  1.0000
  C   C1314     1.0  0.55702  0.83810  0.09087  1.0000
  C   C1315     1.0  0.55850  0.85515  0.07816  1.0000
  C   C1316     1.0  0.55703  0.85066  0.13583  1.0000
  H   H1291     1.0  0.56086  0.88081  0.10811  1.0000
  H   H1292     1.0  0.55512  0.82367  0.11965  1.0000
  H   H1293     1.0  0.56105  0.88390  0.07467  1.0000
  H   H1294     1.0  0.55618  0.82589  0.08613  1.0000
  H   H1295     1.0  0.55884  0.85638  0.06343  1.0000
  H   H1296     1.0  0.56565  0.83702  0.14170  1.0000
  H   H1297     1.0  0.56280  0.86200  0.13805  1.0000
  H   H1298     1.0  0.54215  0.85195  0.14358  1.0000
  N   N108      1.0  0.52333  0.82345  0.04557  1.0000
  C   C1317     1.0  0.53424  0.82820  0.02812  1.0000
  C   C1318     1.0  0.51335  0.80954  0.04932  1.0000
  C   C1319     1.0  0.53575  0.81852  0.01402  1.0000
  C   C1320     1.0  0.51430  0.79977  0.03550  1.0000
  C   C1321     1.0  0.52568  0.80424  0.01776  1.0000
  C   C1322     1.0  0.52178  0.83364  0.06027  1.0000
  H   H1299     1.0  0.54245  0.83898  0.02525  1.0000
  H   H1300     1.0  0.50480  0.80573  0.06316  1.0000
  S   S446      1.0  0.35781  0.75381  0.24558  1.0000
  H   H1301     1.0  0.45621  0.76488  0.08939  1.0000
  H   H1302     1.0  0.42601  0.87397  0.99412  1.0000
  H   H1303     1.0  0.52146  0.82380  0.07416  1.0000
  H   H1304     1.0  0.53412  0.84027  0.05759  1.0000
  H   H1305     1.0  0.50869  0.84477  0.06093  1.0000
  H   H1306     1.0  0.64388  0.89845  0.08441  1.0000
  Fe  Fe218     1.0  0.63568  0.84837  0.04146  1.0000
  C   C1323     1.0  0.50846  0.76609  0.08398  1.0000
  C   C1324     1.0  0.38864  0.77167  0.99281  1.0000
  C   C1325     1.0  0.60396  0.73908  0.05529  1.0000
  H   H1307     1.0  0.51678  0.93869  0.15225  1.0000
  C   C1326     1.0  0.61104  0.75538  0.05198  1.0000
  Fe  Fe219     1.0  0.52231  0.73979  0.05042  1.0000
  C   C1327     1.0  0.40961  0.77067  0.08994  1.0000
  C   C1328     1.0  0.57857  0.80603  0.03644  1.0000
  C   C1329     1.0  0.49188  0.75600  0.16474  1.0000
  C   C1330     1.0  0.65762  0.92649  0.15689  1.0000
  Fe  Fe220     1.0  0.36827  0.74719  0.21662  1.0000
  H   H1308     1.0  0.48099  0.77517  0.10046  1.0000
  H   H1309     1.0  0.51679  0.94271  0.18373  1.0000
  H   H1310     1.0  0.46683  0.80219  0.14473  1.0000
  C   C1331     1.0  0.45370  0.79900  0.15318  1.0000
  C   C1332     1.0  0.38292  0.76571  0.11642  1.0000
  H   H1311     1.0  0.64193  0.80518  0.10534  1.0000
  S   S447      1.0  0.37395  0.82444  0.01407  1.0000
  S   S448      1.0  0.57932  0.76117  0.00524  1.0000
  N   N109      1.0  0.52838  0.96300  0.13775  1.0000
  H   H1312     1.0  0.60616  0.97001  0.00737  1.0000
  H   H1313     1.0  0.61452  0.93705  0.00251  1.0000
  C   C1333     1.0  0.43435  0.76033  0.11425  1.0000
  H   H1314     1.0  0.64672  0.92255  0.16953  1.0000
  H   H1315     1.0  0.61773  0.96604  0.06649  1.0000
  C   C1334     1.0  0.62482  0.75554  0.06124  1.0000
  C   C1335     1.0  0.44215  0.81090  0.16504  1.0000
  C   C1336     1.0  0.38230  0.75535  0.99343  1.0000
  H   H1316     1.0  0.62386  0.91054  0.02839  1.0000
  H   H1317     1.0  0.62301  0.98524  0.16780  1.0000
  H   H1318     1.0  0.52699  0.79646  0.00700  1.0000
  S   S449      1.0  0.52643  0.75559  0.02064  1.0000
  C   C1337     1.0  0.61506  0.93987  0.01580  1.0000
  C   C1338     1.0  0.61043  0.95840  0.01850  1.0000
  H   H1319     1.0  0.45602  0.79731  0.20053  1.0000
  H   H1320     1.0  0.43402  0.77426  0.06763  1.0000
  H   H1321     1.0  0.41112  0.84426  0.07501  1.0000
  C   C1339     1.0  0.42388  0.85745  0.10853  1.0000
  H   H1322     1.0  0.62664  0.80896  0.12747  1.0000
  H   H1323     1.0  0.64505  0.78794  0.12623  1.0000
  S   S450      1.0  0.50002  0.75393  0.07187  1.0000
  H   H1324     1.0  0.33060  0.74140  0.08947  1.0000
  S   S451      1.0  0.60534  0.85675  0.05508  1.0000
  H   H1325     1.0  0.44385  0.75605  0.12398  1.0000
  C   C1340     1.0  0.59222  0.80369  0.02012  1.0000
  H   H1326     1.0  0.34545  0.79612  0.03890  1.0000
  H   H1327     1.0  0.47717  0.76410  0.03055  1.0000
  C   C1341     1.0  0.48757  0.78937  0.17640  1.0000
  S   S452      1.0  0.34648  0.75665  0.15521  1.0000
  H   H1328     1.0  0.50644  0.78863  0.03871  1.0000
  H   H1329     1.0  0.60277  0.78819  0.99771  1.0000
  H   H1330     1.0  0.38077  0.75093  0.12084  1.0000
  C   C1342     1.0  0.41507  0.76067  0.12104  1.0000
  S   S453      1.0  0.57615  0.82487  0.04719  1.0000
  H   H1331     1.0  0.64296  0.95586  0.21822  1.0000
  C   C1343     1.0  0.52794  0.96812  0.17317  1.0000
  H   H1332     1.0  0.37414  0.77354  0.10591  1.0000
  C   C1344     1.0  0.42737  0.82360  0.11504  1.0000
  H   H1333     1.0  0.60219  0.81293  0.01456  1.0000
  H   H1334     1.0  0.37548  0.74784  0.00668  1.0000
  H   H1335     1.0  0.48571  0.80267  0.18059  1.0000
  N   N110      1.0  0.40297  0.76592  0.10892  1.0000
  H   H1336     1.0  0.49321  0.74305  0.16013  1.0000
  H   H1337     1.0  0.60766  0.97636  0.03755  1.0000
  C   C1345     1.0  0.61780  0.95093  0.06754  1.0000
  N   N111      1.0  0.65428  0.81358  0.12339  1.0000
  Fe  Fe221     1.0  0.63977  0.80850  0.06529  1.0000
  H   H1338     1.0  0.38630  0.77692  0.00552  1.0000
  N   N112      1.0  0.41758  0.85895  0.09262  1.0000
  C   C1346     1.0  0.42107  0.82523  0.09869  1.0000
  H   H1339     1.0  0.60585  0.76790  0.04227  1.0000
  H   H1340     1.0  0.45838  0.77279  0.14427  1.0000
  S   S454      1.0  0.60967  0.81393  0.08059  1.0000
  C   C1347     1.0  0.44904  0.78205  0.15322  1.0000
  Fe  Fe222     1.0  0.60310  0.82834  0.05242  1.0000
  S   S455      1.0  0.64897  0.87199  0.02202  1.0000
  C   C1348     1.0  0.42571  0.80568  0.17691  1.0000
  H   H1341     1.0  0.41669  0.81473  0.18624  1.0000
  H   H1342     1.0  0.42027  0.81274  0.09443  1.0000
  H   H1343     1.0  0.64218  0.73959  0.08085  1.0000
  H   H1344     1.0  0.42379  0.88557  0.07776  1.0000
  H   H1345     1.0  0.54469  0.95335  0.11328  1.0000
  C   C1349     1.0  0.32939  0.77405  0.04881  1.0000
  C   C1350     1.0  0.47791  0.76056  0.18023  1.0000
  C   C1351     1.0  0.34662  0.76349  0.07970  1.0000
  C   C1352     1.0  0.42590  0.88436  0.98106  1.0000
  C   C1353     1.0  0.34240  0.78409  0.04987  1.0000
  C   C1354     1.0  0.64150  0.88110  0.00061  1.0000
  H   H1346     1.0  0.65091  0.93041  0.14449  1.0000
  C   C1355     1.0  0.61135  0.96187  0.03562  1.0000
  C   C1356     1.0  0.33331  0.75890  0.25437  1.0000
  H   H1347     1.0  0.64154  0.83970  0.10806  1.0000
  H   H1348     1.0  0.62516  0.91741  0.05840  1.0000
  C   C1357     1.0  0.41220  0.87772  0.08112  1.0000
  S   S456      1.0  0.64530  0.83533  0.06874  1.0000
  H   H1349     1.0  0.51090  0.79498  0.15332  1.0000
  C   C1358     1.0  0.64341  0.89942  0.99101  1.0000
  Fe  Fe223     1.0  0.55714  0.74401  0.01945  1.0000
  H   H1350     1.0  0.54507  0.82171  0.00046  1.0000
  C   C1359     1.0  0.42111  0.78853  0.17714  1.0000
  H   H1351     1.0  0.63325  0.85587  0.99983  1.0000
  C   C1360     1.0  0.42868  0.83981  0.12006  1.0000
  H   H1352     1.0  0.40008  0.77458  0.08027  1.0000
  C   C1361     1.0  0.62034  0.92504  0.03027  1.0000
  C   C1362     1.0  0.46885  0.75997  0.02303  1.0000
  C   C1363     1.0  0.46858  0.74097  0.02519  1.0000
  C   C1364     1.0  0.41597  0.84314  0.08770  1.0000
  C   C1365     1.0  0.43295  0.77657  0.16544  1.0000
  S   S457      1.0  0.38100  0.87690  0.00448  1.0000
  C   C1366     1.0  0.52159  0.95071  0.15346  1.0000
  H   H1353     1.0  0.43997  0.77874  0.99200  1.0000
  H   H1354     1.0  0.40868  0.78438  0.18670  1.0000
  H   H1355     1.0  0.43128  0.80984  0.12378  1.0000
  C   C1367     1.0  0.63473  0.87004  0.99250  1.0000
  C   C1368     1.0  0.42880  0.77049  0.08268  1.0000
  H   H1356     1.0  0.43356  0.83877  0.13271  1.0000
  H   H1357     1.0  0.44840  0.77601  0.20295  1.0000
  H   H1358     1.0  0.33626  0.75247  0.28319  1.0000
  Fe  Fe224     1.0  0.40165  0.74602  0.18349  1.0000
  C   C1369     1.0  0.44124  0.76528  0.09493  1.0000
  S   S458      1.0  0.37434  0.76683  0.18850  1.0000
  H   H1359     1.0  0.64916  0.74185  0.31336  1.0000
  C   C1370     1.0  0.45850  0.77362  0.01101  1.0000
  H   H1360     1.0  0.39925  0.88579  0.08883  1.0000
  N   N113      1.0  0.61688  0.94726  0.04960  1.0000
  H   H1361     1.0  0.40956  0.87690  0.06752  1.0000
  H   H1362     1.0  0.42544  0.86994  0.11228  1.0000
  H   H1363     1.0  0.35310  0.75946  0.09178  1.0000
  H   H1364     1.0  0.53752  0.75914  0.07019  1.0000
  N   N114      1.0  0.44795  0.74937  0.00336  1.0000
  C   C1371     1.0  0.65241  0.83248  0.11591  1.0000
  H   H1365     1.0  0.41531  0.90806  0.99473  1.0000
  H   H1366     1.0  0.63033  0.76821  0.05878  1.0000
  C   C1372     1.0  0.52135  0.95302  0.17137  1.0000
  C   C1373     1.0  0.63049  0.98459  0.17851  1.0000
  C   C1374     1.0  0.63148  0.73925  0.07368  1.0000
  H   H1367     1.0  0.51461  0.76523  0.14285  1.0000
  C   C1375     1.0  0.44805  0.76804  0.00125  1.0000
  H   H1368     1.0  0.42153  0.74538  0.00172  1.0000
  H   H1369     1.0  0.46640  0.77582  0.21505  1.0000
  H   H1370     1.0  0.34389  0.73948  0.02953  1.0000
  H   H1371     1.0  0.52077  0.94992  0.11939  1.0000
  C   C1376     1.0  0.33388  0.75324  0.07845  1.0000
  C   C1377     1.0  0.53487  0.97785  0.13938  1.0000
  C   C1378     1.0  0.43627  0.74396  0.99357  1.0000
  H   H1372     1.0  0.46838  0.75101  0.18744  1.0000
  H   H1373     1.0  0.40985  0.75660  0.13608  1.0000
  H   H1374     1.0  0.37758  0.77246  0.12885  1.0000
  H   H1375     1.0  0.34452  0.74107  0.00492  1.0000
  H   H1376     1.0  0.64879  0.90796  0.99715  1.0000
  C   C1379     1.0  0.32647  0.75693  0.27383  1.0000
  C   C1380     1.0  0.52986  0.95969  0.11900  1.0000
  H   H1377     1.0  0.58227  0.98165  0.06988  1.0000
  H   H1378     1.0  0.52541  0.97316  0.10930  1.0000
  C   C1381     1.0  0.53459  0.98073  0.15709  1.0000
  H   H1379     1.0  0.65784  0.98249  0.21663  1.0000
  S   S459      1.0  0.65554  0.77902  0.07556  1.0000
  C   C1382     1.0  0.41979  0.90352  0.98141  1.0000
  C   C1383     1.0  0.33683  0.73722  0.13414  1.0000
  C   C1384     1.0  0.33631  0.73755  0.01952  1.0000
  H   H1380     1.0  0.32528  0.79502  0.12929  1.0000
  H   H1381     1.0  0.32577  0.76632  0.22730  1.0000
  C   C1385     1.0  0.58844  0.97453  0.76026  1.0000
  H   H1382     1.0  0.35641  0.97053  0.83778  1.0000
  H   H1383     1.0  0.48323  0.87132  0.73874  1.0000
  S   S460      1.0  0.38391  0.74250  0.70415  1.0000
  H   H1384     1.0  0.62607  0.86823  0.96794  1.0000
  Fe  Fe225     1.0  0.36195  0.75628  0.72587  1.0000
  S   S461      1.0  0.36427  0.77662  0.74258  1.0000
  Fe  Fe226     1.0  0.36024  0.74779  0.68892  1.0000
  S   S462      1.0  0.36367  0.76062  0.65801  1.0000
  S   S463      1.0  0.40911  0.79936  0.97490  1.0000
  H   H1385     1.0  0.43392  0.93214  0.92589  1.0000
  Fe  Fe227     1.0  0.42148  0.83707  0.80140  1.0000
  S   S464      1.0  0.43662  0.84751  0.77197  1.0000
  S   S465      1.0  0.39601  0.85379  0.81740  1.0000
  Fe  Fe228     1.0  0.44739  0.79884  0.80537  1.0000
  S   S466      1.0  0.46514  0.80638  0.77673  1.0000
  S   S467      1.0  0.45050  0.76864  0.82109  1.0000
  Fe  Fe229     1.0  0.46269  0.83440  0.78402  1.0000
  S   S468      1.0  0.48855  0.84780  0.77562  1.0000
  Fe  Fe230     1.0  0.43759  0.81855  0.76748  1.0000
  S   S469      1.0  0.43482  0.80917  0.74202  1.0000
  S   S470      1.0  0.44733  0.82558  0.81372  1.0000
  S   S471      1.0  0.42006  0.80963  0.79580  1.0000
  Fe  Fe231     1.0  0.40085  0.93695  0.85333  1.0000
  S   S472      1.0  0.41735  0.92992  0.87578  1.0000
  S   S473      1.0  0.41680  0.92644  0.82717  1.0000
  Fe  Fe232     1.0  0.36819  0.96139  0.87504  1.0000
  S   S474      1.0  0.38231  0.95613  0.89958  1.0000
  Fe  Fe233     1.0  0.40810  0.96036  0.87708  1.0000
  H   H1386     1.0  0.59810  0.95042  0.79748  1.0000
  Fe  Fe234     1.0  0.39026  0.92583  0.89601  1.0000
  S   S475      1.0  0.39384  0.89708  0.91558  1.0000
  S   S476      1.0  0.39344  0.96780  0.85308  1.0000
  S   S477      1.0  0.37414  0.93082  0.87316  1.0000
  Fe  Fe235     1.0  0.54800  0.93425  0.83113  1.0000
  S   S478      1.0  0.55366  0.91954  0.80705  1.0000
  S   S479      1.0  0.56247  0.92281  0.85570  1.0000
  Fe  Fe236     1.0  0.52234  0.92840  0.80795  1.0000
  S   S480      1.0  0.49892  0.91346  0.80917  1.0000
  S   S481      1.0  0.51672  0.94064  0.83378  1.0000
  H   H1387     1.0  0.45877  0.75018  0.77830  1.0000
  C   C1386     1.0  0.38357  0.79330  0.67067  1.0000
  H   H1388     1.0  0.54833  0.94434  0.90890  1.0000
  H   H1389     1.0  0.49553  0.90920  0.75364  1.0000
  H   H1390     1.0  0.37736  0.92094  0.94373  1.0000
  C   C1387     1.0  0.37412  0.81213  0.70011  1.0000
  C   C1388     1.0  0.40167  0.77381  0.95954  1.0000
  Fe  Fe237     1.0  0.65231  0.96310  0.90419  1.0000
  H   H1391     1.0  0.40972  0.78040  0.94649  1.0000
  C   C1389     1.0  0.57026  0.93899  0.86375  1.0000
  C   C1390     1.0  0.58265  0.93220  0.87620  1.0000
  C   C1391     1.0  0.38795  0.89216  0.94037  1.0000
  H   H1392     1.0  0.50206  0.87934  0.74229  1.0000
  C   C1392     1.0  0.60299  0.97797  0.74462  1.0000
  S   S482      1.0  0.57915  0.95411  0.76434  1.0000
  C   C1393     1.0  0.41667  0.76298  0.79268  1.0000
  C   C1394     1.0  0.39190  0.87328  0.94975  1.0000
  C   C1395     1.0  0.39763  0.79871  0.67583  1.0000
  H   H1393     1.0  0.39763  0.86225  0.94177  1.0000
  C   C1396     1.0  0.44828  0.76590  0.84536  1.0000
  H   H1394     1.0  0.50669  0.75884  0.92701  1.0000
  C   C1397     1.0  0.35955  0.74840  0.64276  1.0000
  C   C1398     1.0  0.44439  0.76119  0.88427  1.0000
  C   C1399     1.0  0.44807  0.77810  0.87230  1.0000
  C   C1400     1.0  0.44987  0.78052  0.85287  1.0000
  H   H1395     1.0  0.35411  0.79329  0.67617  1.0000
  H   H1396     1.0  0.44962  0.78932  0.87804  1.0000
  H   H1397     1.0  0.45289  0.79352  0.84368  1.0000
  C   C1401     1.0  0.49216  0.86447  0.78667  1.0000
  C   C1402     1.0  0.50925  0.87086  0.78076  1.0000
  C   C1403     1.0  0.51194  0.88539  0.78796  1.0000
  C   C1404     1.0  0.49750  0.89368  0.80114  1.0000
  C   C1405     1.0  0.48063  0.88694  0.80736  1.0000
  C   C1406     1.0  0.47797  0.87241  0.80022  1.0000
  H   H1398     1.0  0.52040  0.86467  0.77041  1.0000
  H   H1399     1.0  0.52503  0.89037  0.78309  1.0000
  H   H1400     1.0  0.46941  0.89317  0.81761  1.0000
  H   H1401     1.0  0.46485  0.86753  0.80497  1.0000
  C   C1407     1.0  0.40174  0.87365  0.82091  1.0000
  C   C1408     1.0  0.42003  0.87684  0.81392  1.0000
  C   C1409     1.0  0.42461  0.89283  0.81647  1.0000
  C   C1410     1.0  0.41094  0.90576  0.82582  1.0000
  C   C1411     1.0  0.39274  0.90234  0.83329  1.0000
  C   C1412     1.0  0.38813  0.88625  0.83082  1.0000
  H   H1402     1.0  0.43063  0.86707  0.80644  1.0000
  H   H1403     1.0  0.43879  0.89514  0.81126  1.0000
  H   H1404     1.0  0.38207  0.91236  0.84042  1.0000
  H   H1405     1.0  0.37397  0.88375  0.83628  1.0000
  C   C1413     1.0  0.38437  0.78487  0.74243  1.0000
  C   C1414     1.0  0.40138  0.78109  0.72960  1.0000
  C   C1415     1.0  0.41674  0.78866  0.72958  1.0000
  C   C1416     1.0  0.41539  0.79958  0.74270  1.0000
  C   C1417     1.0  0.39853  0.80294  0.75580  1.0000
  C   C1418     1.0  0.38304  0.79581  0.75549  1.0000
  H   H1406     1.0  0.40260  0.77258  0.71954  1.0000
  H   H1407     1.0  0.42976  0.78599  0.71941  1.0000
  H   H1408     1.0  0.39725  0.81146  0.76587  1.0000
  H   H1409     1.0  0.36994  0.79881  0.76547  1.0000
  C   C1419     1.0  0.44488  0.74886  0.85733  1.0000
  Fe  Fe238     1.0  0.62336  0.97172  0.93885  1.0000
  H   H1410     1.0  0.33077  0.80878  0.69792  1.0000
  H   H1411     1.0  0.43517  0.86367  0.96359  1.0000
  H   H1412     1.0  0.43629  0.74858  0.75194  1.0000
  S   S483      1.0  0.60389  0.95522  0.93544  1.0000
  H   H1413     1.0  0.48943  0.89301  0.72397  1.0000
  C   C1420     1.0  0.35956  0.74708  0.61081  1.0000
  H   H1414     1.0  0.42918  0.90220  0.77466  1.0000
  H   H1415     1.0  0.41372  0.81680  0.93210  1.0000
  H   H1416     1.0  0.59310  0.94267  0.82244  1.0000
  S   S484      1.0  0.63021  0.90288  0.94124  1.0000
  C   C1421     1.0  0.43099  0.87858  0.96392  1.0000
  C   C1422     1.0  0.56374  0.95847  0.85853  1.0000
  C   C1423     1.0  0.37791  0.90159  0.97062  1.0000
  C   C1424     1.0  0.60408  0.94748  0.81025  1.0000
  N   N115      1.0  0.47484  0.89525  0.75178  1.0000
  Fe  Fe239     1.0  0.52101  0.96766  0.81372  1.0000
  C   C1425     1.0  0.52902  0.94402  0.89244  1.0000
  C   C1426     1.0  0.39986  0.82252  0.92791  1.0000
  C   C1427     1.0  0.42827  0.97489  0.90934  1.0000
  C   C1428     1.0  0.40793  0.74763  0.76702  1.0000
  C   C1429     1.0  0.46767  0.96510  0.83938  1.0000
  S   S485      1.0  0.52461  0.95630  0.78799  1.0000
  C   C1430     1.0  0.60875  0.96670  0.82990  1.0000
  N   N116      1.0  0.40253  0.82880  0.90742  1.0000
  C   C1431     1.0  0.39859  0.84764  0.89945  1.0000
  C   C1432     1.0  0.40926  0.81561  0.89634  1.0000
  C   C1433     1.0  0.40098  0.85365  0.87991  1.0000
  C   C1434     1.0  0.41172  0.82114  0.87676  1.0000
  C   C1435     1.0  0.40750  0.84027  0.86853  1.0000
  C   C1436     1.0  0.39290  0.80830  0.69056  1.0000
  H   H1417     1.0  0.39350  0.85820  0.90815  1.0000
  H   H1418     1.0  0.41272  0.80068  0.90263  1.0000
  H   H1419     1.0  0.39773  0.86858  0.87360  1.0000
  H   H1420     1.0  0.42685  0.97426  0.93853  1.0000
  H   H1421     1.0  0.42005  0.76878  0.80292  1.0000
  H   H1422     1.0  0.43995  0.92512  0.78604  1.0000
  H   H1423     1.0  0.40929  0.84470  0.85336  1.0000
  H   H1424     1.0  0.60454  0.95625  0.84224  1.0000
  N   N117      1.0  0.42986  0.75936  0.77696  1.0000
  S   S486      1.0  0.61596  0.98247  0.96559  1.0000
  C   C1437     1.0  0.39856  0.75956  0.79563  1.0000
  H   H1425     1.0  0.61274  0.98468  0.84625  1.0000
  C   C1438     1.0  0.50919  0.97408  0.88264  1.0000
  C   C1439     1.0  0.45648  0.89328  0.75754  1.0000
  C   C1440     1.0  0.38232  0.88266  0.97994  1.0000
  S   S487      1.0  0.44191  0.75851  0.90851  1.0000
  C   C1441     1.0  0.44970  0.91699  0.77616  1.0000
  H   H1426     1.0  0.56445  0.98606  0.86174  1.0000
  H   H1427     1.0  0.53403  0.92912  0.89218  1.0000
  H   H1428     1.0  0.45173  0.88309  0.75288  1.0000
  H   H1429     1.0  0.44386  0.73746  0.85153  1.0000
  C   C1442     1.0  0.63884  0.90659  0.97325  1.0000
  N   N118      1.0  0.42337  0.91087  0.94781  1.0000
  H   H1430     1.0  0.64051  0.92065  0.96596  1.0000
  H   H1431     1.0  0.41375  0.93155  0.96493  1.0000
  C   C1443     1.0  0.58218  0.96424  0.87796  1.0000
  C   C1444     1.0  0.42581  0.75148  0.76437  1.0000
  N   N119      1.0  0.60926  0.96430  0.81235  1.0000
  H   H1432     1.0  0.59817  0.93940  0.89291  1.0000
  H   H1433     1.0  0.45683  0.96435  0.79857  1.0000
  C   C1445     1.0  0.45946  0.95952  0.81268  1.0000
  H   H1434     1.0  0.47355  0.92829  0.77567  1.0000
  C   C1446     1.0  0.53713  0.95274  0.90179  1.0000
  H   H1435     1.0  0.39146  0.81128  0.93291  1.0000
  H   H1436     1.0  0.38708  0.78561  0.65938  1.0000
  C   C1447     1.0  0.50410  0.74573  0.92561  1.0000
  H   H1437     1.0  0.55457  0.97249  0.91279  1.0000
  H   H1438     1.0  0.45365  0.76955  0.75877  1.0000
  H   H1439     1.0  0.36209  0.75324  0.59593  1.0000
  C   C1448     1.0  0.46846  0.91887  0.77026  1.0000
  H   H1440     1.0  0.60886  0.96776  0.73567  1.0000
  H   H1441     1.0  0.44861  0.77377  0.78192  1.0000
  C   C1449     1.0  0.39875  0.78059  0.97590  1.0000
  N   N120      1.0  0.36037  0.80701  0.69479  1.0000
  C   C1450     1.0  0.36489  0.79765  0.68031  1.0000
  C   C1451     1.0  0.34582  0.98334  0.83561  1.0000
  C   C1452     1.0  0.41876  0.91669  0.96452  1.0000
  C   C1453     1.0  0.61356  0.98268  0.83223  1.0000
  S   S488      1.0  0.55179  0.96230  0.81321  1.0000
  H   H1442     1.0  0.38795  0.76305  0.80777  1.0000
  C   C1454     1.0  0.39492  0.75793  0.96006  1.0000
  H   H1443     1.0  0.45033  0.91019  0.84609  1.0000
  C   C1455     1.0  0.58865  0.94479  0.88326  1.0000
  Fe  Fe240     1.0  0.55538  0.94856  0.78920  1.0000
  H   H1444     1.0  0.41219  0.79529  0.66855  1.0000
  S   S489      1.0  0.63557  0.94529  0.89815  1.0000
  C   C1456     1.0  0.56968  0.97103  0.86565  1.0000
  H   H1445     1.0  0.41669  0.96779  0.91221  1.0000
  H   H1446     1.0  0.38005  0.74963  0.78442  1.0000
  H   H1447     1.0  0.58761  0.91715  0.88045  1.0000
  H   H1448     1.0  0.48242  0.74263  0.96751  1.0000
  H   H1449     1.0  0.55361  0.96390  0.84959  1.0000
  S   S490      1.0  0.64946  0.94920  0.93464  1.0000
  H   H1450     1.0  0.36800  0.76909  0.61824  1.0000
  H   H1451     1.0  0.40455  0.74195  0.75670  1.0000
  H   H1452     1.0  0.41684  0.81067  0.86798  1.0000
  C   C1457     1.0  0.38584  0.74824  0.97707  1.0000
  H   H1453     1.0  0.33675  0.82619  0.70660  1.0000
  C   C1458     1.0  0.39416  0.75194  0.78262  1.0000
  N   N121      1.0  0.53161  0.97173  0.90125  1.0000
  N   N122      1.0  0.46175  0.93485  0.84018  1.0000
  C   C1459     1.0  0.45842  0.94106  0.82236  1.0000
  C   C1460     1.0  0.46640  0.94659  0.84869  1.0000
  H   H1454     1.0  0.40375  0.81232  0.69493  1.0000
  C   C1461     1.0  0.38898  0.86853  0.96942  1.0000
  C   C1462     1.0  0.34084  0.81121  0.70513  1.0000
  C   C1463     1.0  0.46146  0.91516  0.84967  1.0000
  H   H1455     1.0  0.45527  0.93156  0.81546  1.0000
  H   H1456     1.0  0.46908  0.94174  0.86278  1.0000
  H   H1457     1.0  0.61652  0.97482  0.78279  1.0000
  H   H1458     1.0  0.39214  0.83412  0.93543  1.0000
  S   S491      1.0  0.33900  0.76383  0.70938  1.0000
  H   H1459     1.0  0.47532  0.90604  0.84519  1.0000
  H   H1460     1.0  0.45845  0.91347  0.86517  1.0000
  C   C1464     1.0  0.38064  0.90635  0.95084  1.0000
  Fe  Fe241     1.0  0.63024  0.93367  0.92924  1.0000
  C   C1465     1.0  0.42966  0.89211  0.94731  1.0000
  C   C1466     1.0  0.48088  0.90792  0.75788  1.0000
  Fe  Fe242     1.0  0.61081  0.96834  0.90482  1.0000
  C   C1467     1.0  0.44277  0.74655  0.87680  1.0000
  C   C1468     1.0  0.48801  0.88430  0.73843  1.0000
  C   C1469     1.0  0.44364  0.90410  0.76980  1.0000
  C   C1470     1.0  0.51514  0.95484  0.88261  1.0000
  H   H1461     1.0  0.37064  0.81892  0.71204  1.0000
  C   C1471     1.0  0.36285  0.75609  0.62346  1.0000
  S   S492      1.0  0.43004  0.97754  0.87186  1.0000
  H   H1462     1.0  0.43295  0.88744  0.93411  1.0000
  H   H1463     1.0  0.50916  0.94836  0.87485  1.0000
  H   H1464     1.0  0.47120  0.97446  0.84619  1.0000
  H   H1465     1.0  0.33936  0.80200  0.71940  1.0000
  H   H1466     1.0  0.61665  0.93581  0.80919  1.0000
  C   C1472     1.0  0.46412  0.97159  0.82130  1.0000
  C   C1473     1.0  0.63293  0.89526  0.96471  1.0000
  H   H1467     1.0  0.34920  0.98421  0.80608  1.0000
  C   C1474     1.0  0.44868  0.76330  0.77382  1.0000
  H   H1468     1.0  0.39747  0.75273  0.94733  1.0000
  H   H1469     1.0  0.54579  0.98447  0.75532  1.0000
  S   S493      1.0  0.58930  0.98041  0.88655  1.0000
  C   C1475     1.0  0.49081  0.74601  0.91552  1.0000
  H   H1470     1.0  0.42135  0.91837  0.91885  1.0000
  H   H1471     1.0  0.39223  0.85390  0.97641  1.0000
  H   H1472     1.0  0.56963  0.98563  0.78360  1.0000
  H   H1473     1.0  0.43626  0.75307  0.97932  1.0000
  C   C1476     1.0  0.42180  0.92493  0.93036  1.0000
  H   H1474     1.0  0.40846  0.93560  0.93242  1.0000
  H   H1475     1.0  0.48292  0.75932  0.90897  1.0000
  C   C1477     1.0  0.63067  0.87705  0.97447  1.0000
  H   H1476     1.0  0.37260  0.91258  0.97870  1.0000
  C   C1478     1.0  0.43398  0.97860  0.92415  1.0000
  H   H1477     1.0  0.46513  0.98593  0.81399  1.0000
  C   C1479     1.0  0.61546  0.97704  0.79675  1.0000
  S   S494      1.0  0.34078  0.98249  0.87335  1.0000
  C   C1480     1.0  0.43728  0.98093  0.89079  1.0000
  H   H1478     1.0  0.49837  0.98267  0.87511  1.0000
  H   H1479     1.0  0.53140  0.98247  0.92477  1.0000
  C   C1481     1.0  0.54040  0.98082  0.91081  1.0000
  C   C1482     1.0  0.51751  0.98229  0.89225  1.0000
  S   S495      1.0  0.68523  0.13531  0.07454  1.0000
  C   C1483     1.0  0.68007  0.21320  0.12317  1.0000
  S   S496      1.0  0.92675  0.21367  0.07161  1.0000
  H   H1480     1.0  0.82963  0.20727  0.18447  1.0000
  Fe  Fe243     1.0  0.95407  0.04347  0.45388  1.0000
  S   S497      1.0  0.94073  0.02033  0.45264  1.0000
  C   C1484     1.0  0.69199  0.08635  0.13308  1.0000
  Fe  Fe244     1.0  0.94123  0.06821  0.41831  1.0000
  S   S498      1.0  0.92689  0.04702  0.41462  1.0000
  S   S499      1.0  0.94183  0.09483  0.39589  1.0000
  Fe  Fe245     1.0  0.91639  0.04334  0.44583  1.0000
  H   H1481     1.0  0.92206  0.21330  0.15600  1.0000
  Fe  Fe246     1.0  0.95254  0.02597  0.42173  1.0000
  Fe  Fe247     1.0  0.69953  0.12065  0.30683  1.0000
  S   S500      1.0  0.92859  0.06629  0.44917  1.0000
  S   S501      1.0  0.96802  0.04733  0.42320  1.0000
  Fe  Fe248     1.0  0.83671  0.15471  0.30935  1.0000
  S   S502      1.0  0.85726  0.15422  0.28193  1.0000
  S   S503      1.0  0.80614  0.16801  0.30971  1.0000
  Fe  Fe249     1.0  0.86739  0.13849  0.33267  1.0000
  S   S504      1.0  0.89075  0.13681  0.30708  1.0000
  S   S505      1.0  0.86707  0.12648  0.36352  1.0000
  Fe  Fe250     1.0  0.87485  0.16540  0.29467  1.0000
  S   S506      1.0  0.88572  0.19186  0.27941  1.0000
  Fe  Fe251     1.0  0.87105  0.12592  0.29652  1.0000
  S   S507      1.0  0.87891  0.10006  0.28416  1.0000
  S   S508      1.0  0.85314  0.16801  0.32129  1.0000
  S   S509      1.0  0.84892  0.12546  0.32293  1.0000
  S   S510      1.0  0.79603  0.04540  0.25260  1.0000
  S   S511      1.0  0.81967  0.05861  0.19957  1.0000
  Fe  Fe252     1.0  0.81341  0.05277  0.26876  1.0000
  S   S512      1.0  0.80419  0.07620  0.28449  1.0000
  Fe  Fe253     1.0  0.83330  0.17661  0.10492  1.0000
  S   S513      1.0  0.83208  0.18586  0.13135  1.0000
  S   S514      1.0  0.85157  0.18699  0.07699  1.0000
  Fe  Fe254     1.0  0.79901  0.15855  0.12226  1.0000
  S   S515      1.0  0.79461  0.16732  0.14957  1.0000
  S   S516      1.0  0.77891  0.14067  0.12298  1.0000
  Fe  Fe255     1.0  0.80110  0.19464  0.13203  1.0000
  S   S517      1.0  0.78616  0.22289  0.13836  1.0000
  Fe  Fe256     1.0  0.82578  0.15742  0.14637  1.0000
  S   S518      1.0  0.83467  0.14168  0.17350  1.0000
  S   S519      1.0  0.80236  0.18713  0.10489  1.0000
  S   S520      1.0  0.83008  0.14696  0.11982  1.0000
  S   S521      1.0  0.72084  0.13770  0.30466  1.0000
  H   H1482     1.0  0.67095  0.09591  0.30056  1.0000
  H   H1483     1.0  0.82433  0.20376  0.23397  1.0000
  S   S522      1.0  0.89377  0.21545  0.19100  1.0000
  H   H1484     1.0  0.76519  0.08140  0.27813  1.0000
  S   S523      1.0  0.79605  0.99078  0.27409  1.0000
  C   C1485     1.0  0.82654  0.19796  0.26301  1.0000
  H   H1485     1.0  0.66311  0.15961  0.37306  1.0000
  S   S524      1.0  0.67496  0.14317  0.31579  1.0000
  C   C1486     1.0  0.70914  0.99632  0.28583  1.0000
  C   C1487     1.0  0.69144  0.06858  0.14471  1.0000
  C   C1488     1.0  0.97283  0.05423  0.37131  1.0000
  Fe  Fe257     1.0  0.67363  0.12549  0.10494  1.0000
  H   H1486     1.0  0.82362  0.21420  0.16152  1.0000
  S   S525      1.0  0.70651  0.10787  0.28104  1.0000
  C   C1489     1.0  0.90308  0.98961  0.27849  1.0000
  H   H1487     1.0  0.88995  0.18030  0.21690  1.0000
  H   H1488     1.0  0.81759  0.22241  0.10703  1.0000
  S   S526      1.0  0.72159  0.23608  0.17220  1.0000
  H   H1489     1.0  0.65854  0.18017  0.32452  1.0000
  H   H1490     1.0  0.75491  0.21219  0.19380  1.0000
  C   C1490     1.0  0.76129  0.15073  0.11000  1.0000
  C   C1491     1.0  0.76373  0.16505  0.09400  1.0000
  C   C1492     1.0  0.75026  0.17114  0.08261  1.0000
  C   C1493     1.0  0.73438  0.16298  0.08729  1.0000
  C   C1494     1.0  0.73183  0.14906  0.10359  1.0000
  C   C1495     1.0  0.74514  0.14306  0.11499  1.0000
  H   H1491     1.0  0.77632  0.17084  0.08995  1.0000
  H   H1492     1.0  0.75240  0.18179  0.06989  1.0000
  H   H1493     1.0  0.72021  0.14208  0.10691  1.0000
  H   H1494     1.0  0.74323  0.13197  0.12737  1.0000
  C   C1496     1.0  0.82212  0.08231  0.19271  1.0000
  C   C1497     1.0  0.82234  0.09238  0.20592  1.0000
  C   C1498     1.0  0.82586  0.11075  0.19999  1.0000
  C   C1499     1.0  0.82882  0.11927  0.18086  1.0000
  C   C1500     1.0  0.82776  0.10953  0.16775  1.0000
  C   C1501     1.0  0.82451  0.09105  0.17365  1.0000
  H   H1495     1.0  0.81988  0.08603  0.22070  1.0000
  H   H1496     1.0  0.82636  0.11832  0.21025  1.0000
  H   H1497     1.0  0.82998  0.11598  0.15298  1.0000
  H   H1498     1.0  0.82422  0.08342  0.16337  1.0000
  C   C1502     1.0  0.67223  0.20974  0.42953  1.0000
  C   C1503     1.0  0.82473  0.08237  0.28579  1.0000
  C   C1504     1.0  0.82409  0.10045  0.28813  1.0000
  C   C1505     1.0  0.84072  0.10583  0.28782  1.0000
  C   C1506     1.0  0.85802  0.09308  0.28535  1.0000
  C   C1507     1.0  0.85865  0.07490  0.28326  1.0000
  C   C1508     1.0  0.84201  0.06953  0.28354  1.0000
  H   H1499     1.0  0.81085  0.11047  0.28973  1.0000
  H   H1500     1.0  0.84016  0.12000  0.28908  1.0000
  H   H1501     1.0  0.87200  0.06502  0.28134  1.0000
  H   H1502     1.0  0.84257  0.05543  0.28207  1.0000
  C   C1509     1.0  0.88738  0.19828  0.25490  1.0000
  C   C1510     1.0  0.88745  0.18522  0.24453  1.0000
  C   C1511     1.0  0.88929  0.19062  0.22492  1.0000
  C   C1512     1.0  0.89045  0.20923  0.21567  1.0000
  C   C1513     1.0  0.88987  0.22243  0.22610  1.0000
  C   C1514     1.0  0.88873  0.21685  0.24560  1.0000
  H   H1503     1.0  0.88676  0.17080  0.25151  1.0000
  H   H1504     1.0  0.68136  0.01032  0.28091  1.0000
  S   S527      1.0  0.70944  0.03751  0.23198  1.0000
  H   H1505     1.0  0.70588  0.22004  0.27411  1.0000
  C   C1515     1.0  0.79068  0.15225  0.31763  1.0000
  C   C1516     1.0  0.77119  0.15933  0.32037  1.0000
  C   C1517     1.0  0.75860  0.14695  0.32723  1.0000
  C   C1518     1.0  0.76550  0.12747  0.33155  1.0000
  C   C1519     1.0  0.78498  0.12040  0.32845  1.0000
  C   C1520     1.0  0.79753  0.13276  0.32142  1.0000
  H   H1506     1.0  0.76579  0.17441  0.31731  1.0000
  S   S528      1.0  0.83803  0.05537  0.24482  1.0000
  H   H1507     1.0  0.79039  0.10531  0.33150  1.0000
  H   H1508     1.0  0.81248  0.12713  0.31892  1.0000
  C   C1521     1.0  0.92091  0.10407  0.38715  1.0000
  C   C1522     1.0  0.92095  0.11765  0.37032  1.0000
  C   C1523     1.0  0.90467  0.12435  0.36263  1.0000
  C   C1524     1.0  0.88812  0.11785  0.37203  1.0000
  C   C1525     1.0  0.88805  0.10448  0.38896  1.0000
  C   C1526     1.0  0.90442  0.09745  0.39638  1.0000
  H   H1509     1.0  0.93365  0.12289  0.36314  1.0000
  H   H1510     1.0  0.90479  0.13481  0.34967  1.0000
  H   H1511     1.0  0.87527  0.09950  0.39639  1.0000
  H   H1512     1.0  0.90416  0.08714  0.40944  1.0000
  S   S529      1.0  0.69403  0.18970  0.30341  1.0000
  H   H1513     1.0  0.65979  0.21973  0.16762  1.0000
  C   C1527     1.0  0.77996  0.99340  0.21054  1.0000
  H   H1514     1.0  0.84710  0.23054  0.06946  1.0000
  H   H1515     1.0  0.74276  0.01665  0.24205  1.0000
  H   H1516     1.0  0.92784  0.01023  0.40685  1.0000
  H   H1517     1.0  0.82015  0.18565  0.26717  1.0000
  H   H1518     1.0  0.76906  0.01957  0.25469  1.0000
  C   C1528     1.0  0.87866  0.02369  0.45599  1.0000
  H   H1519     1.0  0.97670  0.04073  0.38128  1.0000
  H   H1520     1.0  0.92782  0.02738  0.36254  1.0000
  C   C1529     1.0  0.95446  0.99334  0.39609  1.0000
  C   C1530     1.0  0.88670  0.01758  0.43905  1.0000
  C   C1531     1.0  0.89975  0.00139  0.32673  1.0000
  C   C1532     1.0  0.67270  0.07323  0.26587  1.0000
  H   H1521     1.0  0.89828  0.02328  0.42948  1.0000
  H   H1522     1.0  0.76179  0.08435  0.30184  1.0000
  H   H1523     1.0  0.77635  0.05746  0.21129  1.0000
  C   C1533     1.0  0.82888  0.20807  0.24447  1.0000
  C   C1534     1.0  0.90587  0.20627  0.07309  1.0000
  C   C1535     1.0  0.89871  0.19390  0.08932  1.0000
  C   C1536     1.0  0.88186  0.18813  0.09088  1.0000
  C   C1537     1.0  0.87258  0.19405  0.07584  1.0000
  C   C1538     1.0  0.88012  0.20591  0.05939  1.0000
  C   C1539     1.0  0.89639  0.21246  0.05822  1.0000
  H   H1524     1.0  0.90619  0.18884  0.10073  1.0000
  H   H1525     1.0  0.87633  0.17870  0.10347  1.0000
  H   H1526     1.0  0.87334  0.21013  0.04749  1.0000
  H   H1527     1.0  0.69654  0.05490  0.30545  1.0000
  H   H1528     1.0  0.71600  0.05709  0.28567  1.0000
  Fe  Fe258     1.0  0.82189  0.04547  0.22957  1.0000
  N   N123      1.0  0.72945  0.19000  0.14942  1.0000
  C   C1540     1.0  0.71782  0.18946  0.16681  1.0000
  C   C1541     1.0  0.72513  0.18357  0.13593  1.0000
  C   C1542     1.0  0.70156  0.18205  0.17116  1.0000
  C   C1543     1.0  0.70908  0.17589  0.13986  1.0000
  C   C1544     1.0  0.69723  0.17517  0.15758  1.0000
  C   C1545     1.0  0.74596  0.19863  0.14481  1.0000
  H   H1529     1.0  0.83058  0.19588  0.29069  1.0000
  H   H1530     1.0  0.73398  0.18452  0.12196  1.0000
  S   S530      1.0  0.83492  0.01487  0.23851  1.0000
  H   H1531     1.0  0.70547  0.17120  0.12900  1.0000
  H   H1532     1.0  0.68438  0.16991  0.16051  1.0000
  H   H1533     1.0  0.74191  0.21398  0.13905  1.0000
  H   H1534     1.0  0.75182  0.19679  0.15745  1.0000
  H   H1535     1.0  0.75744  0.19204  0.13433  1.0000
  S   S531      1.0  0.71881  0.16908  0.07186  1.0000
  C   C1546     1.0  0.76208  0.14738  0.26737  1.0000
  C   C1547     1.0  0.66254  0.21448  0.15485  1.0000
  C   C1548     1.0  0.86496  0.99630  0.44707  1.0000
  C   C1549     1.0  0.67679  0.21994  0.13972  1.0000
  Fe  Fe259     1.0  0.81018  0.01559  0.26292  1.0000
  H   H1536     1.0  0.72110  0.10024  0.15251  1.0000
  S   S532      1.0  0.82513  0.02298  0.28149  1.0000
  H   H1537     1.0  0.91156  0.00011  0.27564  1.0000
  C   C1550     1.0  0.79322  0.00140  0.21405  1.0000
  C   C1551     1.0  0.67596  0.09104  0.28744  1.0000
  H   H1538     1.0  0.68302  0.05976  0.14276  1.0000
  C   C1552     1.0  0.69252  0.09547  0.27533  1.0000
  C   C1553     1.0  0.66943  0.20089  0.12178  1.0000
  H   H1539     1.0  0.84533  0.99676  0.47357  1.0000
  S   S533      1.0  0.67544  0.05198  0.20827  1.0000
  C   C1554     1.0  0.83284  0.23213  0.04771  1.0000
  H   H1540     1.0  0.72009  0.04549  0.30894  1.0000
  C   C1555     1.0  0.93227  0.04024  0.36190  1.0000
  S   S534      1.0  0.70167  0.10528  0.33629  1.0000
  C   C1556     1.0  0.66067  0.09858  0.07377  1.0000
  Fe  Fe260     1.0  0.67898  0.12957  0.34523  1.0000
  H   H1541     1.0  0.90951  0.99768  0.39164  1.0000
  N   N124      1.0  0.80636  0.13395  0.36550  1.0000
  C   C1557     1.0  0.81728  0.11619  0.36866  1.0000
  C   C1558     1.0  0.78736  0.13638  0.36709  1.0000
  C   C1559     1.0  0.80926  0.10027  0.37303  1.0000
  C   C1560     1.0  0.77883  0.12078  0.37175  1.0000
  C   C1561     1.0  0.78991  0.10263  0.37451  1.0000
  H   H1542     1.0  0.83234  0.11423  0.36761  1.0000
  H   H1543     1.0  0.77875  0.15045  0.36427  1.0000
  H   H1544     1.0  0.81804  0.08623  0.37513  1.0000
  H   H1545     1.0  0.76383  0.12272  0.37242  1.0000
  H   H1546     1.0  0.78350  0.09045  0.37747  1.0000
  N   N125      1.0  0.87608  0.08369  0.22401  1.0000
  C   C1562     1.0  0.88204  0.06455  0.22885  1.0000
  C   C1563     1.0  0.86988  0.09165  0.20760  1.0000
  C   C1564     1.0  0.88207  0.05287  0.21701  1.0000
  C   C1565     1.0  0.86962  0.08038  0.19550  1.0000
  C   C1566     1.0  0.87563  0.06086  0.20033  1.0000
  C   C1567     1.0  0.87512  0.09572  0.23694  1.0000
  H   H1547     1.0  0.88635  0.05809  0.24216  1.0000
  H   H1548     1.0  0.86475  0.10679  0.20391  1.0000
  H   H1549     1.0  0.88652  0.03767  0.22107  1.0000
  H   H1550     1.0  0.86431  0.08672  0.18270  1.0000
  H   H1551     1.0  0.87496  0.05192  0.19134  1.0000
  H   H1552     1.0  0.88476  0.08885  0.24688  1.0000
  H   H1553     1.0  0.87931  0.10928  0.22919  1.0000
  H   H1554     1.0  0.86052  0.09876  0.24529  1.0000
  N   N126      1.0  0.75897  0.10987  0.28095  1.0000
  C   C1568     1.0  0.75038  0.12053  0.26660  1.0000
  C   C1569     1.0  0.75163  0.13949  0.25973  1.0000
  H   H1555     1.0  0.90198  0.22173  0.04554  1.0000
  H   H1556     1.0  0.68809  0.08998  0.20196  1.0000
  C   C1570     1.0  0.75680  0.09027  0.28841  1.0000
  H   H1557     1.0  0.74208  0.11452  0.26076  1.0000
  H   H1558     1.0  0.74418  0.14809  0.24887  1.0000
  C   C1571     1.0  0.71073  0.04763  0.29898  1.0000
  H   H1559     1.0  0.65994  0.13719  0.20012  1.0000
  H   H1560     1.0  0.74174  0.08942  0.29137  1.0000
  Fe  Fe261     1.0  0.67805  0.04168  0.23832  1.0000
  H   H1561     1.0  0.89284  0.23225  0.10046  1.0000
  C   C1572     1.0  0.81480  0.15059  0.36097  1.0000
  C   C1573     1.0  0.77754  0.98961  0.26450  1.0000
  C   C1574     1.0  0.66604  0.07995  0.28268  1.0000
  H   H1562     1.0  0.88902  0.22693  0.25349  1.0000
  C   C1575     1.0  0.93496  0.99977  0.39843  1.0000
  C   C1576     1.0  0.84627  0.22552  0.28551  1.0000
  C   C1577     1.0  0.86357  0.01634  0.46828  1.0000
  H   H1563     1.0  0.88596  0.99930  0.42143  1.0000
  C   C1578     1.0  0.83249  0.20380  0.27631  1.0000
  H   H1564     1.0  0.89893  0.02964  0.31005  1.0000
  C   C1579     1.0  0.89222  0.01755  0.31471  1.0000
  H   H1565     1.0  0.66299  0.10468  0.05842  1.0000
  H   H1566     1.0  0.98425  0.05521  0.35856  1.0000
  C   C1580     1.0  0.66351  0.19507  0.44059  1.0000
  C   C1581     1.0  0.66513  0.10220  0.17768  1.0000
  Fe  Fe262     1.0  0.70692  0.04546  0.20195  1.0000
  C   C1582     1.0  0.76468  0.00509  0.20322  1.0000
  N   N127      1.0  0.80253  0.20398  0.18370  1.0000
  C   C1583     1.0  0.78429  0.21380  0.18553  1.0000
  C   C1584     1.0  0.80642  0.18467  0.18763  1.0000
  C   C1585     1.0  0.76935  0.20429  0.19217  1.0000
  C   C1586     1.0  0.79183  0.17468  0.19419  1.0000
  C   C1587     1.0  0.77316  0.18460  0.19659  1.0000
  S   S535      1.0  0.66132  0.05769  0.26102  1.0000
  H   H1567     1.0  0.83395  0.21696  0.05038  1.0000
  S   S536      1.0  0.87888  0.01729  0.25960  1.0000
  N   N128      1.0  0.95497  0.05545  0.36613  1.0000
  H   H1568     1.0  0.79507  0.15934  0.19709  1.0000
  H   H1569     1.0  0.76165  0.17708  0.20171  1.0000
  C   C1588     1.0  0.76971  0.11733  0.28812  1.0000
  N   N129      1.0  0.70998  0.02966  0.29510  1.0000
  N   N130      1.0  0.76282  0.10437  0.09974  1.0000
  C   C1589     1.0  0.76749  0.11743  0.08378  1.0000
  C   C1590     1.0  0.74649  0.09796  0.10326  1.0000
  C   C1591     1.0  0.75553  0.12459  0.07097  1.0000
  C   C1592     1.0  0.73417  0.10487  0.09078  1.0000
  C   C1593     1.0  0.73871  0.11836  0.07459  1.0000
  C   C1594     1.0  0.77501  0.09742  0.11351  1.0000
  H   H1570     1.0  0.78012  0.12298  0.08125  1.0000
  H   H1571     1.0  0.74274  0.08769  0.11597  1.0000
  H   H1572     1.0  0.75879  0.13560  0.05879  1.0000
  H   H1573     1.0  0.72099  0.10010  0.09384  1.0000
  H   H1574     1.0  0.72902  0.12440  0.06510  1.0000
  H   H1575     1.0  0.78746  0.10419  0.10931  1.0000
  H   H1576     1.0  0.76712  0.10085  0.12732  1.0000
  H   H1577     1.0  0.78013  0.08192  0.11519  1.0000
  N   N131      1.0  0.89123  0.21703  0.12886  1.0000
  H   H1578     1.0  0.67221  0.19574  0.10897  1.0000
  C   C1595     1.0  0.89921  0.21191  0.14430  1.0000
  H   H1579     1.0  0.85534  0.00263  0.30936  1.0000
  H   H1580     1.0  0.84936  0.21360  0.29737  1.0000
  H   H1581     1.0  0.68992  0.21874  0.46265  1.0000
  C   C1596     1.0  0.87391  0.21085  0.12997  1.0000
  C   C1597     1.0  0.69369  0.01137  0.28526  1.0000
  S   S537      1.0  0.96788  0.00260  0.40610  1.0000
  C   C1598     1.0  0.72530  0.01505  0.29545  1.0000
  H   H1582     1.0  0.67112  0.21489  0.41492  1.0000
  C   C1599     1.0  0.68198  0.21811  0.43747  1.0000
  H   H1583     1.0  0.87001  0.21432  0.11604  1.0000
  H   H1584     1.0  0.87577  0.19531  0.13498  1.0000
  H   H1585     1.0  0.86206  0.21806  0.13963  1.0000
  C   C1600     1.0  0.83703  0.22389  0.23948  1.0000
  H   H1586     1.0  0.94889  0.08552  0.35957  1.0000
  Fe  Fe263     1.0  0.67779  0.02159  0.20745  1.0000
  C   C1601     1.0  0.88631  0.99423  0.27185  1.0000
  H   H1587     1.0  0.78119  0.22907  0.18163  1.0000
  C   C1602     1.0  0.87606  0.01802  0.30859  1.0000
  S   S538      1.0  0.88752  0.04010  0.46235  1.0000
  C   C1603     1.0  0.65929  0.13012  0.18949  1.0000
  H   H1588     1.0  0.95838  0.02566  0.37024  1.0000
  H   H1589     1.0  0.67057  0.08715  0.17884  1.0000
  C   C1604     1.0  0.68897  0.07814  0.25360  1.0000
  C   C1605     1.0  0.71296  0.09135  0.15024  1.0000
  H   H1590     1.0  0.70349  0.11136  0.12670  1.0000
  H   H1591     1.0  0.70044  0.04872  0.16846  1.0000
  C   C1606     1.0  0.75131  0.00416  0.24874  1.0000
  H   H1592     1.0  0.81091  0.15742  0.37326  1.0000
  H   H1593     1.0  0.83043  0.14683  0.35716  1.0000
  H   H1594     1.0  0.80996  0.16085  0.34873  1.0000
  C   C1607     1.0  0.86771  0.00223  0.31449  1.0000
  H   H1595     1.0  0.87023  0.03036  0.29899  1.0000
  Fe  Fe264     1.0  0.84869  0.02485  0.25626  1.0000
  H   H1596     1.0  0.65944  0.20947  0.33323  1.0000
  C   C1608     1.0  0.76630  0.00581  0.25581  1.0000
  Fe  Fe265     1.0  0.72138  0.12397  0.33452  1.0000
  C   C1609     1.0  0.69431  0.02797  0.29012  1.0000
  C   C1610     1.0  0.81808  0.21408  0.17672  1.0000
  C   C1611     1.0  0.92083  0.05783  0.35680  1.0000
  H   H1597     1.0  0.72093  0.19497  0.17739  1.0000
  H   H1598     1.0  0.68216  0.03949  0.28982  1.0000
  N   N132      1.0  0.77581  0.03242  0.20325  1.0000
  H   H1599     1.0  0.89272  0.20353  0.15725  1.0000
  C   C1612     1.0  0.91584  0.21742  0.14366  1.0000
  C   C1613     1.0  0.66440  0.18919  0.45960  1.0000
  C   C1614     1.0  0.92692  0.07420  0.35580  1.0000
  H   H1600     1.0  0.91229  0.00076  0.33171  1.0000
  H   H1601     1.0  0.74356  0.15249  0.32949  1.0000
  S   S539      1.0  0.72269  0.19621  0.21590  1.0000
  H   H1602     1.0  0.69888  0.16367  0.27939  1.0000
  Fe  Fe266     1.0  0.70908  0.22484  0.20200  1.0000
  H   H1603     1.0  0.73796  0.01647  0.29891  1.0000
  H   H1604     1.0  0.91817  0.08797  0.35179  1.0000
  H   H1605     1.0  0.82090  0.17688  0.18560  1.0000
  C   C1615     1.0  0.76284  0.02469  0.19957  1.0000
  C   C1616     1.0  0.72496  0.99805  0.29120  1.0000
  C   C1617     1.0  0.77145  0.13617  0.28144  1.0000
  S   S540      1.0  0.75006  0.11184  0.34141  1.0000
  H   H1606     1.0  0.69217  0.18212  0.18482  1.0000
  S   S541      1.0  0.67759  0.01165  0.23846  1.0000
  H   H1607     1.0  0.69101  0.21736  0.11139  1.0000
  H   H1608     1.0  0.75081  0.03366  0.19405  1.0000
  C   C1618     1.0  0.94424  0.07273  0.36034  1.0000
  H   H1609     1.0  0.78450  0.05740  0.18661  1.0000
  C   C1619     1.0  0.68273  0.21179  0.45649  1.0000
  H   H1610     1.0  0.75959  0.06057  0.19695  1.0000
  H   H1611     1.0  0.77681  0.10872  0.29924  1.0000
  H   H1612     1.0  0.77976  0.14206  0.28739  1.0000
  H   H1613     1.0  0.76278  0.16219  0.26252  1.0000
  C   C1620     1.0  0.77389  0.05297  0.19931  1.0000
  H   H1614     1.0  0.80488  0.99247  0.22023  1.0000
  C   C1621     1.0  0.87964  0.00411  0.43444  1.0000
  H   H1615     1.0  0.69397  0.07349  0.24043  1.0000
  C   C1622     1.0  0.70285  0.09771  0.13574  1.0000
  C   C1623     1.0  0.69885  0.08916  0.25834  1.0000
  H   H1616     1.0  0.80125  0.02717  0.21311  1.0000
  C   C1624     1.0  0.94949  0.03932  0.36638  1.0000
  H   H1617     1.0  0.84585  0.23629  0.09939  1.0000
  C   C1625     1.0  0.79095  0.02105  0.21022  1.0000
  Fe  Fe267     1.0  0.70912  0.00852  0.22965  1.0000
  C   C1626     1.0  0.70176  0.19166  0.27906  1.0000
  C   C1627     1.0  0.71194  0.07374  0.16218  1.0000
  H   H1618     1.0  0.68827  0.22993  0.42911  1.0000
  C   C1628     1.0  0.70679  0.20834  0.26778  1.0000
  Fe  Fe268     1.0  0.69653  0.15885  0.31601  1.0000
  S   S542      1.0  0.72273  0.06645  0.18153  1.0000
  H   H1619     1.0  0.90730  0.05882  0.35358  1.0000
  S   S543      1.0  0.68250  0.14724  0.11425  1.0000
  Fe  Fe269     1.0  0.69154  0.15882  0.08357  1.0000
  C   C1629     1.0  0.70129  0.06234  0.15932  1.0000
  C   C1630     1.0  0.71498  0.19440  0.24022  1.0000
  N   N133      1.0  0.84066  0.21921  0.27126  1.0000
  S   S544      1.0  0.69115  0.23479  0.14081  1.0000
  S   S545      1.0  0.70945  0.01601  0.19876  1.0000
  C   C1631     1.0  0.85686  0.00254  0.46391  1.0000
  H   H1620     1.0  0.71082  0.16598  0.24522  1.0000
  C   C1632     1.0  0.71340  0.20971  0.24835  1.0000
  H   H1621     1.0  0.71159  0.09265  0.24886  1.0000
  C   C1633     1.0  0.71001  0.17771  0.25150  1.0000
  H   H1622     1.0  0.71766  0.22245  0.23978  1.0000
  C   C1634     1.0  0.70327  0.17640  0.27088  1.0000
  S   S546      1.0  0.69896  0.14689  0.34598  1.0000
  S   S547      1.0  0.67831  0.09432  0.11591  1.0000
  C   C1635     1.0  0.89921  0.22799  0.11268  1.0000
  C   C1636     1.0  0.67511  0.10018  0.20676  1.0000
  N   N134      1.0  0.66653  0.11117  0.19081  1.0000
  H   H1623     1.0  0.97167  0.06581  0.37857  1.0000
  S   S548      1.0  0.68002  0.22922  0.19708  1.0000
  C   C1637     1.0  0.92459  0.99260  0.38986  1.0000
  H   H1624     1.0  0.66499  0.09222  0.21732  1.0000
  H   H1625     1.0  0.98722  0.06441  0.45852  1.0000
  H   H1626     1.0  0.93722  0.23254  0.12636  1.0000
  N   N135      1.0  0.67374  0.19770  0.46736  1.0000
  H   H1627     1.0  0.67442  0.09097  0.07750  1.0000
  S   S549      1.0  0.66366  0.17799  0.08037  1.0000
  H   H1628     1.0  0.67930  0.10929  0.21384  1.0000
  H   H1629     1.0  0.85952  0.23089  0.27950  1.0000
  C   C1638     1.0  0.92424  0.22830  0.12713  1.0000
  C   C1639     1.0  0.99035  0.05991  0.47243  1.0000
  H   H1630     1.0  0.83886  0.23192  0.22512  1.0000
  H   H1631     1.0  0.81344  0.22893  0.17871  1.0000
  H   H1632     1.0  0.75400  0.99897  0.20100  1.0000
  C   C1640     1.0  0.84275  0.22937  0.25318  1.0000
  S   S550      1.0  0.66087  0.01742  0.18824  1.0000
  C   C1641     1.0  0.81835  0.23214  0.11509  1.0000
  C   C1642     1.0  0.91587  0.23369  0.11154  1.0000
  C   C1643     1.0  0.80395  0.23597  0.13050  1.0000
  H   H1633     1.0  0.74759  0.23646  0.09542  1.0000
  H   H1634     1.0  0.89110  0.23672  0.21902  1.0000
  H   H1635     1.0  0.83492  0.23675  0.29099  1.0000
  Fe  Fe270     1.0  0.75857  0.22779  0.87527  1.0000
  H   H1636     1.0  0.80838  0.16017  0.57184  1.0000
  Fe  Fe271     1.0  0.67521  0.03509  0.72846  1.0000
  S   S551      1.0  0.70432  0.02257  0.71362  1.0000
  C   C1644     1.0  0.67558  0.07365  0.80461  1.0000
  H   H1637     1.0  0.67900  0.05762  0.78353  1.0000
  Fe  Fe272     1.0  0.70118  0.08293  0.83388  1.0000
  S   S552      1.0  0.71200  0.08226  0.85915  1.0000
  S   S553      1.0  0.67105  0.09377  0.83163  1.0000
  Fe  Fe273     1.0  0.73806  0.06063  0.81526  1.0000
  S   S554      1.0  0.75200  0.05751  0.83918  1.0000
  S   S555      1.0  0.75109  0.05063  0.78807  1.0000
  Fe  Fe274     1.0  0.72444  0.05179  0.85789  1.0000
  S   S556      1.0  0.71995  0.03028  0.88504  1.0000
  Fe  Fe275     1.0  0.73828  0.08811  0.83824  1.0000
  S   S557      1.0  0.75654  0.10848  0.83605  1.0000
  S   S558      1.0  0.71174  0.05225  0.83399  1.0000
  S   S559      1.0  0.72616  0.09159  0.81298  1.0000
  Fe  Fe276     1.0  0.86685  0.07258  0.68597  1.0000
  S   S560      1.0  0.84295  0.05788  0.70109  1.0000
  S   S561      1.0  0.89426  0.06119  0.66763  1.0000
  Fe  Fe277     1.0  0.84612  0.10987  0.69760  1.0000
  S   S562      1.0  0.82035  0.09866  0.71358  1.0000
  S   S563      1.0  0.84575  0.14083  0.69279  1.0000
  Fe  Fe278     1.0  0.84070  0.07283  0.72413  1.0000
  S   S564      1.0  0.83589  0.05881  0.75473  1.0000
  Fe  Fe279     1.0  0.82463  0.08487  0.68939  1.0000
  S   S565      1.0  0.80068  0.08751  0.67586  1.0000
  S   S566      1.0  0.86641  0.08525  0.71017  1.0000
  S   S567      1.0  0.84862  0.09832  0.67225  1.0000
  Fe  Fe280     1.0  0.77169  0.07313  0.59498  1.0000
  S   S568      1.0  0.76762  0.05450  0.62360  1.0000
  S   S569      1.0  0.76133  0.10457  0.59250  1.0000
  Fe  Fe281     1.0  0.78439  0.03937  0.57541  1.0000
  S   S570      1.0  0.78108  0.01813  0.60256  1.0000
  S   S571      1.0  0.79402  0.03219  0.54662  1.0000
  Fe  Fe282     1.0  0.75428  0.03842  0.61139  1.0000
  S   S572      1.0  0.72569  0.03173  0.62505  1.0000
  Fe  Fe283     1.0  0.79481  0.03634  0.61196  1.0000
  S   S573      1.0  0.81731  0.02468  0.62880  1.0000
  S   S574      1.0  0.75638  0.05825  0.58336  1.0000
  S   S575      1.0  0.80013  0.05629  0.58420  1.0000
  S   S576      1.0  0.67578  0.05489  0.74610  1.0000
  H   H1638     1.0  0.67997  0.06535  0.89432  1.0000
  C   C1645     1.0  0.69793  0.00836  0.79134  1.0000
  C   C1646     1.0  0.96173  0.04883  0.55931  1.0000
  C   C1647     1.0  0.77585  0.18670  0.54659  1.0000
  C   C1648     1.0  0.94847  0.03932  0.57232  1.0000
  Fe  Fe284     1.0  0.93593  0.99917  0.58172  1.0000
  N   N136      1.0  0.84917  0.99085  0.58763  1.0000
  C   C1649     1.0  0.66139  0.14557  0.73990  1.0000
  C   C1650     1.0  0.69909  0.22082  0.68842  1.0000
  H   H1639     1.0  0.78574  0.17599  0.92530  1.0000
  Fe  Fe285     1.0  0.79306  0.21242  0.63603  1.0000
  C   C1651     1.0  0.80600  0.19767  0.71525  1.0000
  H   H1640     1.0  0.73108  0.03316  0.76666  1.0000
  H   H1641     1.0  0.89963  0.01282  0.49238  1.0000
  H   H1642     1.0  0.77983  0.15808  0.56265  1.0000
  H   H1643     1.0  0.77597  0.21546  0.53156  1.0000
  C   C1652     1.0  0.82120  0.23108  0.67747  1.0000
  H   H1644     1.0  0.80845  0.23342  0.68799  1.0000
  H   H1645     1.0  0.71801  0.21025  0.94197  1.0000
  C   C1653     1.0  0.70120  0.00124  0.90163  1.0000
  H   H1646     1.0  0.91352  0.23378  0.64254  1.0000
  Fe  Fe286     1.0  0.68430  0.21529  0.73783  1.0000
  H   H1647     1.0  0.80448  0.21691  0.54132  1.0000
  S   S577      1.0  0.68947  0.19590  0.76499  1.0000
  C   C1654     1.0  0.70050  0.99329  0.86760  1.0000
  C   C1655     1.0  0.85378  0.22677  0.64958  1.0000
  H   H1648     1.0  0.81827  0.11489  0.60565  1.0000
  C   C1656     1.0  0.80299  0.00855  0.54440  1.0000
  H   H1649     1.0  0.66812  0.02972  0.93811  1.0000
  H   H1650     1.0  0.81436  0.16908  0.71086  1.0000
  H   H1651     1.0  0.77033  0.01625  0.52670  1.0000
  C   C1657     1.0  0.66073  0.02694  0.90733  1.0000
  C   C1658     1.0  0.81106  0.00455  0.52648  1.0000
  H   H1652     1.0  0.74923  0.22089  0.65763  1.0000
  H   H1653     1.0  0.95912  0.04197  0.61276  1.0000
  C   C1659     1.0  0.76449  0.00328  0.53321  1.0000
  H   H1654     1.0  0.81233  0.01600  0.51433  1.0000
  C   C1660     1.0  0.77463  0.11740  0.59857  1.0000
  C   C1661     1.0  0.76632  0.13574  0.60145  1.0000
  C   C1662     1.0  0.80372  0.12070  0.60461  1.0000
  C   C1663     1.0  0.79331  0.10982  0.60032  1.0000
  H   H1655     1.0  0.75183  0.14164  0.60018  1.0000
  H   H1656     1.0  0.79983  0.09571  0.59803  1.0000
  C   C1664     1.0  0.89788  0.03908  0.66184  1.0000
  C   C1665     1.0  0.88508  0.02715  0.67009  1.0000
  C   C1666     1.0  0.88905  0.00907  0.66603  1.0000
  C   C1667     1.0  0.90560  0.00306  0.65341  1.0000
  C   C1668     1.0  0.91806  0.01525  0.64469  1.0000
  C   C1669     1.0  0.91432  0.03311  0.64911  1.0000
  H   H1657     1.0  0.87237  0.03164  0.67991  1.0000
  H   H1658     1.0  0.74829  0.03142  0.55140  1.0000
  C   C1670     1.0  0.80647  0.07002  0.66265  1.0000
  C   C1671     1.0  0.80316  0.07478  0.64445  1.0000
  C   C1672     1.0  0.80706  0.06083  0.63395  1.0000
  C   C1673     1.0  0.81418  0.04205  0.64165  1.0000
  C   C1674     1.0  0.81802  0.03730  0.65970  1.0000
  C   C1675     1.0  0.81420  0.05134  0.67021  1.0000
  H   H1659     1.0  0.79764  0.08927  0.63840  1.0000
  H   H1660     1.0  0.80446  0.06463  0.61987  1.0000
  H   H1661     1.0  0.82339  0.02275  0.66575  1.0000
  H   H1662     1.0  0.81654  0.04757  0.68439  1.0000
  H   H1663     1.0  0.67896  0.10867  0.77198  1.0000
  H   H1664     1.0  0.76146  0.20446  0.93087  1.0000
  C   C1676     1.0  0.86443  0.13601  0.72127  1.0000
  C   C1677     1.0  0.85862  0.14789  0.70523  1.0000
  C   C1678     1.0  0.86167  0.16637  0.69982  1.0000
  H   H1665     1.0  0.75258  0.00378  0.52682  1.0000
  H   H1666     1.0  0.66388  0.03697  0.86012  1.0000
  H   H1667     1.0  0.86211  0.12173  0.72553  1.0000
  H   H1668     1.0  0.85730  0.17562  0.68738  1.0000
  H   H1669     1.0  0.70158  0.00421  0.91483  1.0000
  C   C1679     1.0  0.70975  0.01167  0.88467  1.0000
  H   H1670     1.0  0.90059  0.05042  0.71123  1.0000
  H   H1671     1.0  0.82586  0.18037  0.57727  1.0000
  N   N137      1.0  0.90742  0.00612  0.70415  1.0000
  H   H1672     1.0  0.91376  0.06842  0.59098  1.0000
  C   C1680     1.0  0.70960  0.00745  0.86768  1.0000
  Fe  Fe287     1.0  0.90146  0.23543  0.72546  1.0000
  C   C1681     1.0  0.84675  0.00135  0.54998  1.0000
  C   C1682     1.0  0.83769  0.23517  0.67947  1.0000
  H   H1673     1.0  0.71681  0.01480  0.85461  1.0000
  C   C1683     1.0  0.77489  0.05208  0.77897  1.0000
  C   C1684     1.0  0.78136  0.05671  0.75947  1.0000
  C   C1685     1.0  0.80013  0.05859  0.75193  1.0000
  C   C1686     1.0  0.81263  0.05543  0.76386  1.0000
  C   C1687     1.0  0.80631  0.05022  0.78334  1.0000
  C   C1688     1.0  0.78742  0.04875  0.79091  1.0000
  H   H1674     1.0  0.77177  0.05917  0.75017  1.0000
  H   H1675     1.0  0.80491  0.06246  0.73688  1.0000
  H   H1676     1.0  0.81597  0.04757  0.79261  1.0000
  H   H1677     1.0  0.78261  0.04484  0.80595  1.0000
  H   H1678     1.0  0.71242  0.04393  0.79643  1.0000
  C   C1689     1.0  0.75152  0.15451  0.85686  1.0000
  C   C1690     1.0  0.75845  0.13970  0.84709  1.0000
  C   C1691     1.0  0.74782  0.12608  0.84947  1.0000
  C   C1692     1.0  0.73028  0.12718  0.86187  1.0000
  C   C1693     1.0  0.72339  0.14194  0.87178  1.0000
  C   C1694     1.0  0.67369  0.05426  0.89322  1.0000
  H   H1679     1.0  0.77203  0.13893  0.83751  1.0000
  H   H1680     1.0  0.72198  0.11674  0.86377  1.0000
  H   H1681     1.0  0.70978  0.14281  0.88130  1.0000
  C   C1695     1.0  0.70987  0.02536  0.68899  1.0000
  C   C1696     1.0  0.69584  0.03114  0.67842  1.0000
  C   C1697     1.0  0.70080  0.03287  0.65879  1.0000
  C   C1698     1.0  0.71980  0.02929  0.64964  1.0000
  C   C1699     1.0  0.73384  0.02386  0.66018  1.0000
  C   C1700     1.0  0.72886  0.02164  0.67984  1.0000
  H   H1682     1.0  0.68116  0.03393  0.68538  1.0000
  H   H1683     1.0  0.68988  0.03706  0.65069  1.0000
  H   H1684     1.0  0.74852  0.02100  0.65325  1.0000
  H   H1685     1.0  0.73978  0.01709  0.68795  1.0000
  H   H1686     1.0  0.91657  0.05508  0.52399  1.0000
  C   C1701     1.0  0.67456  0.19121  0.48731  1.0000
  C   C1702     1.0  0.67127  0.06031  0.79716  1.0000
  C   C1703     1.0  0.79918  0.22917  0.79997  1.0000
  C   C1704     1.0  0.74860  0.16463  0.91598  1.0000
  C   C1705     1.0  0.83432  0.17701  0.76079  1.0000
  C   C1706     1.0  0.72571  0.21226  0.92709  1.0000
  C   C1707     1.0  0.67766  0.22925  0.81047  1.0000
  H   H1687     1.0  0.84569  0.00542  0.53530  1.0000
  H   H1688     1.0  0.94172  0.04795  0.51649  1.0000
  Fe  Fe288     1.0  0.78878  0.22348  0.59515  1.0000
  C   C1708     1.0  0.82759  0.20607  0.79235  1.0000
  H   H1689     1.0  0.83717  0.21749  0.63544  1.0000
  H   H1690     1.0  0.92796  0.05947  0.49920  1.0000
  C   C1709     1.0  0.87523  0.16160  0.72706  1.0000
  H   H1691     1.0  0.94430  0.01521  0.52928  1.0000
  Fe  Fe289     1.0  0.66299  0.21369  0.77796  1.0000
  Fe  Fe290     1.0  0.75754  0.21002  0.62533  1.0000
  S   S578      1.0  0.81151  0.20415  0.60958  1.0000
  H   H1692     1.0  0.65962  0.16072  0.73568  1.0000
  H   H1693     1.0  0.93101  0.01058  0.63523  1.0000
  N   N138      1.0  0.82454  0.18404  0.74508  1.0000
  H   H1694     1.0  0.92957  0.99971  0.68092  1.0000
  N   N139      1.0  0.79592  0.09055  0.79655  1.0000
  C   C1710     1.0  0.81014  0.09522  0.78180  1.0000
  C   C1711     1.0  0.77813  0.09283  0.79373  1.0000
  C   C1712     1.0  0.80679  0.10192  0.76357  1.0000
  C   C1713     1.0  0.77432  0.09930  0.77568  1.0000
  C   C1714     1.0  0.78879  0.10381  0.76051  1.0000
  C   C1715     1.0  0.79969  0.08359  0.81556  1.0000
  H   H1695     1.0  0.82430  0.09321  0.78396  1.0000
  H   H1696     1.0  0.76692  0.08906  0.80540  1.0000
  H   H1697     1.0  0.81830  0.10491  0.75187  1.0000
  H   H1698     1.0  0.76035  0.10026  0.77346  1.0000
  H   H1699     1.0  0.78615  0.10833  0.74636  1.0000
  H   H1700     1.0  0.78947  0.07489  0.82467  1.0000
  H   H1701     1.0  0.81399  0.07452  0.81529  1.0000
  H   H1702     1.0  0.79836  0.09572  0.82209  1.0000
  N   N140      1.0  0.69868  0.17346  0.82733  1.0000
  C   C1716     1.0  0.68353  0.17390  0.82018  1.0000
  C   C1717     1.0  0.71486  0.16021  0.82410  1.0000
  C   C1718     1.0  0.88134  0.03152  0.72415  1.0000
  C   C1719     1.0  0.71604  0.14661  0.81388  1.0000
  C   C1720     1.0  0.70065  0.14694  0.80657  1.0000
  C   C1721     1.0  0.67185  0.05318  0.87554  1.0000
  H   H1703     1.0  0.85722  0.02114  0.48133  1.0000
  H   H1704     1.0  0.72693  0.16007  0.82953  1.0000
  H   H1705     1.0  0.67072  0.18447  0.82257  1.0000
  C   C1722     1.0  0.80117  0.17240  0.56321  1.0000
  C   C1723     1.0  0.93143  0.99721  0.52069  1.0000
  N   N141      1.0  0.66840  0.04108  0.90879  1.0000
  H   H1706     1.0  0.82403  0.17740  0.77435  1.0000
  H   H1707     1.0  0.67831  0.20191  0.49280  1.0000
  C   C1724     1.0  0.66558  0.07728  0.82222  1.0000
  C   C1725     1.0  0.72112  0.21799  0.65874  1.0000
  S   S579      1.0  0.65915  0.22231  0.80550  1.0000
  C   C1726     1.0  0.80146  0.99367  0.56000  1.0000
  C   C1727     1.0  0.79900  0.20404  0.54614  1.0000
  C   C1728     1.0  0.71209  0.02872  0.80199  1.0000
  H   H1708     1.0  0.94784  0.21850  0.67406  1.0000
  H   H1709     1.0  0.87111  0.04147  0.73188  1.0000
  H   H1710     1.0  0.70789  0.19668  0.83069  1.0000
  C   C1729     1.0  0.70726  0.00368  0.75946  1.0000
  H   H1711     1.0  0.71548  0.21558  0.91775  1.0000
  C   C1730     1.0  0.67226  0.11622  0.76033  1.0000
  H   H1712     1.0  0.66636  0.09129  0.75581  1.0000
  H   H1713     1.0  0.72830  0.01881  0.74143  1.0000
  N   N142      1.0  0.89177  0.05980  0.61368  1.0000
  C   C1731     1.0  0.87707  0.06582  0.62736  1.0000
  C   C1732     1.0  0.89304  0.04329  0.60836  1.0000
  C   C1733     1.0  0.86294  0.05542  0.63584  1.0000
  C   C1734     1.0  0.87926  0.03246  0.61670  1.0000
  C   C1735     1.0  0.86417  0.03857  0.63050  1.0000
  C   C1736     1.0  0.90684  0.07048  0.60550  1.0000
  H   H1714     1.0  0.87645  0.07848  0.63217  1.0000
  H   H1715     1.0  0.90481  0.03831  0.59773  1.0000
  H   H1716     1.0  0.85138  0.06014  0.64680  1.0000
  H   H1717     1.0  0.88038  0.01926  0.61271  1.0000
  H   H1718     1.0  0.85364  0.03006  0.63723  1.0000
  H   H1719     1.0  0.66178  0.05499  0.93166  1.0000
  H   H1720     1.0  0.93718  0.02978  0.60171  1.0000
  H   H1721     1.0  0.90124  0.08586  0.60468  1.0000
  C   C1737     1.0  0.82355  0.17198  0.73465  1.0000
  N   N143      1.0  0.75809  0.00170  0.55359  1.0000
  N   N144      1.0  0.71021  0.02022  0.78731  1.0000
  C   C1738     1.0  0.73394  0.15571  0.86915  1.0000
  H   H1722     1.0  0.85112  0.99729  0.61300  1.0000
  C   C1739     1.0  0.82097  0.22431  0.66185  1.0000
  N   N145      1.0  0.81916  0.16122  0.66150  1.0000
  C   C1740     1.0  0.80298  0.16506  0.67457  1.0000
  C   C1741     1.0  0.82244  0.14623  0.65305  1.0000
  C   C1742     1.0  0.78983  0.15338  0.67992  1.0000
  C   C1743     1.0  0.80956  0.13433  0.65799  1.0000
  C   C1744     1.0  0.79323  0.13788  0.67158  1.0000
  C   C1745     1.0  0.83261  0.17379  0.65574  1.0000
  H   H1723     1.0  0.80001  0.17743  0.68062  1.0000
  H   H1724     1.0  0.83495  0.14352  0.64226  1.0000
  H   H1725     1.0  0.77690  0.15660  0.69011  1.0000
  H   H1726     1.0  0.81210  0.12260  0.65107  1.0000
  H   H1727     1.0  0.78315  0.12874  0.67542  1.0000
  H   H1728     1.0  0.83175  0.18115  0.66711  1.0000
  H   H1729     1.0  0.84732  0.16565  0.65278  1.0000
  H   H1730     1.0  0.82962  0.18455  0.64309  1.0000
  C   C1746     1.0  0.66462  0.03847  0.87383  1.0000
  C   C1747     1.0  0.83724  0.22245  0.64769  1.0000
  H   H1731     1.0  0.69200  0.21599  0.66425  1.0000
  Fe  Fe291     1.0  0.73940  0.23569  0.84202  1.0000
  S   S580      1.0  0.85707  0.22009  0.72154  1.0000
  H   H1732     1.0  0.82046  0.20665  0.85360  1.0000
  H   H1733     1.0  0.96270  0.05050  0.54439  1.0000
  H   H1734     1.0  0.74485  0.15367  0.91148  1.0000
  C   C1748     1.0  0.69558  0.22776  0.79871  1.0000
  C   C1749     1.0  0.90944  0.01321  0.50053  1.0000
  C   C1750     1.0  0.82192  0.22082  0.84603  1.0000
  C   C1751     1.0  0.95974  0.04408  0.59785  1.0000
  H   H1735     1.0  0.98523  0.06195  0.55547  1.0000
  C   C1752     1.0  0.81446  0.17862  0.71947  1.0000
  H   H1736     1.0  0.87940  0.99964  0.67282  1.0000
  N   N146      1.0  0.73204  0.08304  0.64773  1.0000
  C   C1753     1.0  0.74505  0.09392  0.64482  1.0000
  C   C1754     1.0  0.72878  0.07019  0.66419  1.0000
  C   C1755     1.0  0.75581  0.09142  0.65824  1.0000
  C   C1756     1.0  0.73945  0.06715  0.67781  1.0000
  C   C1757     1.0  0.75319  0.07774  0.67469  1.0000
  C   C1758     1.0  0.72099  0.08558  0.63349  1.0000
  H   H1737     1.0  0.74734  0.10444  0.63199  1.0000
  H   H1738     1.0  0.71800  0.06207  0.66677  1.0000
  H   H1739     1.0  0.76628  0.09990  0.65581  1.0000
  H   H1740     1.0  0.73706  0.05659  0.69064  1.0000
  H   H1741     1.0  0.76179  0.07543  0.68498  1.0000
  H   H1742     1.0  0.72847  0.09166  0.61926  1.0000
  H   H1743     1.0  0.71868  0.07176  0.63263  1.0000
  H   H1744     1.0  0.70713  0.09507  0.63707  1.0000
  C   C1759     1.0  0.70298  0.21812  0.66989  1.0000
  H   H1745     1.0  0.73547  0.02893  0.58558  1.0000
  C   C1760     1.0  0.69787  0.18727  0.83837  1.0000
  H   H1746     1.0  0.82339  0.20458  0.56542  1.0000
  C   C1761     1.0  0.78509  0.17110  0.55791  1.0000
  H   H1747     1.0  0.92440  0.04219  0.64289  1.0000
  C   C1762     1.0  0.77664  0.14653  0.60593  1.0000
  H   H1748     1.0  0.83016  0.15718  0.73774  1.0000
  H   H1749     1.0  0.74230  0.22602  0.68999  1.0000
  S   S581      1.0  0.74929  0.20622  0.83728  1.0000
  C   C1763     1.0  0.79544  0.13911  0.60731  1.0000
  S   S582      1.0  0.88270  0.22123  0.75048  1.0000
  C   C1764     1.0  0.87265  0.14292  0.73223  1.0000
  H   H1750     1.0  0.90564  0.04341  0.49341  1.0000
  Fe  Fe292     1.0  0.67063  0.17977  0.75980  1.0000
  C   C1765     1.0  0.74448  0.99873  0.59210  1.0000
  H   H1751     1.0  0.87675  0.13388  0.74487  1.0000
  Fe  Fe293     1.0  0.74116  0.19786  0.86847  1.0000
  C   C1766     1.0  0.97456  0.05521  0.56558  1.0000
  N   N147      1.0  0.80761  0.18888  0.55772  1.0000
  S   S583      1.0  0.72916  0.22734  0.87327  1.0000
  C   C1767     1.0  0.76691  0.16280  0.91814  1.0000
  H   H1752     1.0  0.92362  0.02766  0.69374  1.0000
  C   C1768     1.0  0.74245  0.01633  0.57998  1.0000
  Fe  Fe294     1.0  0.88240  0.20203  0.73211  1.0000
  S   S584      1.0  0.66778  0.19754  0.73129  1.0000
  S   S585      1.0  0.80915  0.15308  0.61108  1.0000
  H   H1753     1.0  0.75983  0.16497  0.85485  1.0000
  C   C1769     1.0  0.80678  0.20983  0.72619  1.0000
  H   H1754     1.0  0.83717  0.18631  0.55277  1.0000
  C   C1770     1.0  0.81037  0.21121  0.80432  1.0000
  C   C1771     1.0  0.72123  0.02384  0.76973  1.0000
  S   S586      1.0  0.72627  0.21414  0.63572  1.0000
  C   C1772     1.0  0.92220  0.22598  0.65316  1.0000
  Fe  Fe295     1.0  0.77656  0.20846  0.84226  1.0000
  H   H1755     1.0  0.69844  0.22189  0.78631  1.0000
  C   C1773     1.0  0.67123  0.04220  0.92699  1.0000
  H   H1756     1.0  0.86488  0.00994  0.73414  1.0000
  H   H1757     1.0  0.83371  0.01868  0.58992  1.0000
  H   H1758     1.0  0.77008  0.16065  0.60813  1.0000
  H   H1759     1.0  0.83156  0.02834  0.55634  1.0000
  H   H1760     1.0  0.72104  0.18236  0.91712  1.0000
  S   S587      1.0  0.93455  0.02861  0.56456  1.0000
  H   H1761     1.0  0.68660  0.08120  0.79670  1.0000
  C   C1774     1.0  0.87010  0.17315  0.71060  1.0000
  H   H1762     1.0  0.72881  0.13591  0.81170  1.0000
  H   H1763     1.0  0.81689  0.21231  0.74944  1.0000
  H   H1764     1.0  0.70165  0.17995  0.85214  1.0000
  C   C1775     1.0  0.82438  0.19006  0.56353  1.0000
  C   C1776     1.0  0.78292  0.20325  0.54051  1.0000
  H   H1765     1.0  0.87252  0.18737  0.70616  1.0000
  S   S588      1.0  0.72477  0.17471  0.88075  1.0000
  C   C1777     1.0  0.93445  0.01473  0.52120  1.0000
  S   S589      1.0  0.91013  0.98917  0.59919  1.0000
  N   N148      1.0  0.92525  0.03107  0.51150  1.0000
  H   H1766     1.0  0.68615  0.04280  0.92581  1.0000
  C   C1778     1.0  0.81614  0.20272  0.74116  1.0000
  C   C1779     1.0  0.68431  0.16071  0.80965  1.0000
  S   S590      1.0  0.88354  0.17078  0.74192  1.0000
  H   H1767     1.0  0.84466  0.18579  0.75941  1.0000
  C   C1780     1.0  0.73523  0.22088  0.66607  1.0000
  C   C1781     1.0  0.83889  0.01425  0.56179  1.0000
  Fe  Fe296     1.0  0.79394  0.18252  0.61456  1.0000
  C   C1782     1.0  0.97378  0.05254  0.58485  1.0000
  C   C1783     1.0  0.98574  0.04060  0.50375  1.0000
  H   H1768     1.0  0.67238  0.16121  0.80381  1.0000
  C   C1784     1.0  0.77153  0.17717  0.92365  1.0000
  H   H1769     1.0  0.67642  0.06343  0.86320  1.0000
  S   S591      1.0  0.80043  0.21708  0.66162  1.0000
  C   C1785     1.0  0.91288  0.03049  0.50124  1.0000
  H   H1770     1.0  0.68506  0.22104  0.69693  1.0000
  H   H1771     1.0  0.68911  0.00558  0.80526  1.0000
  C   C1786     1.0  0.74951  0.01760  0.56067  1.0000
  N   N149      1.0  0.73997  0.19523  0.92395  1.0000
  S   S592      1.0  0.90321  0.21439  0.70800  1.0000
  H   H1772     1.0  0.84716  0.21500  0.76722  1.0000
  H   H1773     1.0  0.91767  0.06574  0.61429  1.0000
  H   H1774     1.0  0.68356  0.19623  0.84128  1.0000
  H   H1775     1.0  0.97896  0.03012  0.51416  1.0000
  C   C1787     1.0  0.92788  0.04934  0.51292  1.0000
  C   C1788     1.0  0.94734  0.03715  0.59159  1.0000
  C   C1789     1.0  0.73519  0.18099  0.91907  1.0000
  H   H1776     1.0  0.70133  0.13662  0.79844  1.0000
  S   S593      1.0  0.77269  0.20126  0.59803  1.0000
  S   S594      1.0  0.70899  0.22678  0.71888  1.0000
  C   C1790     1.0  0.83384  0.21905  0.77633  1.0000
  S   S595      1.0  0.77721  0.18911  0.64218  1.0000
  H   H1777     1.0  0.76329  0.18594  0.54247  1.0000
  C   C1791     1.0  0.71986  0.01568  0.75551  1.0000
  C   C1792     1.0  0.75774  0.19330  0.92669  1.0000
  C   C1793     1.0  0.87786  0.01378  0.72543  1.0000
  H   H1778     1.0  0.83629  0.19218  0.79568  1.0000
  H   H1779     1.0  0.84258  0.16235  0.76096  1.0000
  S   S596      1.0  0.76952  0.19729  0.87321  1.0000
  S   S597      1.0  0.80385  0.19560  0.82536  1.0000
  S   S598      1.0  0.67715  0.14805  0.76817  1.0000
  C   C1794     1.0  0.91879  0.99650  0.51032  1.0000
  H   H1780     1.0  0.73229  0.22477  0.92376  1.0000
  H   H1781     1.0  0.72542  0.02155  0.80685  1.0000
  C   C1795     1.0  0.83433  0.22355  0.82858  1.0000
  C   C1796     1.0  0.67013  0.13588  0.75494  1.0000
  C   C1797     1.0  0.93905  0.23251  0.67378  1.0000
  H   H1782     1.0  0.66058  0.18882  0.49588  1.0000
  C   C1798     1.0  0.84011  0.00868  0.58074  1.0000
  C   C1799     1.0  0.66525  0.10633  0.75108  1.0000
  S   S599      1.0  0.76676  0.23473  0.89944  1.0000
  C   C1800     1.0  0.91094  0.02350  0.70286  1.0000
  C   C1801     1.0  0.71330  0.22357  0.69573  1.0000
  H   H1783     1.0  0.77751  0.15035  0.91540  1.0000
  C   C1802     1.0  0.89794  0.03647  0.71275  1.0000
  H   H1784     1.0  0.68522  0.17789  0.48933  1.0000
  H   H1785     1.0  0.70005  0.02788  0.81422  1.0000
  C   C1803     1.0  0.89118  0.00113  0.71533  1.0000
  H   H1786     1.0  0.85461  0.23105  0.79496  1.0000
  C   C1804     1.0  0.73129  0.22381  0.68445  1.0000
  H   H1787     1.0  0.70055  0.99003  0.85440  1.0000
  C   C1805     1.0  0.98155  0.04630  0.48574  1.0000
  C   C1806     1.0  0.92151  0.99246  0.69421  1.0000
  H   H1788     1.0  0.79902  0.20305  0.70340  1.0000
  H   H1789     1.0  0.98201  0.01175  0.58004  1.0000
  C   C1807     1.0  0.69616  0.00002  0.77745  1.0000
  S   S600      1.0  0.77195  0.23395  0.62105  1.0000
  H   H1790     1.0  0.80043  0.22472  0.72293  1.0000
  C   C1808     1.0  0.69164  0.98739  0.90154  1.0000
  H   H1791     1.0  0.86638  0.22516  0.63871  1.0000
  H   H1792     1.0  0.91452  0.21529  0.66308  1.0000
  S   S601      1.0  0.65904  0.23452  0.75124  1.0000
  H   H1793     1.0  0.73926  0.99769  0.60714  1.0000
  H   H1794     1.0  0.77598  0.99114  0.52978  1.0000
  H   H1795     1.0  0.93582  0.21870  0.64567  1.0000
  C   C1809     1.0  0.85414  0.23280  0.66567  1.0000
  H   H1796     1.0  0.72343  0.23359  0.79348  1.0000
  H   H1797     1.0  0.78558  0.23301  0.80876  1.0000
  H   H1798     1.0  0.80128  0.23449  0.86682  1.0000
  S   S602      1.0  0.96537  0.03580  0.48068  1.0000
  Fe  Fe297     1.0  0.87767  0.23384  0.69839  1.0000
  H   H1799     1.0  0.84253  0.21127  0.82297  1.0000
  H   H1800     1.0  0.68607  0.99101  0.78056  1.0000
  H   H1801     1.0  0.79530  0.99656  0.57385  1.0000
  H   H1802     1.0  0.70595  0.99738  0.74851  1.0000
  C   C1810     1.0  0.70971  0.23434  0.80280  1.0000
  S   S603      1.0  0.99146  0.05771  0.59284  1.0000
  S   S604      1.0  0.95262  0.98828  0.60438  1.0000
  H   H1803     1.0  0.88837  0.98737  0.71635  1.0000
  C   C1811     1.0  0.65881  0.02538  0.88982  1.0000
  C   C1812     1.0  0.67416  0.23671  0.82659  1.0000
  C   C1813     1.0  0.81104  0.23644  0.85334  1.0000
  Fe  Fe298     1.0  0.97027  0.36961  0.09975  1.0000
  H   H1804     1.0  0.72506  0.28389  0.13562  1.0000
  N   N150      1.0  0.83996  0.25886  0.05448  1.0000
  Fe  Fe299     1.0  0.94639  0.40171  0.11892  1.0000
  S   S605      1.0  0.95996  0.39168  0.14405  1.0000
  S   S606      1.0  0.92114  0.42517  0.11549  1.0000
  H   H1805     1.0  0.66761  0.25312  0.25875  1.0000
  C   C1814     1.0  0.69583  0.32816  0.41786  1.0000
  Fe  Fe300     1.0  0.95799  0.36257  0.14223  1.0000
  S   S607      1.0  0.94724  0.34005  0.16644  1.0000
  S   S608      1.0  0.97335  0.39912  0.09755  1.0000
  S   S609      1.0  0.94217  0.37333  0.11910  1.0000
  Fe  Fe301     1.0  0.85803  0.39769  0.02078  1.0000
  S   S610      1.0  0.88503  0.39704  0.02902  1.0000
  Fe  Fe302     1.0  0.93205  0.27957  0.06025  1.0000
  S   S611      1.0  0.86290  0.43358  0.04799  1.0000
  Fe  Fe303     1.0  0.86662  0.40227  0.05645  1.0000
  S   S612      1.0  0.87494  0.38692  0.08364  1.0000
  S   S613      1.0  0.84000  0.40080  0.04936  1.0000
  H   H1806     1.0  0.72367  0.33288  0.41530  1.0000
  S   S614      1.0  0.90793  0.26575  0.06378  1.0000
  S   S615      1.0  0.88094  0.29545  0.02602  1.0000
  Fe  Fe304     1.0  0.90822  0.27853  0.03357  1.0000
  S   S616      1.0  0.93050  0.29448  0.03077  1.0000
  C   C1815     1.0  0.91331  0.45083  0.01715  1.0000
  H   H1807     1.0  0.88772  0.25762  0.01866  1.0000
  Fe  Fe305     1.0  0.83764  0.43206  0.03843  1.0000
  Fe  Fe306     1.0  0.86769  0.28617  0.16824  1.0000
  S   S617      1.0  0.87522  0.31486  0.16125  1.0000
  Fe  Fe307     1.0  0.83605  0.26410  0.18511  1.0000
  S   S618      1.0  0.80905  0.25716  0.20422  1.0000
  S   S619      1.0  0.86063  0.26606  0.19593  1.0000
  S   S620      1.0  0.84125  0.28651  0.15918  1.0000
  H   H1808     1.0  0.86299  0.41787  0.10309  1.0000
  H   H1809     1.0  0.91042  0.47572  0.06977  1.0000
  H   H1810     1.0  0.69752  0.39860  0.46020  1.0000
  S   S621      1.0  0.70422  0.25211  0.21131  1.0000
  Fe  Fe308     1.0  0.70072  0.44049  0.35907  1.0000
  S   S622      1.0  0.69987  0.44450  0.38780  1.0000
  S   S623      1.0  0.71783  0.45457  0.33206  1.0000
  Fe  Fe309     1.0  0.69809  0.41387  0.39765  1.0000
  S   S624      1.0  0.71415  0.39305  0.41855  1.0000
  H   H1811     1.0  0.66450  0.35451  0.39166  1.0000
  S   S625      1.0  0.70212  0.40917  0.36853  1.0000
  Fe  Fe310     1.0  0.69205  0.24256  0.16766  1.0000
  H   H1812     1.0  0.92700  0.38231  0.03832  1.0000
  H   H1813     1.0  0.66219  0.35914  0.44091  1.0000
  Fe  Fe311     1.0  0.87692  0.24366  0.17967  1.0000
  H   H1814     1.0  0.86149  0.25650  0.06922  1.0000
  H   H1815     1.0  0.82551  0.44540  0.10793  1.0000
  C   C1816     1.0  0.83579  0.25206  0.12143  1.0000
  C   C1817     1.0  0.70244  0.34663  0.45782  1.0000
  C   C1818     1.0  0.71149  0.36116  0.44633  1.0000
  C   C1819     1.0  0.70286  0.37477  0.43274  1.0000
  C   C1820     1.0  0.68510  0.37388  0.43089  1.0000
  H   H1816     1.0  0.97907  0.39610  0.05425  1.0000
  H   H1817     1.0  0.94723  0.26609  0.14217  1.0000
  H   H1818     1.0  0.74857  0.43693  0.29969  1.0000
  H   H1819     1.0  0.83613  0.39685  0.98406  1.0000
  C   C1821     1.0  0.98835  0.26329  0.98142  1.0000
  C   C1822     1.0  0.75888  0.44588  0.29548  1.0000
  H   H1820     1.0  0.87632  0.47639  0.02486  1.0000
  C   C1823     1.0  0.66350  0.32492  0.42070  1.0000
  N   N151      1.0  0.66655  0.27611  0.27106  1.0000
  C   C1824     1.0  0.97050  0.40989  0.04855  1.0000
  C   C1825     1.0  0.73013  0.27381  0.12643  1.0000
  H   H1821     1.0  0.94055  0.44860  0.12595  1.0000
  H   H1822     1.0  0.93142  0.28753  0.14777  1.0000
  C   C1826     1.0  0.66682  0.25892  0.47136  1.0000
  H   H1823     1.0  0.90036  0.32362  0.99213  1.0000
  C   C1827     1.0  0.78875  0.26432  0.19446  1.0000
  C   C1828     1.0  0.78807  0.27789  0.17782  1.0000
  C   C1829     1.0  0.77164  0.28353  0.17044  1.0000
  C   C1830     1.0  0.75595  0.27533  0.17942  1.0000
  C   C1831     1.0  0.94196  0.28122  0.13646  1.0000
  C   C1832     1.0  0.77301  0.25623  0.20353  1.0000
  H   H1824     1.0  0.80006  0.28434  0.17082  1.0000
  H   H1825     1.0  0.77111  0.29430  0.15776  1.0000
  H   H1826     1.0  0.74472  0.25516  0.20296  1.0000
  H   H1827     1.0  0.66561  0.30092  0.20762  1.0000
  C   C1833     1.0  0.66779  0.29473  0.26561  1.0000
  C   C1834     1.0  0.87671  0.26673  0.01175  1.0000
  C   C1835     1.0  0.94792  0.39441  0.04338  1.0000
  H   H1828     1.0  0.97541  0.33349  0.04905  1.0000
  C   C1836     1.0  0.81917  0.45525  0.09687  1.0000
  C   C1837     1.0  0.88344  0.47126  0.08700  1.0000
  H   H1829     1.0  0.97822  0.23778  0.99535  1.0000
  S   S626      1.0  0.95414  0.25498  0.05192  1.0000
  N   N152      1.0  0.74900  0.26669  0.12134  1.0000
  H   H1830     1.0  0.76322  0.44158  0.32345  1.0000
  H   H1831     1.0  0.92560  0.43529  0.05980  1.0000
  C   C1838     1.0  0.86481  0.47136  0.08703  1.0000
  H   H1832     1.0  0.82751  0.43551  0.07836  1.0000
  Fe  Fe312     1.0  0.67594  0.25789  0.20380  1.0000
  H   H1833     1.0  0.94761  0.38589  0.05745  1.0000
  H   H1834     1.0  0.66303  0.31987  0.43606  1.0000
  C   C1839     1.0  0.67591  0.35972  0.44258  1.0000
  C   C1840     1.0  0.85628  0.29724  0.00461  1.0000
  C   C1841     1.0  0.92886  0.33037  0.16445  1.0000
  C   C1842     1.0  0.92372  0.33332  0.14722  1.0000
  C   C1843     1.0  0.90803  0.32715  0.14610  1.0000
  C   C1844     1.0  0.89761  0.31736  0.16214  1.0000
  C   C1845     1.0  0.90346  0.31314  0.17923  1.0000
  C   C1846     1.0  0.91908  0.31963  0.18037  1.0000
  H   H1835     1.0  0.93170  0.34049  0.13473  1.0000
  H   H1836     1.0  0.90361  0.33054  0.13285  1.0000
  H   H1837     1.0  0.89530  0.30587  0.19179  1.0000
  H   H1838     1.0  0.92312  0.31697  0.19376  1.0000
  C   C1847     1.0  0.72872  0.47259  0.33265  1.0000
  H   H1839     1.0  0.75739  0.28723  0.13077  1.0000
  C   C1848     1.0  0.76722  0.44861  0.30891  1.0000
  C   C1849     1.0  0.96107  0.34072  0.07582  1.0000
  C   C1850     1.0  0.96454  0.33072  0.06144  1.0000
  C   C1851     1.0  0.95446  0.31662  0.06337  1.0000
  C   C1852     1.0  0.94083  0.31262  0.07967  1.0000
  C   C1853     1.0  0.93687  0.32314  0.09361  1.0000
  C   C1854     1.0  0.94700  0.33704  0.09171  1.0000
  H   H1840     1.0  0.87247  0.24474  0.00042  1.0000
  H   H1841     1.0  0.95766  0.30849  0.05256  1.0000
  H   H1842     1.0  0.94429  0.34447  0.10283  1.0000
  C   C1855     1.0  0.88760  0.40048  0.08932  1.0000
  C   C1856     1.0  0.90726  0.39620  0.08480  1.0000
  C   C1857     1.0  0.91759  0.40528  0.09140  1.0000
  C   C1858     1.0  0.90831  0.41814  0.10305  1.0000
  C   C1859     1.0  0.88861  0.42327  0.10666  1.0000
  C   C1860     1.0  0.87823  0.41448  0.09969  1.0000
  H   H1843     1.0  0.91449  0.38541  0.07677  1.0000
  H   H1844     1.0  0.93281  0.40181  0.08801  1.0000
  H   H1845     1.0  0.88136  0.43313  0.11575  1.0000
  H   H1846     1.0  0.87664  0.30309  0.06463  1.0000
  H   H1847     1.0  0.66801  0.38620  0.47058  1.0000
  H   H1848     1.0  0.87722  0.29186  0.09852  1.0000
  C   C1861     1.0  0.87082  0.28570  0.01322  1.0000
  S   S627      1.0  0.85320  0.42909  0.00901  1.0000
  C   C1862     1.0  0.81207  0.46224  0.06580  1.0000
  H   H1849     1.0  0.96611  0.44474  0.14296  1.0000
  Fe  Fe313     1.0  0.95089  0.26875  0.02219  1.0000
  C   C1863     1.0  0.96265  0.29975  0.14060  1.0000
  H   H1850     1.0  0.92457  0.47224  0.99505  1.0000
  H   H1851     1.0  0.94502  0.47779  0.01345  1.0000
  C   C1864     1.0  0.95509  0.44752  0.11842  1.0000
  C   C1865     1.0  0.80945  0.47335  0.09955  1.0000
  C   C1866     1.0  0.82043  0.44968  0.08007  1.0000
  H   H1852     1.0  0.68980  0.25462  0.26298  1.0000
  N   N153      1.0  0.88284  0.32972  0.06306  1.0000
  C   C1867     1.0  0.88689  0.34109  0.07244  1.0000
  C   C1868     1.0  0.87948  0.31221  0.07219  1.0000
  C   C1869     1.0  0.88731  0.33515  0.09157  1.0000
  C   C1870     1.0  0.87977  0.30581  0.09134  1.0000
  C   C1871     1.0  0.88369  0.31740  0.10107  1.0000
  C   C1872     1.0  0.88260  0.33596  0.04298  1.0000
  H   H1853     1.0  0.88975  0.35490  0.06520  1.0000
  H   H1854     1.0  0.96794  0.42908  0.01359  1.0000
  H   H1855     1.0  0.89051  0.34429  0.09886  1.0000
  H   H1856     1.0  0.91213  0.28944  0.99230  1.0000
  H   H1857     1.0  0.88410  0.31254  0.11589  1.0000
  H   H1858     1.0  0.89497  0.32778  0.03467  1.0000
  H   H1859     1.0  0.86957  0.33384  0.04009  1.0000
  H   H1860     1.0  0.88282  0.35123  0.03788  1.0000
  C   C1873     1.0  0.67754  0.34947  0.39679  1.0000
  H   H1861     1.0  0.92645  0.32001  0.10628  1.0000
  H   H1862     1.0  0.90485  0.43010  0.04170  1.0000
  C   C1874     1.0  0.96938  0.44534  0.12796  1.0000
  N   N154      1.0  0.77934  0.46077  0.30399  1.0000
  S   S628      1.0  0.97502  0.35702  0.07415  1.0000
  C   C1875     1.0  0.72337  0.25466  0.10868  1.0000
  N   N155      1.0  0.87798  0.36913  0.15051  1.0000
  C   C1876     1.0  0.89135  0.37993  0.14298  1.0000
  C   C1877     1.0  0.87585  0.35988  0.16891  1.0000
  C   C1878     1.0  0.90257  0.38223  0.15409  1.0000
  C   C1879     1.0  0.88717  0.36148  0.18032  1.0000
  C   C1880     1.0  0.90062  0.37273  0.17281  1.0000
  C   C1881     1.0  0.86662  0.36651  0.13857  1.0000
  H   H1863     1.0  0.89358  0.38664  0.12825  1.0000
  H   H1864     1.0  0.86579  0.35068  0.17469  1.0000
  H   H1865     1.0  0.91298  0.39103  0.14809  1.0000
  H   H1866     1.0  0.88591  0.35359  0.19470  1.0000
  H   H1867     1.0  0.90987  0.37370  0.18132  1.0000
  H   H1868     1.0  0.85205  0.36570  0.14654  1.0000
  H   H1869     1.0  0.86556  0.37839  0.12621  1.0000
  H   H1870     1.0  0.87304  0.35318  0.13345  1.0000
  C   C1882     1.0  0.95957  0.44821  0.09911  1.0000
  C   C1883     1.0  0.85905  0.47551  0.06991  1.0000
  C   C1884     1.0  0.92456  0.46438  0.00930  1.0000
  S   S629      1.0  0.85208  0.24056  0.17060  1.0000
  H   H1871     1.0  0.93437  0.28245  0.12517  1.0000
  S   S630      1.0  0.88605  0.26376  0.15279  1.0000
  C   C1885     1.0  0.77624  0.46718  0.27184  1.0000
  C   C1886     1.0  0.68464  0.34589  0.45585  1.0000
  C   C1887     1.0  0.66056  0.26190  0.45463  1.0000
  H   H1872     1.0  0.82208  0.26568  0.14482  1.0000
  S   S631      1.0  0.80768  0.47956  0.12104  1.0000
  N   N156      1.0  0.95773  0.29106  0.12921  1.0000
  S   S632      1.0  0.66929  0.44744  0.36157  1.0000
  H   H1873     1.0  0.98021  0.41962  0.04088  1.0000
  H   H1874     1.0  0.85359  0.27969  0.05672  1.0000
  H   H1875     1.0  0.94773  0.42572  0.99391  1.0000
  S   S633      1.0  0.67323  0.32733  0.46853  1.0000
  H   H1876     1.0  0.76422  0.26306  0.14235  1.0000
  H   H1877     1.0  0.78908  0.47874  0.31554  1.0000
  H   H1878     1.0  0.70930  0.33592  0.46801  1.0000
  H   H1879     1.0  0.81635  0.27270  0.01894  1.0000
  C   C1888     1.0  0.85441  0.34985  0.98844  1.0000
  H   H1880     1.0  0.79398  0.47918  0.28165  1.0000
  C   C1889     1.0  0.70911  0.35290  0.39486  1.0000
  H   H1881     1.0  0.92690  0.40252  0.00631  1.0000
  S   S634      1.0  0.73560  0.28257  0.16970  1.0000
  Fe  Fe314     1.0  0.87872  0.42846  0.01967  1.0000
  Fe  Fe315     1.0  0.67056  0.41658  0.37376  1.0000
  H   H1882     1.0  0.83013  0.28576  0.03809  1.0000
  H   H1883     1.0  0.67671  0.26680  0.47201  1.0000
  C   C1890     1.0  0.80269  0.48048  0.06832  1.0000
  C   C1891     1.0  0.84806  0.29016  0.99395  1.0000
  C   C1892     1.0  0.98228  0.30115  0.10376  1.0000
  H   H1884     1.0  0.77341  0.24580  0.21647  1.0000
  H   H1885     1.0  0.94855  0.44975  0.09160  1.0000
  H   H1886     1.0  0.78106  0.43488  0.10995  1.0000
  H   H1887     1.0  0.69712  0.31645  0.42979  1.0000
  C   C1893     1.0  0.78414  0.46977  0.28566  1.0000
  H   H1888     1.0  0.67854  0.38382  0.42020  1.0000
  H   H1889     1.0  0.88824  0.46779  0.10014  1.0000
  H   H1890     1.0  0.85120  0.31167  0.00630  1.0000
  C   C1894     1.0  0.78767  0.46379  0.31828  1.0000
  H   H1891     1.0  0.72045  0.36058  0.38882  1.0000
  H   H1892     1.0  0.75690  0.45347  0.26630  1.0000
  C   C1895     1.0  0.77340  0.44822  0.10327  1.0000
  C   C1896     1.0  0.83078  0.27068  0.04101  1.0000
  C   C1897     1.0  0.76341  0.45529  0.27684  1.0000
  S   S635      1.0  0.81231  0.45497  0.04529  1.0000
  C   C1898     1.0  0.71705  0.26799  0.12009  1.0000
  C   C1899     1.0  0.75530  0.25331  0.11049  1.0000
  H   H1893     1.0  0.76782  0.46120  0.12716  1.0000
  H   H1894     1.0  0.77785  0.43981  0.07685  1.0000
  C   C1900     1.0  0.71092  0.33736  0.40970  1.0000
  H   H1895     1.0  0.77641  0.27170  0.11883  1.0000
  H   H1896     1.0  0.96096  0.41611  0.06039  1.0000
  H   H1897     1.0  0.69711  0.43121  0.44158  1.0000
  H   H1898     1.0  0.65912  0.32220  0.27296  1.0000
  C   C1901     1.0  0.76253  0.46860  0.07599  1.0000
  C   C1902     1.0  0.73528  0.48443  0.31572  1.0000
  C   C1903     1.0  0.91336  0.44069  0.03556  1.0000
  C   C1904     1.0  0.77153  0.45096  0.08474  1.0000
  H   H1899     1.0  0.85485  0.46827  0.10020  1.0000
  C   C1905     1.0  0.73230  0.47436  0.34937  1.0000
  C   C1906     1.0  0.86805  0.25944  0.00149  1.0000
  C   C1907     1.0  0.75674  0.26152  0.19589  1.0000
  C   C1908     1.0  0.92522  0.44354  0.04575  1.0000
  S   S636      1.0  0.93001  0.29324  0.08427  1.0000
  C   C1909     1.0  0.94813  0.41647  0.00759  1.0000
  H   H1900     1.0  0.67562  0.30005  0.25178  1.0000
  H   H1901     1.0  0.72525  0.36173  0.44786  1.0000
  H   H1902     1.0  0.66574  0.27203  0.44250  1.0000
  C   C1910     1.0  0.80503  0.24859  0.14080  1.0000
  C   C1911     1.0  0.76246  0.27248  0.12860  1.0000
  S   S637      1.0  0.68564  0.27184  0.17361  1.0000
  S   S638      1.0  0.90024  0.44593  0.00339  1.0000
  H   H1903     1.0  0.66712  0.45154  0.43440  1.0000
  N   N157      1.0  0.67927  0.33453  0.41165  1.0000
  S   S639      1.0  0.92812  0.25385  0.02266  1.0000
  Fe  Fe316     1.0  0.71433  0.26386  0.18084  1.0000
  C   C1912     1.0  0.95950  0.41832  0.01882  1.0000
  C   C1913     1.0  0.93667  0.45689  0.03782  1.0000
  H   H1904     1.0  0.76184  0.47077  0.06135  1.0000
  C   C1914     1.0  0.93635  0.40347  0.01461  1.0000
  H   H1905     1.0  0.77996  0.47448  0.25735  1.0000
  Fe  Fe317     1.0  0.85924  0.26294  0.14554  1.0000
  S   S640      1.0  0.85685  0.25978  0.11749  1.0000
  N   N158      1.0  0.95929  0.40732  0.03646  1.0000
  C   C1915     1.0  0.89590  0.47568  0.06997  1.0000
  H   H1906     1.0  0.73251  0.48319  0.30273  1.0000
  H   H1907     1.0  0.77021  0.24717  0.10707  1.0000
  C   C1916     1.0  0.82103  0.25649  0.13637  1.0000
  H   H1908     1.0  0.79404  0.25147  0.15283  1.0000
  S   S641      1.0  0.95269  0.45855  0.05030  1.0000
  C   C1917     1.0  0.85058  0.36812  0.99192  1.0000
  C   C1918     1.0  0.93627  0.39229  0.03260  1.0000
  H   H1909     1.0  0.86322  0.33861  0.99645  1.0000
  H   H1910     1.0  0.83862  0.27002  0.07813  1.0000
  H   H1911     1.0  0.70205  0.27333  0.12446  1.0000
  H   H1912     1.0  0.95518  0.29920  0.15508  1.0000
  C   C1919     1.0  0.93610  0.46756  0.01970  1.0000
  C   C1920     1.0  0.85392  0.27126  0.99234  1.0000
  H   H1913     1.0  0.96411  0.28390  0.10227  1.0000
  H   H1914     1.0  0.72752  0.46521  0.36246  1.0000
  C   C1921     1.0  0.96779  0.29106  0.11122  1.0000
  C   C1922     1.0  0.76599  0.46297  0.11293  1.0000
  H   H1915     1.0  0.71325  0.24977  0.10405  1.0000
  S   S642      1.0  0.86082  0.37164  0.00914  1.0000
  C   C1923     1.0  0.74260  0.24716  0.10391  1.0000
  H   H1916     1.0  0.89932  0.48336  0.03994  1.0000
  S   S643      1.0  0.97459  0.27699  0.99797  1.0000
  S   S644      1.0  0.98635  0.35724  0.12287  1.0000
  Fe  Fe318     1.0  0.92965  0.24217  0.05318  1.0000
  C   C1924     1.0  0.84877  0.26664  0.06521  1.0000
  H   H1917     1.0  0.98043  0.31734  0.14258  1.0000
  H   H1918     1.0  0.80178  0.45442  0.31833  1.0000
  H   H1919     1.0  0.85234  0.47810  0.03706  1.0000
  H   H1920     1.0  0.77857  0.46102  0.33253  1.0000
  C   C1925     1.0  0.66712  0.43736  0.44269  1.0000
  C   C1926     1.0  0.88959  0.47986  0.05313  1.0000
  C   C1927     1.0  0.98787  0.24430  0.98361  1.0000
  C   C1928     1.0  0.67656  0.26294  0.25858  1.0000
  C   C1929     1.0  0.97838  0.44674  0.08957  1.0000
  N   N159      1.0  0.87152  0.47925  0.05325  1.0000
  C   C1930     1.0  0.68433  0.40767  0.45727  1.0000
  C   C1931     1.0  0.82281  0.26341  0.03024  1.0000
  C   C1932     1.0  0.84045  0.23989  0.05835  1.0000
  C   C1933     1.0  0.68410  0.42601  0.44683  1.0000
  H   H1921     1.0  0.98174  0.44716  0.07459  1.0000
  C   C1934     1.0  0.98801  0.44409  0.11794  1.0000
  C   C1935     1.0  0.83427  0.24016  0.11059  1.0000
  Fe  Fe319     1.0  0.66859  0.44987  0.39079  1.0000
  C   C1936     1.0  0.69241  0.35886  0.38820  1.0000
  H   H1922     1.0  0.84456  0.47572  0.07001  1.0000
  H   H1923     1.0  0.84912  0.24166  0.24917  1.0000
  H   H1924     1.0  0.68005  0.27048  0.24373  1.0000
  H   H1925     1.0  0.92235  0.24199  0.09853  1.0000
  S   S645      1.0  0.66659  0.41989  0.40338  1.0000
  C   C1937     1.0  0.97707  0.30994  0.13362  1.0000
  C   C1938     1.0  0.66776  0.40072  0.46307  1.0000
  N   N160      1.0  0.75561  0.48310  0.08547  1.0000
  H   H1926     1.0  0.69080  0.37093  0.37667  1.0000
  C   C1939     1.0  0.75693  0.48036  0.10379  1.0000
  H   H1927     1.0  0.98955  0.30198  0.08917  1.0000
  C   C1940     1.0  0.98675  0.31085  0.11498  1.0000
  H   H1928     1.0  0.83685  0.29925  0.98729  1.0000
  C   C1941     1.0  0.83917  0.38268  0.98155  1.0000
  Fe  Fe320     1.0  0.98712  0.38727  0.12257  1.0000
  C   C1942     1.0  0.86533  0.48343  0.03540  1.0000
  C   C1943     1.0  0.82423  0.24398  0.03337  1.0000
  H   H1929     1.0  0.66499  0.31264  0.41435  1.0000
  C   C1944     1.0  0.80135  0.48603  0.08517  1.0000
  S   S646      1.0  0.99052  0.48528  0.04823  1.0000
  Fe  Fe321     1.0  0.96067  0.48643  0.04722  1.0000
  H   H1930     1.0  0.81889  0.23812  0.02451  1.0000
  C   C1945     1.0  0.65853  0.30733  0.27757  1.0000
  Fe  Fe322     1.0  0.68361  0.26338  0.50806  1.0000
  H   H1931     1.0  0.88882  0.30535  0.84894  1.0000
  N   N161      1.0  0.89627  0.31646  0.80142  1.0000
  H   H1932     1.0  0.66762  0.26748  0.76642  1.0000
  S   S647      1.0  0.72196  0.25444  0.82151  1.0000
  C   C1946     1.0  0.69451  0.26075  0.74819  1.0000
  C   C1947     1.0  0.70857  0.27263  0.77275  1.0000
  C   C1948     1.0  0.74680  0.27680  0.58079  1.0000
  C   C1949     1.0  0.90454  0.28286  0.81222  1.0000
  C   C1950     1.0  0.97585  0.40087  0.79810  1.0000
  N   N162      1.0  0.97512  0.39791  0.81698  1.0000
  H   H1933     1.0  0.73299  0.26103  0.61596  1.0000
  H   H1934     1.0  0.68889  0.25626  0.73854  1.0000
  C   C1951     1.0  0.70586  0.24264  0.81847  1.0000
  S   S648      1.0  0.87787  0.25627  0.71337  1.0000
  S   S649      1.0  0.83238  0.25436  0.75421  1.0000
  C   C1952     1.0  0.82488  0.25679  0.82553  1.0000
  H   H1935     1.0  0.94204  0.37093  0.83339  1.0000
  H   H1936     1.0  0.66597  0.27137  0.79868  1.0000
  S   S650      1.0  0.97046  0.33196  0.80992  1.0000
  H   H1937     1.0  0.97112  0.27694  0.86360  1.0000
  C   C1953     1.0  0.80573  0.24237  0.78425  1.0000
  N   N163      1.0  0.72927  0.27264  0.58777  1.0000
  H   H1938     1.0  0.66975  0.29496  0.78743  1.0000
  H   H1939     1.0  0.91019  0.26890  0.80905  1.0000
  C   C1954     1.0  0.71891  0.29205  0.56001  1.0000
  C   C1955     1.0  0.91570  0.26774  0.67465  1.0000
  Fe  Fe323     1.0  0.97420  0.30308  0.80448  1.0000
  C   C1956     1.0  0.68258  0.26725  0.76387  1.0000
  H   H1940     1.0  0.90719  0.29680  0.78322  1.0000
  H   H1941     1.0  0.89787  0.34772  0.92653  1.0000
  Fe  Fe324     1.0  0.97809  0.34052  0.77866  1.0000
  C   C1957     1.0  0.76453  0.24630  0.55412  1.0000
  H   H1942     1.0  0.90306  0.29899  0.93638  1.0000
  S   S651      1.0  0.87508  0.23760  0.66826  1.0000
  C   C1958     1.0  0.77440  0.34111  0.94057  1.0000
  H   H1943     1.0  0.89469  0.32955  0.77286  1.0000
  Fe  Fe325     1.0  0.86427  0.30143  0.91708  1.0000
  S   S652      1.0  0.84033  0.32458  0.90911  1.0000
  S   S653      1.0  0.89468  0.29667  0.90199  1.0000
  Fe  Fe326     1.0  0.83984  0.28484  0.95324  1.0000
  S   S654      1.0  0.81374  0.30660  0.94819  1.0000
  Fe  Fe327     1.0  0.85922  0.24055  0.73739  1.0000
  Fe  Fe328     1.0  0.82332  0.30173  0.91844  1.0000
  S   S655      1.0  0.80498  0.30188  0.89849  1.0000
  Fe  Fe329     1.0  0.83317  0.32723  0.93940  1.0000
  S   S656      1.0  0.82620  0.35614  0.94694  1.0000
  S   S657      1.0  0.84798  0.27839  0.92435  1.0000
  S   S658      1.0  0.85837  0.30574  0.94646  1.0000
  S   S659      1.0  0.99043  0.27738  0.82108  1.0000
  Fe  Fe330     1.0  0.95222  0.31711  0.77294  1.0000
  S   S660      1.0  0.94374  0.30632  0.80398  1.0000
  S   S661      1.0  0.93439  0.31421  0.75400  1.0000
  C   C1959     1.0  0.89582  0.33303  0.78597  1.0000
  C   C1960     1.0  0.90271  0.30457  0.94844  1.0000
  C   C1961     1.0  0.78275  0.34407  0.90743  1.0000
  Fe  Fe331     1.0  0.94110  0.33608  0.80631  1.0000
  S   S662      1.0  0.91630  0.35142  0.82430  1.0000
  S   S663      1.0  0.94805  0.34733  0.77542  1.0000
  H   H1944     1.0  0.68509  0.24988  0.84262  1.0000
  C   C1962     1.0  0.89561  0.33031  0.96380  1.0000
  S   S664      1.0  0.69852  0.26191  0.53087  1.0000
  Fe  Fe332     1.0  0.71735  0.27842  0.50824  1.0000
  S   S665      1.0  0.74887  0.27263  0.50410  1.0000
  S   S666      1.0  0.79679  0.24283  0.56758  1.0000
  S   S667      1.0  0.70012  0.30698  0.51239  1.0000
  H   H1945     1.0  0.87443  0.34303  0.93641  1.0000
  H   H1946     1.0  0.73980  0.25026  0.54259  1.0000
  H   H1947     1.0  0.85007  0.33182  0.97241  1.0000
  H   H1948     1.0  0.82297  0.39018  0.95985  1.0000
  H   H1949     1.0  0.90219  0.26069  0.65629  1.0000
  C   C1963     1.0  0.90077  0.31257  0.88092  1.0000
  C   C1964     1.0  0.88848  0.32962  0.87577  1.0000
  C   C1965     1.0  0.89353  0.34184  0.85857  1.0000
  C   C1966     1.0  0.91080  0.33693  0.84646  1.0000
  C   C1967     1.0  0.92320  0.32001  0.85172  1.0000
  C   C1968     1.0  0.91823  0.30790  0.86898  1.0000
  H   H1950     1.0  0.87511  0.33342  0.88501  1.0000
  H   H1951     1.0  0.88393  0.35495  0.85454  1.0000
  H   H1952     1.0  0.93659  0.31617  0.84247  1.0000
  H   H1953     1.0  0.92779  0.29474  0.87295  1.0000
  C   C1969     1.0  0.72094  0.26587  0.75737  1.0000
  H   H1954     1.0  0.73596  0.26511  0.75515  1.0000
  C   C1970     1.0  0.89942  0.28522  0.83080  1.0000
  H   H1955     1.0  0.89085  0.32912  0.92065  1.0000
  H   H1956     1.0  0.73126  0.24445  0.60315  1.0000
  S   S668      1.0  0.66363  0.29033  0.51255  1.0000
  H   H1957     1.0  0.75062  0.32196  0.93593  1.0000
  Fe  Fe333     1.0  0.68008  0.29031  0.53342  1.0000
  C   C1971     1.0  0.84704  0.34601  0.97477  1.0000
  S   S669      1.0  0.70421  0.27743  0.48491  1.0000
  C   C1972     1.0  0.94170  0.24396  0.68449  1.0000
  C   C1973     1.0  0.83566  0.36049  0.96436  1.0000
  H   H1958     1.0  0.84223  0.25493  0.78978  1.0000
  C   C1974     1.0  0.67682  0.28013  0.79208  1.0000
  H   H1959     1.0  0.76791  0.33408  0.95432  1.0000
  C   C1975     1.0  0.95152  0.37937  0.82341  1.0000
  C   C1976     1.0  0.79280  0.36405  0.92175  1.0000
  C   C1977     1.0  0.97984  0.26785  0.87324  1.0000
  C   C1978     1.0  0.76099  0.26402  0.52268  1.0000
  C   C1979     1.0  0.77900  0.26770  0.51945  1.0000
  C   C1980     1.0  0.78956  0.26117  0.53347  1.0000
  C   C1981     1.0  0.71540  0.28006  0.57760  1.0000
  H   H1960     1.0  0.80394  0.26680  0.84851  1.0000
  H   H1961     1.0  0.78480  0.27582  0.50601  1.0000
  H   H1962     1.0  0.97790  0.41786  0.83115  1.0000
  C   C1982     1.0  0.81248  0.25457  0.84303  1.0000
  H   H1963     1.0  0.73980  0.30509  0.53883  1.0000
  H   H1964     1.0  0.98554  0.40899  0.78803  1.0000
  S   S670      1.0  0.92804  0.24057  0.73072  1.0000
  C   C1983     1.0  0.92884  0.26069  0.73846  1.0000
  C   C1984     1.0  0.94408  0.26029  0.74626  1.0000
  C   C1985     1.0  0.94576  0.27640  0.75159  1.0000
  C   C1986     1.0  0.93244  0.29319  0.74867  1.0000
  C   C1987     1.0  0.91712  0.29355  0.74101  1.0000
  C   C1988     1.0  0.91520  0.27732  0.73611  1.0000
  C   C1989     1.0  0.68818  0.24345  0.83054  1.0000
  H   H1965     1.0  0.95764  0.27596  0.75742  1.0000
  H   H1966     1.0  0.90678  0.30650  0.73866  1.0000
  H   H1967     1.0  0.90346  0.27784  0.73005  1.0000
  H   H1968     1.0  0.93141  0.27032  0.69383  1.0000
  H   H1969     1.0  0.88660  0.33298  0.82260  1.0000
  H   H1970     1.0  0.76485  0.29158  0.55753  1.0000
  N   N164      1.0  0.89624  0.32342  0.94845  1.0000
  C   C1990     1.0  0.90283  0.29873  0.79762  1.0000
  S   S671      1.0  0.98328  0.31130  0.77303  1.0000
  H   H1971     1.0  0.80340  0.26437  0.53076  1.0000
  C   C1991     1.0  0.95223  0.38226  0.80421  1.0000
  H   H1972     1.0  0.90093  0.27310  0.84229  1.0000
  H   H1973     1.0  0.66486  0.24548  0.54612  1.0000
  C   C1992     1.0  0.77799  0.25321  0.89843  1.0000
  C   C1993     1.0  0.78689  0.25210  0.91308  1.0000
  C   C1994     1.0  0.79559  0.26667  0.91309  1.0000
  C   C1995     1.0  0.79523  0.28265  0.89855  1.0000
  C   C1996     1.0  0.78628  0.28379  0.88391  1.0000
  C   C1997     1.0  0.77780  0.26910  0.88377  1.0000
  H   H1974     1.0  0.95233  0.23888  0.69304  1.0000
  H   H1975     1.0  0.80239  0.26561  0.92447  1.0000
  H   H1976     1.0  0.78578  0.29618  0.87269  1.0000
  H   H1977     1.0  0.77073  0.27026  0.87257  1.0000
  C   C1998     1.0  0.75366  0.25331  0.54009  1.0000
  C   C1999     1.0  0.72584  0.25908  0.60559  1.0000
  C   C2000     1.0  0.75076  0.28880  0.56325  1.0000
  H   H1978     1.0  0.66535  0.24587  0.57880  1.0000
  N   N165      1.0  0.77394  0.33564  0.92473  1.0000
  H   H1979     1.0  0.71059  0.26064  0.61218  1.0000
  C   C2001     1.0  0.71381  0.25985  0.74505  1.0000
  H   H1980     1.0  0.79732  0.25646  0.78124  1.0000
  C   C2002     1.0  0.98411  0.24837  0.87453  1.0000
  H   H1981     1.0  0.70153  0.27665  0.58293  1.0000
  C   C2003     1.0  0.88957  0.33644  0.93218  1.0000
  H   H1982     1.0  0.98467  0.29081  0.88226  1.0000
  H   H1983     1.0  0.83754  0.24059  0.69150  1.0000
  S   S672      1.0  0.67019  0.24006  0.50716  1.0000
  C   C2004     1.0  0.98760  0.27560  0.88376  1.0000
  C   C2005     1.0  0.89130  0.31890  0.81959  1.0000
  C   C2006     1.0  0.73674  0.29632  0.55275  1.0000
  H   H1984     1.0  0.94334  0.37608  0.79926  1.0000
  C   C2007     1.0  0.96454  0.39297  0.79143  1.0000
  H   H1985     1.0  0.99150  0.31035  0.83396  1.0000
  H   H1986     1.0  0.90906  0.33828  0.78299  1.0000
  C   C2008     1.0  0.92989  0.26165  0.68498  1.0000
  H   H1987     1.0  0.75804  0.27038  0.58849  1.0000
  C   C2009     1.0  0.79234  0.35835  0.90568  1.0000
  C   C2010     1.0  0.96315  0.38734  0.82960  1.0000
  H   H1988     1.0  0.68442  0.27950  0.80317  1.0000
  H   H1989     1.0  0.96563  0.39478  0.77643  1.0000
  C   C2011     1.0  0.89264  0.30333  0.83455  1.0000
  C   C2012     1.0  0.76480  0.31996  0.92659  1.0000
  H   H1990     1.0  0.80060  0.37477  0.92071  1.0000
  C   C2013     1.0  0.84911  0.24421  0.80057  1.0000
  H   H1991     1.0  0.78284  0.33943  0.89488  1.0000
  S   S673      1.0  0.76767  0.23897  0.84439  1.0000
  H   H1992     1.0  0.90613  0.28127  0.67531  1.0000
  H   H1993     1.0  0.88368  0.34454  0.78954  1.0000
  C   C2014     1.0  0.78376  0.35543  0.93931  1.0000
  H   H1994     1.0  0.76307  0.31866  0.91277  1.0000
  S   S674      1.0  0.84300  0.26261  0.97934  1.0000
  H   H1995     1.0  0.70789  0.29779  0.55198  1.0000
  C   C2015     1.0  0.98681  0.40642  0.82394  1.0000
  H   H1996     1.0  0.91317  0.27708  0.96434  1.0000
  H   H1997     1.0  0.95474  0.24750  0.74805  1.0000
  H   H1998     1.0  0.79973  0.36463  0.89201  1.0000
  C   C2016     1.0  0.66071  0.24543  0.48692  1.0000
  H   H1999     1.0  0.89029  0.34522  0.96391  1.0000
  H   H2000     1.0  0.86125  0.24902  0.80228  1.0000
  C   C2017     1.0  0.90851  0.29207  0.96419  1.0000
  H   H2001     1.0  0.77366  0.30645  0.93246  1.0000
  C   C2018     1.0  0.78244  0.25051  0.55081  1.0000
  H   H2002     1.0  0.71427  0.27698  0.78245  1.0000
  C   C2019     1.0  0.83175  0.37885  0.96782  1.0000
  H   H2003     1.0  0.82582  0.27092  0.81752  1.0000
  H   H2004     1.0  0.78708  0.23990  0.92452  1.0000
  N   N166      1.0  0.83563  0.24139  0.81854  1.0000
  Fe  Fe334     1.0  0.68524  0.30460  0.49104  1.0000
  N   N167      1.0  0.68969  0.27296  0.77598  1.0000
  H   H2005     1.0  0.72315  0.25439  0.73310  1.0000
  C   C2020     1.0  0.91353  0.25599  0.66395  1.0000
  H   H2006     1.0  0.78462  0.35941  0.95191  1.0000
  S   S675      1.0  0.66787  0.29540  0.56278  1.0000
  N   N168      1.0  0.92520  0.23865  0.66356  1.0000
  H   H2007     1.0  0.96259  0.38498  0.84455  1.0000
  H   H2008     1.0  0.97867  0.24231  0.86592  1.0000
  H   H2009     1.0  0.66037  0.23778  0.83579  1.0000
  H   H2010     1.0  0.75901  0.23793  0.56748  1.0000
  C   C2021     1.0  0.82321  0.23738  0.77259  1.0000
  C   C2022     1.0  0.90789  0.29900  0.97990  1.0000
  C   C2023     1.0  0.90136  0.31822  0.97976  1.0000
  H   H2011     1.0  0.73101  0.50398  0.08165  1.0000
  C   C2024     1.0  0.82437  0.70876  0.23733  1.0000
  H   H2012     1.0  0.69676  0.65016  0.19400  1.0000
  H   H2013     1.0  0.75144  0.50598  0.30218  1.0000
  C   C2025     1.0  0.67895  0.55460  0.16542  1.0000
  N   N169      1.0  0.83037  0.70220  0.25397  1.0000
  H   H2014     1.0  0.70004  0.71170  0.28356  1.0000
  C   C2026     1.0  0.69597  0.67896  0.32710  1.0000
  C   C2027     1.0  0.87532  0.60378  0.36586  1.0000
  Fe  Fe335     1.0  0.94765  0.52685  0.05345  1.0000
  S   S676      1.0  0.92137  0.54881  0.06076  1.0000
  C   C2028     1.0  0.89209  0.57470  0.35451  1.0000
  S   S677      1.0  0.95759  0.51466  0.02710  1.0000
  C   C2029     1.0  0.73027  0.55753  0.31567  1.0000
  C   C2030     1.0  0.67333  0.72590  0.29754  1.0000
  H   H2015     1.0  0.71714  0.73027  0.25435  1.0000
  S   S678      1.0  0.69195  0.67225  0.27508  1.0000
  H   H2016     1.0  0.68526  0.69698  0.22244  1.0000
  S   S679      1.0  0.67083  0.63591  0.28482  1.0000
  S   S680      1.0  0.70621  0.63304  0.31596  1.0000
  S   S681      1.0  0.77046  0.53451  0.27808  1.0000
  Fe  Fe336     1.0  0.81877  0.53911  0.28470  1.0000
  S   S682      1.0  0.81033  0.54777  0.25679  1.0000
  S   S683      1.0  0.84789  0.54345  0.28300  1.0000
  Fe  Fe337     1.0  0.78239  0.56033  0.27270  1.0000
  S   S684      1.0  0.76770  0.58865  0.25938  1.0000
  Fe  Fe338     1.0  0.79943  0.52114  0.26476  1.0000
  S   S685      1.0  0.80628  0.50216  0.24410  1.0000
  S   S686      1.0  0.79134  0.55353  0.30022  1.0000
  Fe  Fe339     1.0  0.77450  0.54636  0.13048  1.0000
  H   H2017     1.0  0.71736  0.71387  0.35650  1.0000
  S   S687      1.0  0.78230  0.57468  0.12460  1.0000
  Fe  Fe340     1.0  0.74602  0.52651  0.12623  1.0000
  H   H2018     1.0  0.67078  0.59477  0.18200  1.0000
  S   S688      1.0  0.72239  0.52543  0.11364  1.0000
  Fe  Fe341     1.0  0.75867  0.51823  0.16327  1.0000
  S   S689      1.0  0.74632  0.51458  0.19426  1.0000
  Fe  Fe342     1.0  0.78544  0.50467  0.12893  1.0000
  H   H2019     1.0  0.98569  0.68012  0.32375  1.0000
  S   S690      1.0  0.74501  0.54472  0.14589  1.0000
  S   S691      1.0  0.77440  0.53051  0.10881  1.0000
  S   S692      1.0  0.79002  0.69162  0.33562  1.0000
  Fe  Fe343     1.0  0.91113  0.62098  0.27715  1.0000
  S   S693      1.0  0.91304  0.60232  0.30549  1.0000
  S   S694      1.0  0.92262  0.60791  0.25168  1.0000
  Fe  Fe344     1.0  0.88805  0.65430  0.29398  1.0000
  S   S695      1.0  0.88741  0.63830  0.32357  1.0000
  S   S696      1.0  0.87368  0.68464  0.29036  1.0000
  Fe  Fe345     1.0  0.91811  0.62763  0.31299  1.0000
  S   S697      1.0  0.94081  0.62627  0.32848  1.0000
  Fe  Fe346     1.0  0.88227  0.61495  0.31309  1.0000
  S   S698      1.0  0.85943  0.59870  0.32838  1.0000
  S   S699      1.0  0.91910  0.64512  0.28376  1.0000
  S   S700      1.0  0.88003  0.63211  0.28441  1.0000
  Fe  Fe347     1.0  0.84710  0.59516  0.16989  1.0000
  S   S701      1.0  0.87502  0.59222  0.17718  1.0000
  S   S702      1.0  0.82592  0.57714  0.18497  1.0000
  Fe  Fe348     1.0  0.85137  0.62970  0.13955  1.0000
  S   S703      1.0  0.87967  0.63034  0.14364  1.0000
  S   S704      1.0  0.83495  0.65027  0.11931  1.0000
  Fe  Fe349     1.0  0.88563  0.59888  0.14573  1.0000
  S   S705      1.0  0.91379  0.58421  0.13110  1.0000
  Fe  Fe350     1.0  0.86692  0.62368  0.17449  1.0000
  S   S706      1.0  0.86764  0.64054  0.19507  1.0000
  S   S707      1.0  0.85843  0.59897  0.13883  1.0000
  S   S708      1.0  0.83802  0.62584  0.17005  1.0000
  Fe  Fe351     1.0  0.95685  0.70130  0.37718  1.0000
  H   H2020     1.0  0.97831  0.70537  0.31711  1.0000
  S   S709      1.0  0.93317  0.68857  0.37524  1.0000
  S   S710      1.0  0.74709  0.71029  0.17988  1.0000
  S   S711      1.0  0.69224  0.66358  0.10580  1.0000
  C   C2031     1.0  0.93859  0.64368  0.34141  1.0000
  C   C2032     1.0  0.95424  0.64481  0.34771  1.0000
  C   C2033     1.0  0.95288  0.65856  0.35800  1.0000
  C   C2034     1.0  0.93573  0.67102  0.36239  1.0000
  C   C2035     1.0  0.91999  0.66957  0.35644  1.0000
  C   C2036     1.0  0.92147  0.65616  0.34578  1.0000
  H   H2021     1.0  0.96749  0.63507  0.34456  1.0000
  H   H2022     1.0  0.96502  0.65931  0.36278  1.0000
  H   H2023     1.0  0.90666  0.67912  0.35983  1.0000
  H   H2024     1.0  0.90933  0.65548  0.34099  1.0000
  C   C2037     1.0  0.90890  0.61756  0.23452  1.0000
  C   C2038     1.0  0.90817  0.60665  0.22223  1.0000
  C   C2039     1.0  0.89611  0.61383  0.20939  1.0000
  C   C2040     1.0  0.88498  0.63202  0.20871  1.0000
  C   C2041     1.0  0.88650  0.64322  0.22032  1.0000
  C   C2042     1.0  0.89820  0.63594  0.23340  1.0000
  H   H2025     1.0  0.91664  0.59251  0.22292  1.0000
  H   H2026     1.0  0.89530  0.60521  0.20024  1.0000
  H   H2027     1.0  0.87860  0.65756  0.21921  1.0000
  H   H2028     1.0  0.89912  0.64460  0.24248  1.0000
  C   C2043     1.0  0.82377  0.67036  0.12887  1.0000
  H   H2029     1.0  0.80269  0.67934  0.11195  1.0000
  C   C2044     1.0  0.81417  0.68888  0.32576  1.0000
  C   C2045     1.0  0.82276  0.70449  0.32042  1.0000
  C   C2046     1.0  0.84126  0.70307  0.30993  1.0000
  C   C2047     1.0  0.85134  0.68590  0.30516  1.0000
  C   C2048     1.0  0.84317  0.66997  0.31150  1.0000
  C   C2049     1.0  0.82455  0.67148  0.32175  1.0000
  Fe  Fe352     1.0  0.99085  0.71689  0.35437  1.0000
  H   H2030     1.0  0.84764  0.71534  0.30533  1.0000
  H   H2031     1.0  0.85091  0.65661  0.30798  1.0000
  H   H2032     1.0  0.81799  0.65934  0.32597  1.0000
  C   C2050     1.0  0.79307  0.57611  0.14218  1.0000
  C   C2051     1.0  0.80337  0.59018  0.13880  1.0000
  C   C2052     1.0  0.81257  0.59112  0.15242  1.0000
  C   C2053     1.0  0.81205  0.57762  0.16923  1.0000
  C   C2054     1.0  0.80094  0.56415  0.17305  1.0000
  C   C2055     1.0  0.79129  0.56355  0.15961  1.0000
  H   H2033     1.0  0.80444  0.60024  0.12555  1.0000
  H   H2034     1.0  0.82009  0.60229  0.14984  1.0000
  H   H2035     1.0  0.79998  0.55399  0.18623  1.0000
  H   H2036     1.0  0.78248  0.55335  0.16281  1.0000
  C   C2056     1.0  0.85074  0.55876  0.29586  1.0000
  C   C2057     1.0  0.86779  0.56494  0.29135  1.0000
  C   C2058     1.0  0.87042  0.57742  0.30108  1.0000
  C   C2059     1.0  0.85614  0.58350  0.31566  1.0000
  C   C2060     1.0  0.83913  0.57722  0.32027  1.0000
  C   C2061     1.0  0.83635  0.56503  0.31028  1.0000
  H   H2037     1.0  0.87901  0.56009  0.28027  1.0000
  H   H2038     1.0  0.88362  0.58213  0.29744  1.0000
  H   H2039     1.0  0.82805  0.58185  0.33158  1.0000
  H   H2040     1.0  0.82322  0.56022  0.31398  1.0000
  C   C2062     1.0  0.78968  0.50647  0.22997  1.0000
  C   C2063     1.0  0.79529  0.50095  0.21260  1.0000
  C   C2064     1.0  0.78210  0.50371  0.20141  1.0000
  C   C2065     1.0  0.76318  0.51159  0.20776  1.0000
  C   C2066     1.0  0.75751  0.51677  0.22529  1.0000
  C   C2067     1.0  0.77077  0.51441  0.23629  1.0000
  H   H2041     1.0  0.73206  0.66186  0.32241  1.0000
  H   H2042     1.0  0.68432  0.71798  0.20416  1.0000
  Fe  Fe353     1.0  0.68390  0.64977  0.29990  1.0000
  C   C2068     1.0  0.72441  0.62177  0.30014  1.0000
  C   C2069     1.0  0.72318  0.62514  0.28130  1.0000
  C   C2070     1.0  0.73693  0.61535  0.26879  1.0000
  C   C2071     1.0  0.75175  0.60173  0.27515  1.0000
  C   C2072     1.0  0.75312  0.59831  0.29398  1.0000
  C   C2073     1.0  0.73954  0.60849  0.30645  1.0000
  H   H2043     1.0  0.71150  0.63508  0.27627  1.0000
  H   H2044     1.0  0.73572  0.61791  0.25429  1.0000
  H   H2045     1.0  0.76462  0.58795  0.29895  1.0000
  H   H2046     1.0  0.74053  0.60576  0.32103  1.0000
  C   C2074     1.0  0.78658  0.68383  0.19695  1.0000
  C   C2075     1.0  0.69304  0.72055  0.29369  1.0000
  H   H2047     1.0  0.77677  0.69895  0.21963  1.0000
  H   H2048     1.0  0.84123  0.51027  0.23934  1.0000
  H   H2049     1.0  0.96859  0.69266  0.34001  1.0000
  H   H2050     1.0  0.86210  0.60113  0.36487  1.0000
  H   H2051     1.0  0.70102  0.67671  0.31244  1.0000
  C   C2076     1.0  0.68682  0.57546  0.12045  1.0000
  C   C2077     1.0  0.70313  0.56105  0.11917  1.0000
  C   C2078     1.0  0.70253  0.54393  0.11526  1.0000
  C   C2079     1.0  0.68568  0.54125  0.11274  1.0000
  C   C2080     1.0  0.67755  0.58079  0.17921  1.0000
  H   H2052     1.0  0.68740  0.58873  0.12317  1.0000
  H   H2053     1.0  0.71619  0.56331  0.12087  1.0000
  H   H2054     1.0  0.68515  0.52807  0.10970  1.0000
  H   H2055     1.0  0.70195  0.69678  0.20076  1.0000
  C   C2081     1.0  0.80780  0.68224  0.12288  1.0000
  C   C2082     1.0  0.91930  0.55679  0.08147  1.0000
  C   C2083     1.0  0.93524  0.55867  0.08658  1.0000
  C   C2084     1.0  0.93326  0.56682  0.10202  1.0000
  C   C2085     1.0  0.91539  0.57297  0.11262  1.0000
  C   C2086     1.0  0.89944  0.57071  0.10780  1.0000
  C   C2087     1.0  0.90139  0.56272  0.09221  1.0000
  H   H2056     1.0  0.94905  0.55446  0.07820  1.0000
  H   H2057     1.0  0.94554  0.56887  0.10555  1.0000
  H   H2058     1.0  0.88899  0.56130  0.08836  1.0000
  H   H2059     1.0  0.73705  0.56743  0.27831  1.0000
  H   H2060     1.0  0.75014  0.69534  0.35023  1.0000
  H   H2061     1.0  0.67078  0.68713  0.15854  1.0000
  S   S712      1.0  0.98855  0.48911  0.09901  1.0000
  C   C2088     1.0  0.66989  0.57259  0.11816  1.0000
  S   S713      1.0  0.98795  0.68918  0.37405  1.0000
  H   H2062     1.0  0.70010  0.64089  0.14088  1.0000
  Fe  Fe354     1.0  0.73118  0.70811  0.15987  1.0000
  H   H2063     1.0  0.81508  0.71771  0.32430  1.0000
  C   C2089     1.0  0.75771  0.68154  0.22005  1.0000
  S   S714      1.0  0.69070  0.65583  0.23141  1.0000
  C   C2090     1.0  0.70371  0.72732  0.30241  1.0000
  H   H2064     1.0  0.74205  0.73313  0.26889  1.0000
  Fe  Fe355     1.0  0.98690  0.51440  0.03015  1.0000
  H   H2065     1.0  0.86074  0.51634  0.25809  1.0000
  S   S715      1.0  0.94847  0.49869  0.07297  1.0000
  Fe  Fe356     1.0  0.98713  0.70464  0.39648  1.0000
  N   N170      1.0  0.67421  0.69603  0.19926  1.0000
  C   C2091     1.0  0.83989  0.67917  0.22784  1.0000
  C   C2092     1.0  0.86067  0.52430  0.24383  1.0000
  H   H2066     1.0  0.92196  0.58633  0.35672  1.0000
  H   H2067     1.0  0.72539  0.67151  0.22703  1.0000
  N   N171      1.0  0.75377  0.66965  0.21116  1.0000
  Fe  Fe357     1.0  0.66868  0.64905  0.12179  1.0000
  H   H2068     1.0  0.67739  0.63965  0.17792  1.0000
  N   N172      1.0  0.95803  0.68992  0.31747  1.0000
  Fe  Fe358     1.0  0.66373  0.68914  0.28542  1.0000
  H   H2069     1.0  0.84385  0.67025  0.21752  1.0000
  Fe  Fe359     1.0  0.67680  0.65987  0.26075  1.0000
  C   C2093     1.0  0.74603  0.49738  0.31538  1.0000
  H   H2070     1.0  0.87500  0.59285  0.25294  1.0000
  C   C2094     1.0  0.66941  0.55546  0.11430  1.0000
  H   H2071     1.0  0.85897  0.60507  0.27035  1.0000
  C   C2095     1.0  0.69383  0.57096  0.18583  1.0000
  C   C2096     1.0  0.68701  0.70233  0.20700  1.0000
  H   H2072     1.0  0.79218  0.66762  0.17556  1.0000
  H   H2073     1.0  0.69187  0.66584  0.33631  1.0000
  H   H2074     1.0  0.71507  0.54547  0.18725  1.0000
  H   H2075     1.0  0.75172  0.51302  0.07920  1.0000
  N   N173      1.0  0.71937  0.57118  0.30476  1.0000
  C   C2097     1.0  0.84578  0.67258  0.24493  1.0000
  C   C2098     1.0  0.83604  0.52868  0.20519  1.0000
  C   C2099     1.0  0.84096  0.68439  0.25785  1.0000
  C   C2100     1.0  0.76613  0.66427  0.19564  1.0000
  C   C2101     1.0  0.82561  0.71414  0.26785  1.0000
  H   H2076     1.0  0.73931  0.64792  0.22728  1.0000
  H   H2077     1.0  0.81596  0.72290  0.23423  1.0000
  C   C2102     1.0  0.66060  0.64172  0.23089  1.0000
  C   C2103     1.0  0.85950  0.54501  0.20773  1.0000
  C   C2104     1.0  0.92574  0.69974  0.31416  1.0000
  C   C2105     1.0  0.98946  0.72265  0.47012  1.0000
  C   C2106     1.0  0.87510  0.62005  0.37186  1.0000
  C   C2107     1.0  0.90893  0.61142  0.36766  1.0000
  C   C2108     1.0  0.89204  0.62382  0.37283  1.0000
  H   H2078     1.0  0.86191  0.62985  0.37536  1.0000
  H   H2079     1.0  0.92223  0.61439  0.36799  1.0000
  H   H2080     1.0  0.89218  0.63651  0.37718  1.0000
  C   C2109     1.0  0.72821  0.55767  0.33464  1.0000
  H   H2081     1.0  0.71462  0.51871  0.17679  1.0000
  C   C2110     1.0  0.74650  0.50169  0.07620  1.0000
  C   C2111     1.0  0.90867  0.59547  0.36140  1.0000
  N   N174      1.0  0.89196  0.59161  0.36097  1.0000
  H   H2082     1.0  0.69236  0.70601  0.34595  1.0000
  C   C2112     1.0  0.97099  0.72151  0.44871  1.0000
  S   S716      1.0  0.75691  0.49963  0.14511  1.0000
  H   H2083     1.0  0.74286  0.52274  0.23032  1.0000
  H   H2084     1.0  0.87799  0.57087  0.35888  1.0000
  S   S717      1.0  0.97649  0.52890  0.05481  1.0000
  H   H2085     1.0  0.84301  0.66538  0.14729  1.0000
  C   C2113     1.0  0.83051  0.67434  0.14279  1.0000
  N   N175      1.0  0.75308  0.63308  0.12374  1.0000
  C   C2114     1.0  0.76280  0.62334  0.13754  1.0000
  C   C2115     1.0  0.75328  0.65177  0.11638  1.0000
  C   C2116     1.0  0.77291  0.63236  0.14447  1.0000
  C   C2117     1.0  0.76316  0.66126  0.12307  1.0000
  C   C2118     1.0  0.77304  0.65145  0.13719  1.0000
  C   C2119     1.0  0.74295  0.62307  0.11656  1.0000
  H   H2086     1.0  0.76286  0.60845  0.14314  1.0000
  H   H2087     1.0  0.74551  0.65955  0.10550  1.0000
  H   H2088     1.0  0.78073  0.62451  0.15530  1.0000
  H   H2089     1.0  0.76298  0.67618  0.11751  1.0000
  H   H2090     1.0  0.78079  0.65865  0.14245  1.0000
  H   H2091     1.0  0.73394  0.61504  0.12841  1.0000
  H   H2092     1.0  0.73354  0.63294  0.10743  1.0000
  H   H2093     1.0  0.75322  0.61296  0.10839  1.0000
  C   C2120     1.0  0.70339  0.58536  0.33140  1.0000
  C   C2121     1.0  0.71475  0.57176  0.34250  1.0000
  C   C2122     1.0  0.66679  0.68869  0.17308  1.0000
  H   H2094     1.0  0.69313  0.59665  0.33722  1.0000
  H   H2095     1.0  0.71321  0.57222  0.35712  1.0000
  N   N176      1.0  0.87343  0.61719  0.08276  1.0000
  C   C2123     1.0  0.88143  0.62384  0.09345  1.0000
  C   C2124     1.0  0.88453  0.60739  0.06939  1.0000
  C   C2125     1.0  0.90102  0.62049  0.09114  1.0000
  C   C2126     1.0  0.90419  0.60407  0.06646  1.0000
  C   C2127     1.0  0.91244  0.61056  0.07751  1.0000
  C   C2128     1.0  0.85283  0.62060  0.08590  1.0000
  H   H2096     1.0  0.87263  0.63160  0.10404  1.0000
  H   H2097     1.0  0.87830  0.60173  0.06113  1.0000
  H   H2098     1.0  0.90729  0.62509  0.10020  1.0000
  H   H2099     1.0  0.91294  0.59575  0.05627  1.0000
  H   H2100     1.0  0.92763  0.60737  0.07596  1.0000
  H   H2101     1.0  0.84690  0.61446  0.10072  1.0000
  H   H2102     1.0  0.84689  0.63604  0.08329  1.0000
  H   H2103     1.0  0.84804  0.61424  0.07664  1.0000
  N   N177      1.0  0.69471  0.54492  0.17226  1.0000
  H   H2104     1.0  0.83868  0.71622  0.27065  1.0000
  C   C2129     1.0  0.70233  0.55295  0.18216  1.0000
  H   H2105     1.0  0.91191  0.70864  0.31736  1.0000
  H   H2106     1.0  0.96788  0.53743  0.11355  1.0000
  C   C2130     1.0  0.82910  0.69739  0.22398  1.0000
  C   C2131     1.0  0.70364  0.52607  0.16841  1.0000
  H   H2107     1.0  0.79405  0.50008  0.08704  1.0000
  H   H2108     1.0  0.67326  0.54848  0.15706  1.0000
  H   H2109     1.0  0.79631  0.49028  0.05727  1.0000
  H   H2110     1.0  0.81729  0.70734  0.28123  1.0000
  H   H2111     1.0  0.74582  0.48857  0.36203  1.0000
  H   H2112     1.0  0.69988  0.57729  0.19370  1.0000
  C   C2132     1.0  0.67275  0.64007  0.19270  1.0000
  H   H2113     1.0  0.69301  0.51711  0.17191  1.0000
  N   N178      1.0  0.84660  0.60054  0.24956  1.0000
  C   C2133     1.0  0.84766  0.60134  0.23095  1.0000
  C   C2134     1.0  0.83107  0.59625  0.26272  1.0000
  C   C2135     1.0  0.83282  0.59801  0.22506  1.0000
  C   C2136     1.0  0.81591  0.59301  0.25729  1.0000
  C   C2137     1.0  0.81682  0.59392  0.23833  1.0000
  C   C2138     1.0  0.86233  0.60423  0.25527  1.0000
  H   H2114     1.0  0.85996  0.60472  0.22053  1.0000
  H   H2115     1.0  0.83030  0.59530  0.27751  1.0000
  H   H2116     1.0  0.83365  0.59866  0.21030  1.0000
  H   H2117     1.0  0.80356  0.58972  0.26773  1.0000
  H   H2118     1.0  0.80518  0.59133  0.23393  1.0000
  H   H2119     1.0  0.86581  0.61789  0.24700  1.0000
  C   C2139     1.0  0.67864  0.69490  0.18072  1.0000
  H   H2120     1.0  0.89588  0.57730  0.33892  1.0000
  C   C2140     1.0  0.92857  0.68601  0.30366  1.0000
  H   H2121     1.0  0.88560  0.57522  0.11592  1.0000
  Fe  Fe360     1.0  0.78184  0.52628  0.30437  1.0000
  S   S718      1.0  0.81031  0.51099  0.29145  1.0000
  H   H2122     1.0  0.76621  0.51832  0.24981  1.0000
  H   H2123     1.0  0.73712  0.54694  0.34312  1.0000
  H   H2124     1.0  0.72100  0.70110  0.13025  1.0000
  C   C2141     1.0  0.79834  0.69785  0.13109  1.0000
  H   H2125     1.0  0.97459  0.66709  0.30447  1.0000
  C   C2142     1.0  0.67011  0.57264  0.16881  1.0000
  H   H2126     1.0  0.69725  0.59575  0.30386  1.0000
  H   H2127     1.0  0.97771  0.55379  0.09376  1.0000
  C   C2143     1.0  0.84959  0.52099  0.23317  1.0000
  S   S719      1.0  0.72891  0.67792  0.16544  1.0000
  H   H2128     1.0  0.98209  0.52922  0.09286  1.0000
  H   H2129     1.0  0.78615  0.70705  0.12628  1.0000
  C   C2144     1.0  0.70254  0.66767  0.12220  1.0000
  C   C2145     1.0  0.71654  0.68792  0.13253  1.0000
  C   C2146     1.0  0.71890  0.67408  0.14871  1.0000
  C   C2147     1.0  0.71314  0.65707  0.15162  1.0000
  C   C2148     1.0  0.70463  0.65401  0.13853  1.0000
  C   C2149     1.0  0.70582  0.58479  0.31247  1.0000
  C   C2150     1.0  0.74280  0.48754  0.34907  1.0000
  C   C2151     1.0  0.78270  0.67131  0.18827  1.0000
  H   H2130     1.0  0.90234  0.56241  0.36032  1.0000
  S   S720      1.0  0.75594  0.72091  0.30398  1.0000
  H   H2131     1.0  0.71521  0.64627  0.16401  1.0000
  C   C2152     1.0  0.70658  0.69771  0.34323  1.0000
  H   H2132     1.0  0.91694  0.68420  0.29863  1.0000
  H   H2133     1.0  0.73025  0.66156  0.20675  1.0000
  H   H2134     1.0  0.87940  0.54136  0.24466  1.0000
  C   C2153     1.0  0.87115  0.53839  0.23626  1.0000
  C   C2154     1.0  0.82136  0.69025  0.15060  1.0000
  H   H2135     1.0  0.94852  0.66320  0.29241  1.0000
  C   C2155     1.0  0.68371  0.64594  0.20178  1.0000
  C   C2156     1.0  0.96098  0.67652  0.30705  1.0000
  C   C2157     1.0  0.72065  0.70217  0.34936  1.0000
  C   C2158     1.0  0.80512  0.70191  0.14493  1.0000
  Fe  Fe361     1.0  0.97794  0.49977  0.07233  1.0000
  C   C2159     1.0  0.97343  0.69212  0.32486  1.0000
  C   C2160     1.0  0.73640  0.66228  0.21845  1.0000
  H   H2136     1.0  0.82683  0.69344  0.16111  1.0000
  H   H2137     1.0  0.82458  0.70275  0.21068  1.0000
  C   C2161     1.0  0.87074  0.54872  0.21802  1.0000
  C   C2162     1.0  0.94629  0.67430  0.30008  1.0000
  H   H2138     1.0  0.78651  0.49930  0.18807  1.0000
  H   H2139     1.0  0.69158  0.69847  0.17179  1.0000
  S   S721      1.0  0.74783  0.72478  0.13491  1.0000
  S   S722      1.0  0.76453  0.51395  0.33200  1.0000
  H   H2140     1.0  0.87894  0.55962  0.21193  1.0000
  H   H2141     1.0  0.71044  0.52720  0.15330  1.0000
  C   C2163     1.0  0.72184  0.57075  0.28490  1.0000
  H   H2142     1.0  0.84011  0.53408  0.18980  1.0000
  C   C2164     1.0  0.70862  0.68457  0.11909  1.0000
  H   H2143     1.0  0.85427  0.65851  0.24811  1.0000
  S   S723      1.0  0.70789  0.73263  0.16648  1.0000
  C   C2165     1.0  0.77411  0.68889  0.21303  1.0000
  C   C2166     1.0  0.98048  0.53917  0.10208  1.0000
  H   H2144     1.0  0.68323  0.69052  0.32718  1.0000
  H   H2145     1.0  0.79894  0.69004  0.19086  1.0000
  H   H2146     1.0  0.75761  0.66942  0.33293  1.0000
  H   H2147     1.0  0.74076  0.54651  0.30974  1.0000
  C   C2167     1.0  0.67757  0.64694  0.22080  1.0000
  C   C2168     1.0  0.73906  0.69187  0.34572  1.0000
  C   C2169     1.0  0.94072  0.70150  0.32101  1.0000
  C   C2170     1.0  0.72880  0.67325  0.32996  1.0000
  H   H2148     1.0  0.66481  0.51354  0.36412  1.0000
  S   S724      1.0  0.79332  0.72123  0.15557  1.0000
  S   S725      1.0  0.96004  0.72811  0.35584  1.0000
  H   H2149     1.0  0.84586  0.67929  0.27097  1.0000
  Fe  Fe362     1.0  0.76231  0.72863  0.15584  1.0000
  H   H2150     1.0  0.70691  0.69518  0.10646  1.0000
  H   H2151     1.0  0.71597  0.58470  0.27672  1.0000
  N   N179      1.0  0.71081  0.68357  0.33344  1.0000
  H   H2152     1.0  0.82156  0.53646  0.21021  1.0000
  S   S726      1.0  0.78833  0.52083  0.14905  1.0000
  H   H2153     1.0  0.98856  0.51353  0.13226  1.0000
  H   H2154     1.0  0.80983  0.49451  0.20775  1.0000
  H   H2155     1.0  0.85914  0.55319  0.19362  1.0000
  H   H2156     1.0  0.76287  0.65500  0.18851  1.0000
  S   S727      1.0  0.95555  0.71402  0.40177  1.0000
  N   N180      1.0  0.84899  0.53138  0.21541  1.0000
  H   H2157     1.0  0.71488  0.55992  0.28354  1.0000
  Fe  Fe363     1.0  0.77597  0.72010  0.32168  1.0000
  C   C2171     1.0  0.75000  0.49882  0.33205  1.0000
  H   H2158     1.0  0.74785  0.68595  0.23227  1.0000
  C   C2172     1.0  0.74322  0.67731  0.33596  1.0000
  H   H2159     1.0  0.93829  0.71182  0.32966  1.0000
  H   H2160     1.0  0.81707  0.72829  0.26304  1.0000
  Fe  Fe364     1.0  0.72551  0.73584  0.18490  1.0000
  H   H2161     1.0  0.83569  0.51351  0.20749  1.0000
  S   S728      1.0  0.67139  0.62070  0.14144  1.0000
  C   C2173     1.0  0.98074  0.71236  0.46315  1.0000
  H   H2162     1.0  0.74949  0.50327  0.06070  1.0000
  H   H2163     1.0  0.98231  0.69722  0.46819  1.0000
  S   S729      1.0  0.65967  0.72003  0.28502  1.0000
  H   H2164     1.0  0.71888  0.72352  0.29907  1.0000
  H   H2165     1.0  0.86252  0.49890  0.02984  1.0000
  H   H2166     1.0  0.96508  0.71320  0.44272  1.0000
  C   C2174     1.0  0.73050  0.73282  0.24561  1.0000
  H   H2167     1.0  0.75139  0.49185  0.11125  1.0000
  C   C2175     1.0  0.73338  0.73535  0.22605  1.0000
  C   C2176     1.0  0.74463  0.73439  0.25388  1.0000
  H   H2168     1.0  0.66258  0.48823  0.34985  1.0000
  S   S730      1.0  0.71473  0.73617  0.21559  1.0000
  Fe  Fe365     1.0  0.77219  0.76261  0.31331  1.0000
  H   H2169     1.0  0.87717  0.95658  0.33331  1.0000
  S   S731      1.0  0.78658  0.78511  0.31513  1.0000
  H   H2170     1.0  0.68375  0.74495  0.25126  1.0000
  C   C2177     1.0  0.69464  0.73909  0.31528  1.0000
  C   C2178     1.0  0.91772  0.97323  0.46331  1.0000
  H   H2171     1.0  0.70101  0.80391  0.09374  1.0000
  C   C2179     1.0  0.66437  0.73756  0.31044  1.0000
  Fe  Fe366     1.0  0.77031  0.74260  0.28307  1.0000
  H   H2172     1.0  0.98827  0.78027  0.36629  1.0000
  S   S732      1.0  0.75162  0.76743  0.29454  1.0000
  H   H2173     1.0  0.84817  0.85381  0.43423  1.0000
  S   S733      1.0  0.77941  0.74106  0.25245  1.0000
  H   H2174     1.0  0.85502  0.76459  0.39676  1.0000
  H   H2175     1.0  0.78115  0.97820  0.21408  1.0000
  S   S734      1.0  0.74201  0.75499  0.16254  1.0000
  S   S735      1.0  0.88113  0.93018  0.46829  1.0000
  C   C2180     1.0  0.83774  0.81776  0.46444  1.0000
  H   H2176     1.0  0.96247  0.96717  0.43752  1.0000
  Fe  Fe367     1.0  0.72605  0.74983  0.14336  1.0000
  S   S736      1.0  0.71479  0.77588  0.12330  1.0000
  C   C2181     1.0  0.67960  0.95423  0.17689  1.0000
  C   C2182     1.0  0.81723  0.88789  0.45523  1.0000
  Fe  Fe368     1.0  0.80993  0.82222  0.39264  1.0000
  S   S737      1.0  0.84031  0.81197  0.38020  1.0000
  S   S738      1.0  0.78694  0.80889  0.39032  1.0000
  Fe  Fe369     1.0  0.84269  0.84207  0.37604  1.0000
  S   S739      1.0  0.85946  0.85797  0.35051  1.0000
  S   S740      1.0  0.81180  0.85287  0.38614  1.0000
  Fe  Fe370     1.0  0.93066  0.90330  0.36174  1.0000
  S   S741      1.0  0.95205  0.91711  0.36580  1.0000
  S   S742      1.0  0.92239  0.87667  0.37981  1.0000
  Fe  Fe371     1.0  0.92464  0.93042  0.32501  1.0000
  S   S743      1.0  0.94619  0.94631  0.32507  1.0000
  S   S744      1.0  0.90471  0.93500  0.30566  1.0000
  Fe  Fe372     1.0  0.96361  0.91752  0.33500  1.0000
  H   H2177     1.0  0.86244  0.98409  0.27051  1.0000
  Fe  Fe373     1.0  0.93297  0.94452  0.35579  1.0000
  C   C2183     1.0  0.95611  0.83203  0.36680  1.0000
  S   S745      1.0  0.94327  0.90202  0.33172  1.0000
  S   S746      1.0  0.91035  0.93040  0.35501  1.0000
  C   C2184     1.0  0.85478  0.86890  0.45156  1.0000
  H   H2178     1.0  0.82825  0.77375  0.42011  1.0000
  C   C2185     1.0  0.89106  0.98585  0.33230  1.0000
  S   S747      1.0  0.94810  0.77001  0.38253  1.0000
  C   C2186     1.0  0.92585  0.86797  0.31417  1.0000
  C   C2187     1.0  0.74773  0.98630  0.25015  1.0000
  H   H2179     1.0  0.95519  0.76491  0.42507  1.0000
  C   C2188     1.0  0.90100  0.85176  0.31722  1.0000
  C   C2189     1.0  0.88056  0.91104  0.42376  1.0000
  H   H2180     1.0  0.92169  0.96808  0.29423  1.0000
  H   H2181     1.0  0.89534  0.91154  0.28385  1.0000
  H   H2182     1.0  0.66917  0.91398  0.15519  1.0000
  C   C2190     1.0  0.67218  0.93986  0.17456  1.0000
  C   C2191     1.0  0.88596  0.77954  0.41171  1.0000
  C   C2192     1.0  0.89428  0.79491  0.40184  1.0000
  H   H2183     1.0  0.67217  0.74890  0.10271  1.0000
  N   N181      1.0  0.89783  0.88467  0.30262  1.0000
  C   C2193     1.0  0.96349  0.97952  0.38537  1.0000
  H   H2184     1.0  0.78232  0.95933  0.27292  1.0000
  H   H2185     1.0  0.87846  0.91031  0.30581  1.0000
  H   H2186     1.0  0.88170  0.90108  0.43740  1.0000
  H   H2187     1.0  0.97818  0.76541  0.44205  1.0000
  H   H2188     1.0  0.86929  0.86137  0.45019  1.0000
  C   C2194     1.0  0.91339  0.79192  0.39291  1.0000
  H   H2189     1.0  0.75636  0.95639  0.26003  1.0000
  H   H2190     1.0  0.94359  0.97827  0.46649  1.0000
  H   H2191     1.0  0.91981  0.80387  0.38547  1.0000
  H   H2192     1.0  0.88608  0.80910  0.40142  1.0000
  C   C2195     1.0  0.91515  0.88455  0.30543  1.0000
  H   H2193     1.0  0.92067  0.89739  0.30117  1.0000
  H   H2194     1.0  0.89489  0.83927  0.32248  1.0000
  H   H2195     1.0  0.77833  0.74247  0.21437  1.0000
  H   H2196     1.0  0.81946  0.91995  0.41659  1.0000
  C   C2196     1.0  0.84794  0.91668  0.41997  1.0000
  S   S748      1.0  0.85038  0.83848  0.40378  1.0000
  C   C2197     1.0  0.66489  0.95824  0.14557  1.0000
  N   N182      1.0  0.91989  0.96055  0.43641  1.0000
  C   C2198     1.0  0.89802  0.95783  0.29255  1.0000
  H   H2197     1.0  0.88552  0.88572  0.40286  1.0000
  C   C2199     1.0  0.81896  0.82730  0.46742  1.0000
  H   H2198     1.0  0.80262  0.89517  0.45682  1.0000
  C   C2200     1.0  0.93882  0.96024  0.43135  1.0000
  Fe  Fe374     1.0  0.96108  0.73985  0.37996  1.0000
  H   H2199     1.0  0.79998  0.76543  0.39065  1.0000
  H   H2200     1.0  0.67159  0.92727  0.18555  1.0000
  C   C2201     1.0  0.84282  0.86464  0.44239  1.0000
  H   H2201     1.0  0.87689  0.92572  0.42616  1.0000
  C   C2202     1.0  0.87817  0.86248  0.35730  1.0000
  C   C2203     1.0  0.88749  0.84888  0.37026  1.0000
  C   C2204     1.0  0.90123  0.85316  0.37709  1.0000
  C   C2205     1.0  0.90616  0.87083  0.37038  1.0000
  C   C2206     1.0  0.89756  0.88404  0.35663  1.0000
  C   C2207     1.0  0.88339  0.87998  0.35029  1.0000
  H   H2202     1.0  0.88397  0.83509  0.37513  1.0000
  H   H2203     1.0  0.90783  0.84284  0.38770  1.0000
  H   H2204     1.0  0.90138  0.89763  0.35122  1.0000
  H   H2205     1.0  0.87614  0.89057  0.34034  1.0000
  H   H2206     1.0  0.95371  0.86066  0.35109  1.0000
  H   H2207     1.0  0.96011  0.96146  0.36875  1.0000
  H   H2208     1.0  0.87648  0.86887  0.30729  1.0000
  C   C2208     1.0  0.95306  0.97214  0.37699  1.0000
  H   H2209     1.0  0.82823  0.89552  0.39718  1.0000
  H   H2210     1.0  0.73227  0.78449  0.22773  1.0000
  C   C2209     1.0  0.89063  0.86861  0.30855  1.0000
  Fe  Fe375     1.0  0.81945  0.84721  0.41437  1.0000
  C   C2210     1.0  0.69976  0.77550  0.10898  1.0000
  C   C2211     1.0  0.69473  0.79187  0.09575  1.0000
  C   C2212     1.0  0.68141  0.79291  0.08527  1.0000
  C   C2213     1.0  0.67311  0.77751  0.08784  1.0000
  C   C2214     1.0  0.67846  0.76091  0.10075  1.0000
  C   C2215     1.0  0.69169  0.75993  0.11141  1.0000
  H   H2211     1.0  0.87301  0.95184  0.28832  1.0000
  S   S749      1.0  0.75737  0.74261  0.33670  1.0000
  H   H2212     1.0  0.69207  0.80657  0.14278  1.0000
  C   C2216     1.0  0.66461  0.84270  0.11805  1.0000
  H   H2213     1.0  0.86148  0.87846  0.39022  1.0000
  N   N183      1.0  0.86626  0.90730  0.41592  1.0000
  H   H2214     1.0  0.93944  0.86806  0.31659  1.0000
  C   C2217     1.0  0.91867  0.85150  0.32015  1.0000
  Fe  Fe376     1.0  0.85732  0.95514  0.46950  1.0000
  C   C2218     1.0  0.85762  0.88943  0.39833  1.0000
  H   H2215     1.0  0.92655  0.83866  0.32740  1.0000
  H   H2216     1.0  0.92373  0.74396  0.40351  1.0000
  C   C2219     1.0  0.78633  0.79161  0.33619  1.0000
  C   C2220     1.0  0.79902  0.80260  0.33600  1.0000
  C   C2221     1.0  0.79931  0.80808  0.35245  1.0000
  C   C2222     1.0  0.78663  0.80291  0.36915  1.0000
  C   C2223     1.0  0.77388  0.79200  0.36933  1.0000
  C   C2224     1.0  0.77384  0.78620  0.35297  1.0000
  H   H2217     1.0  0.80867  0.80689  0.32305  1.0000
  H   H2218     1.0  0.80920  0.81646  0.35213  1.0000
  H   H2219     1.0  0.76401  0.78796  0.38220  1.0000
  H   H2220     1.0  0.76394  0.77785  0.35325  1.0000
  H   H2221     1.0  0.94298  0.83507  0.37680  1.0000
  C   C2225     1.0  0.67496  0.74386  0.31950  1.0000
  C   C2226     1.0  0.87540  0.98062  0.27558  1.0000
  S   S750      1.0  0.70713  0.74836  0.32635  1.0000
  S   S751      1.0  0.81456  0.81758  0.42200  1.0000
  S   S752      1.0  0.85839  0.97715  0.44291  1.0000
  C   C2227     1.0  0.82195  0.76223  0.36622  1.0000
  H   H2222     1.0  0.90861  0.93915  0.43232  1.0000
  H   H2223     1.0  0.67778  0.80556  0.07503  1.0000
  C   C2228     1.0  0.91083  0.95357  0.42525  1.0000
  C   C2229     1.0  0.88141  0.96237  0.28566  1.0000
  C   C2230     1.0  0.94758  0.96682  0.44195  1.0000
  C   C2231     1.0  0.90880  0.97151  0.28906  1.0000
  C   C2232     1.0  0.91569  0.75818  0.40314  1.0000
  H   H2224     1.0  0.68879  0.84099  0.12928  1.0000
  S   S753      1.0  0.80835  0.86820  0.43370  1.0000
  N   N184      1.0  0.66500  0.94197  0.15902  1.0000
  H   H2225     1.0  0.97860  0.97452  0.38351  1.0000
  C   C2233     1.0  0.84563  0.76392  0.38825  1.0000
  C   C2234     1.0  0.84110  0.76121  0.35853  1.0000
  C   C2235     1.0  0.67893  0.83337  0.12784  1.0000
  C   C2236     1.0  0.85021  0.82132  0.47346  1.0000
  C   C2237     1.0  0.76504  0.73966  0.22316  1.0000
  H   H2226     1.0  0.84391  0.92697  0.42890  1.0000
  C   C2238     1.0  0.89672  0.76118  0.41245  1.0000
  H   H2227     1.0  0.73511  0.78536  0.25964  1.0000
  C   C2239     1.0  0.96207  0.84640  0.35225  1.0000
  C   C2240     1.0  0.93693  0.97327  0.45808  1.0000
  H   H2228     1.0  0.89033  0.74924  0.42002  1.0000
  H   H2229     1.0  0.94720  0.95521  0.41886  1.0000
  C   C2241     1.0  0.81898  0.76768  0.41497  1.0000
  H   H2230     1.0  0.89456  0.90928  0.41402  1.0000
  H   H2231     1.0  0.81245  0.76186  0.35767  1.0000
  C   C2242     1.0  0.90942  0.96666  0.45232  1.0000
  C   C2243     1.0  0.83406  0.91283  0.41302  1.0000
  H   H2232     1.0  0.68397  0.76469  0.28289  1.0000
  C   C2244     1.0  0.88635  0.90245  0.29453  1.0000
  C   C2245     1.0  0.92411  0.77353  0.39349  1.0000
  S   S754      1.0  0.86217  0.78304  0.42323  1.0000
  Fe  Fe377     1.0  0.73858  0.74531  0.31675  1.0000
  N   N185      1.0  0.69299  0.76870  0.25315  1.0000
  C   C2246     1.0  0.69437  0.76927  0.27074  1.0000
  C   C2247     1.0  0.70615  0.77451  0.23777  1.0000
  C   C2248     1.0  0.70940  0.77542  0.27336  1.0000
  C   C2249     1.0  0.72142  0.78070  0.23986  1.0000
  C   C2250     1.0  0.72307  0.78105  0.25780  1.0000
  H   H2233     1.0  0.89701  0.97336  0.34163  1.0000
  S   S755      1.0  0.91997  0.97001  0.36896  1.0000
  H   H2234     1.0  0.70539  0.77356  0.22386  1.0000
  H   H2235     1.0  0.98432  0.85374  0.32878  1.0000
  H   H2236     1.0  0.90926  0.97798  0.47592  1.0000
  H   H2237     1.0  0.91948  0.95311  0.41089  1.0000
  C   C2251     1.0  0.68067  0.81412  0.13557  1.0000
  C   C2252     1.0  0.76184  0.73805  0.24263  1.0000
  C   C2253     1.0  0.87114  0.89363  0.40549  1.0000
  N   N186      1.0  0.82671  0.76550  0.39549  1.0000
  H   H2238     1.0  0.66784  0.75291  0.32944  1.0000
  H   H2239     1.0  0.68463  0.95282  0.18955  1.0000
  H   H2240     1.0  0.86484  0.81403  0.47091  1.0000
  H   H2241     1.0  0.87616  0.89996  0.28750  1.0000
  C   C2254     1.0  0.82926  0.89226  0.46435  1.0000
  C   C2255     1.0  0.93361  0.97879  0.37914  1.0000
  H   H2242     1.0  0.75325  0.74026  0.19978  1.0000
  C   C2256     1.0  0.81497  0.76428  0.38487  1.0000
  C   C2257     1.0  0.82395  0.87399  0.44428  1.0000
  C   C2258     1.0  0.83897  0.89911  0.40213  1.0000
  Fe  Fe378     1.0  0.84504  0.80941  0.40900  1.0000
  C   C2259     1.0  0.84801  0.88256  0.46271  1.0000
  C   C2260     1.0  0.77375  0.97188  0.26610  1.0000
  H   H2243     1.0  0.84268  0.80794  0.45494  1.0000
  H   H2244     1.0  0.80503  0.77758  0.41612  1.0000
  C   C2261     1.0  0.67201  0.97298  0.14756  1.0000
  H   H2245     1.0  0.82387  0.90273  0.47305  1.0000
  H   H2246     1.0  0.89703  0.96306  0.42354  1.0000
  C   C2262     1.0  0.86640  0.96994  0.33224  1.0000
  H   H2247     1.0  0.71060  0.77541  0.28744  1.0000
  C   C2263     1.0  0.96032  0.74949  0.42581  1.0000
  H   H2248     1.0  0.66560  0.76185  0.26244  1.0000
  H   H2249     1.0  0.84658  0.75995  0.34397  1.0000
  C   C2264     1.0  0.75905  0.97022  0.25881  1.0000
  C   C2265     1.0  0.96745  0.81388  0.36867  1.0000
  C   C2266     1.0  0.67829  0.76030  0.25093  1.0000
  H   H2250     1.0  0.89452  0.96651  0.45661  1.0000
  H   H2251     1.0  0.81736  0.75379  0.42421  1.0000
  N   N187      1.0  0.96973  0.74044  0.44161  1.0000
  H   H2252     1.0  0.86804  0.76110  0.36384  1.0000
  C   C2267     1.0  0.85309  0.76192  0.36962  1.0000
  H   H2253     1.0  0.69552  0.74724  0.12158  1.0000
  C   C2268     1.0  0.97918  0.84248  0.33970  1.0000
  C   C2269     1.0  0.66806  0.80440  0.13332  1.0000
  H   H2254     1.0  0.80920  0.82517  0.46015  1.0000
  C   C2270     1.0  0.98833  0.74190  0.46264  1.0000
  N   N188      1.0  0.98430  0.81019  0.35641  1.0000
  H   H2255     1.0  0.66990  0.78933  0.13895  1.0000
  H   H2256     1.0  0.98177  0.88178  0.35854  1.0000
  H   H2257     1.0  0.68430  0.98253  0.16544  1.0000
  S   S756      1.0  0.86305  0.88571  0.47561  1.0000
  H   H2258     1.0  0.67383  0.76696  0.23736  1.0000
  C   C2271     1.0  0.67942  0.97092  0.16333  1.0000
  S   S757      1.0  0.79204  0.73971  0.29954  1.0000
  H   H2259     1.0  0.85685  0.97047  0.34618  1.0000
  C   C2272     1.0  0.75082  0.73838  0.21488  1.0000
  C   C2273     1.0  0.97841  0.75061  0.44824  1.0000
  H   H2260     1.0  0.96280  0.80284  0.38015  1.0000
  C   C2274     1.0  0.99034  0.82427  0.34220  1.0000
  H   H2261     1.0  0.66301  0.85770  0.11199  1.0000
  H   H2262     1.0  0.70900  0.98344  0.28180  1.0000
  H   H2263     1.0  0.97026  0.74728  0.41241  1.0000
  H   H2264     1.0  0.68597  0.87507  0.98174  1.0000
  H   H2265     1.0  0.73712  0.98648  0.29150  1.0000
  H   H2266     1.0  0.94783  0.74352  0.42709  1.0000
  H   H2267     1.0  0.85821  0.96951  0.32204  1.0000
  C   C2275     1.0  0.81286  0.84015  0.47933  1.0000
  S   S758      1.0  0.72937  0.98322  0.24143  1.0000
  H   H2268     1.0  0.67130  0.98613  0.13725  1.0000
  N   N189      1.0  0.87541  0.98632  0.32596  1.0000
  H   H2269     1.0  0.65896  0.96006  0.13337  1.0000
  H   H2270     1.0  0.88168  0.93293  0.53319  1.0000
  S   S759      1.0  0.90254  0.94859  0.58236  1.0000
  Fe  Fe379     1.0  0.92278  0.96250  0.58850  1.0000
  H   H2271     1.0  0.87866  0.93725  0.56533  1.0000
  H   H2272     1.0  0.93673  0.94621  0.51740  1.0000
  Fe  Fe380     1.0  0.88374  0.93411  0.49588  1.0000
  S   S760      1.0  0.91165  0.93585  0.50044  1.0000
  S   S761      1.0  0.86412  0.91485  0.51259  1.0000
  S   S762      1.0  0.86162  0.96048  0.49585  1.0000
  C   C2276     1.0  0.90557  0.94517  0.55946  1.0000
  C   C2277     1.0  0.92195  0.94774  0.54590  1.0000
  Fe  Fe381     1.0  0.84149  0.94128  0.51046  1.0000
  H   H2273     1.0  0.67824  0.92374  0.90845  1.0000
  C   C2278     1.0  0.89121  0.93961  0.55484  1.0000
  C   C2279     1.0  0.80730  0.97491  0.55758  1.0000
  H   H2274     1.0  0.86277  0.97390  0.60984  1.0000
  C   C2280     1.0  0.69121  0.98348  0.88447  1.0000
  C   C2281     1.0  0.95437  0.91698  0.57646  1.0000
  Fe  Fe382     1.0  0.96206  0.96176  0.59273  1.0000
  H   H2275     1.0  0.80566  0.96344  0.56964  1.0000
  C   C2282     1.0  0.92396  0.94455  0.52782  1.0000
  H   H2276     1.0  0.82097  0.85390  0.49680  1.0000
  H   H2277     1.0  0.97719  0.91860  0.60963  1.0000
  C   C2283     1.0  0.68936  0.89938  0.95928  1.0000
  H   H2278     1.0  0.93315  0.95187  0.54939  1.0000
  H   H2279     1.0  0.99088  0.88432  0.61751  1.0000
  H   H2280     1.0  0.69437  0.90645  0.96732  1.0000
  C   C2284     1.0  0.89295  0.93703  0.53665  1.0000
  C   C2285     1.0  0.97206  0.92008  0.56624  1.0000
  H   H2281     1.0  0.96538  0.86927  0.58927  1.0000
  S   S763      1.0  0.83502  0.93813  0.48386  1.0000
  C   C2286     1.0  0.82572  0.84342  0.48805  1.0000
  C   C2287     1.0  0.95194  0.89861  0.58473  1.0000
  C   C2288     1.0  0.90938  0.93932  0.52315  1.0000
  S   S764      1.0  0.94713  0.97377  0.56862  1.0000
  C   C2289     1.0  0.67574  0.88199  0.93875  1.0000
  H   H2282     1.0  0.66353  0.90776  0.91010  1.0000
  H   H2283     1.0  0.94257  0.92876  0.57811  1.0000
  C   C2290     1.0  0.81500  0.97092  0.53962  1.0000
  H   H2284     1.0  0.66975  0.87539  0.93108  1.0000
  S   S765      1.0  0.93837  0.94843  0.61182  1.0000
  H   H2285     1.0  0.87063  0.84026  0.48372  1.0000
  S   S766      1.0  0.82052  0.94739  0.53684  1.0000
  H   H2286     1.0  0.69041  0.92184  0.93486  1.0000
  H   H2287     1.0  0.97422  0.93435  0.56011  1.0000
  C   C2291     1.0  0.67757  0.90852  0.91185  1.0000
  C   C2292     1.0  0.68697  0.90804  0.94096  1.0000
  H   H2288     1.0  0.93886  0.98432  0.52826  1.0000
  H   H2289     1.0  0.91474  0.98297  0.69013  1.0000
  H   H2290     1.0  0.86104  0.97274  0.54830  1.0000
  C   C2293     1.0  0.85645  0.97797  0.57626  1.0000
  Fe  Fe383     1.0  0.92743  0.97624  0.62113  1.0000
  H   H2291     1.0  0.86312  0.96367  0.58186  1.0000
  C   C2294     1.0  0.85756  0.83765  0.49413  1.0000
  H   H2292     1.0  0.68481  0.97962  0.91464  1.0000
  S   S767      1.0  0.67971  0.96605  0.88375  1.0000
  N   N190      1.0  0.84415  0.83412  0.48496  1.0000
  N   N191      1.0  0.68002  0.89941  0.93104  1.0000
  S   S768      1.0  0.91154  0.97966  0.65029  1.0000
  H   H2293     1.0  0.91622  0.98304  0.50985  1.0000
  C   C2295     1.0  0.68482  0.88170  0.96732  1.0000
  H   H2294     1.0  0.83723  0.98002  0.61592  1.0000
  C   C2296     1.0  0.67806  0.87289  0.95698  1.0000
  H   H2295     1.0  0.76677  0.97168  0.55973  1.0000
  H   H2296     1.0  0.93819  0.89615  0.59269  1.0000
  H   H2297     1.0  0.67388  0.85944  0.96334  1.0000
  H   H2298     1.0  0.86112  0.82540  0.50548  1.0000
  H   H2299     1.0  0.85182  0.85050  0.50028  1.0000
  C   C2297     1.0  0.98713  0.90467  0.56443  1.0000
  Fe  Fe384     1.0  0.85937  0.91326  0.48472  1.0000
  H   H2300     1.0  0.93147  0.98378  0.70326  1.0000
  H   H2301     1.0  0.79845  0.84812  0.48112  1.0000
  C   C2298     1.0  0.75330  0.98257  0.58477  1.0000
  C   C2299     1.0  0.96734  0.88353  0.58273  1.0000
  C   C2300     1.0  0.85539  0.98303  0.55727  1.0000
  H   H2302     1.0  0.82293  0.98286  0.51015  1.0000
  N   N192      1.0  0.98468  0.88670  0.57281  1.0000
  C   C2301     1.0  0.75986  0.98430  0.56533  1.0000
  H   H2303     1.0  0.75506  0.96881  0.59409  1.0000
  H   H2304     1.0  0.68871  0.90139  0.90156  1.0000
  C   C2302     1.0  0.81717  0.98579  0.52409  1.0000
  C   C2303     1.0  0.85013  0.98519  0.60757  1.0000
  C   C2304     1.0  0.99172  0.91323  0.60358  1.0000
