data_image0
_chemical_formula_structural       CSCFeH3SC2H2NH2FeS2FeHSFeCFeS2C4HCHC2HC2HNC3HCH5CHC4HSNS2CH3NH2CH2C2H3FeSNH3FeSHS2FeS2FeS2FeSFeS3C2NC3H4C5H3C6HC2HC6H4CHCHNC3HC2HCHCHC3HNC2HCH2C4HSH2C2H4CSH3CSH6CH2CH2FeHNHCHCHCH3C4FeHSHC2HCHFeS2FeS2FeCFeS3HC6H4CSH2C5H7C3H2CHCNHC3HSCH4NHC3NC2H2CHC4FeH2CH2C3SH3CH2CHCHS2CHSC2HCHC4HFeSHFeS2FeSCSCFeCFeC2NSFeCSH3FeSCSCFeS2FeS2FeSFeS3HSHC2HC2HC5HCH3C6H4C5FeCHCHCSHCSC3H2C4SC3H3SHC6H5CSHCNC6H8NH2FeH3CH3CH4C2H2FeHNC2H2CHCH2NH2SCHCH4CHCHC3SC2H2CHSCH2NCSFeS2FeS2FeSFeS3H4FeS2FeS2FeSFeS3FeS2FeCSHFeHS2HC6H4CSH5CHC2HC3FeSC2HCHC6H4C4H4N2HC3HSHC2H4C2SHSHSH2NC3H6SFeHCHN2H2NCHSCNC6H7FeHCHC4HFeHNH2C2HC3H3CH4C6H4C3H2CH3C6HSFeC3HCH2NSFeS2CH2FeSHSFeSHFeS2HFeSCSFeS2FeS2FeSFeS3HC5NH2C7H5C6H2C7H4CSCHCHC4HCH2FeH2NH3FeH2C4NHNC6H7SCH2CH2SHNH2C2HSH3CHCHCH2CHCH2CNHCHCH2C3HSH2C2HC4HCH2SNH2CHCHS2FeS2HFeS2FeS2FeSFeS3FeS2FeS2FeSFeS3FeS2FeS2FeSHSC7H4C6H4CHC5H2NC4H6C2HCSHCH2C3H4C6H3FeH2C2FeCH2SCHCH2CHC3HCNHC2NC6H4CH6C3H2C2H4FeH3C7H4C2HCH2CHC2HNHFeHC2H2C2H2SCH3SHC2FeHCH2C2HCSC3HCHCSH2SFeS2FeS2FeSFeS3C6H6C3H3C6H4C2HC2HCHC2SH5CH4C2HC2FeH2CH2CH2NCHC2H2C2HC2HCSCSNCHCHCHCH3NHC3Fe2HNHCH2CFeHCFeS2FeS2FeSFeS3CFeS2FeS2FeHFeS3C6H4C6H2CHCSCH2C6H4C5H2CHC4HCH2CHSH2CHC3HCHC3H3SH2NC6H5NHNC6H8NCH6CHCHCHCH2CH2CH3CHC2HSC2SCFeH2CSH2CHFeCHCNH2S2H2FeSH2C5FeCSCHCNSCSHCHSCH4C
_chemical_formula_sum              "C576 S192 Fe96 H576 N48"
_cell_length_a       58.3414
_cell_length_b       57.6877
_cell_length_c       40.7042
_cell_angle_alpha    91.1789
_cell_angle_beta     91.5372
_cell_angle_gamma    118.625

_space_group_name_H-M_alt    "P 1"
_space_group_IT_number       1

loop_
  _space_group_symop_operation_xyz
  'x, y, z'

loop_
  _atom_site_type_symbol
  _atom_site_label
  _atom_site_symmetry_multiplicity
  _atom_site_fract_x
  _atom_site_fract_y
  _atom_site_fract_z
  _atom_site_occupancy
  C   C1        1.0  0.31634  0.47958  0.34536  1.0000
  S   S1        1.0  0.27532  0.45053  0.49010  1.0000
  C   C2        1.0  0.30605  0.47975  0.40239  1.0000
  Fe  Fe1       1.0  0.31811  0.45971  0.49335  1.0000
  H   H1        1.0  0.30024  0.44493  0.37459  1.0000
  H   H2        1.0  0.29876  0.46907  0.42470  1.0000
  H   H3        1.0  0.22634  0.45138  0.48843  1.0000
  S   S2        1.0  0.33434  0.44792  0.45008  1.0000
  C   C3        1.0  0.30670  0.46595  0.37405  1.0000
  C   C4        1.0  0.32508  0.50671  0.34526  1.0000
  H   H4        1.0  0.31764  0.46932  0.32342  1.0000
  H   H5        1.0  0.22411  0.39051  0.49773  1.0000
  N   N1        1.0  0.31496  0.50642  0.40217  1.0000
  H   H6        1.0  0.30409  0.50752  0.45192  1.0000
  H   H7        1.0  0.26552  0.39590  0.51069  1.0000
  Fe  Fe2       1.0  0.11069  0.43965  0.62581  1.0000
  S   S3        1.0  0.11520  0.48060  0.62880  1.0000
  S   S4        1.0  0.07167  0.40179  0.62969  1.0000
  Fe  Fe3       1.0  0.16869  0.45964  0.60833  1.0000
  H   H8        1.0  0.18741  0.49151  0.82077  1.0000
  S   S5        1.0  0.20299  0.45082  0.60422  1.0000
  Fe  Fe4       1.0  0.15380  0.49231  0.65535  1.0000
  C   C5        1.0  0.01790  0.37371  0.63068  1.0000
  Fe  Fe5       1.0  0.13745  0.48640  0.58303  1.0000
  S   S6        1.0  0.14787  0.45085  0.65632  1.0000
  S   S7        1.0  0.13110  0.44483  0.57804  1.0000
  C   C6        1.0  0.24985  0.45943  0.57971  1.0000
  C   C7        1.0  0.21235  0.49759  0.87858  1.0000
  C   C8        1.0  0.15171  0.50200  0.75020  1.0000
  C   C9        1.0  0.20851  0.50231  0.81935  1.0000
  H   H9        1.0  0.26644  0.37976  0.54777  1.0000
  C   C10       1.0  0.22492  0.45654  0.57191  1.0000
  H   H10       1.0  0.07552  0.46893  0.56491  1.0000
  C   C11       1.0  0.06960  0.44815  0.55715  1.0000
  C   C12       1.0  0.23321  0.45407  0.51389  1.0000
  H   H11       1.0  0.13525  0.48405  0.79586  1.0000
  C   C13       1.0  0.23427  0.39531  0.57981  1.0000
  C   C14       1.0  0.22021  0.39071  0.52361  1.0000
  H   H12       1.0  0.28517  0.46126  0.56141  1.0000
  N   N2        1.0  0.23875  0.39381  0.54720  1.0000
  C   C15       1.0  0.03633  0.42120  0.63410  1.0000
  C   C16       1.0  0.04003  0.39899  0.63214  1.0000
  C   C17       1.0  0.21700  0.45461  0.53875  1.0000
  H   H13       1.0  0.05310  0.44076  0.63549  1.0000
  C   C18       1.0  0.25773  0.45600  0.52179  1.0000
  H   H14       1.0  0.20721  0.47653  0.88078  1.0000
  H   H15       1.0  0.19436  0.49957  0.88073  1.0000
  H   H16       1.0  0.20783  0.39657  0.61525  1.0000
  H   H17       1.0  0.19783  0.45216  0.53230  1.0000
  H   H18       1.0  0.04351  0.39575  0.55402  1.0000
  C   C19       1.0  0.03078  0.40464  0.55282  1.0000
  H   H19       1.0  0.13922  0.48457  0.73505  1.0000
  C   C20       1.0  0.26630  0.45951  0.55485  1.0000
  C   C21       1.0  0.26387  0.39619  0.53784  1.0000
  C   C22       1.0  0.21084  0.39395  0.58952  1.0000
  C   C23       1.0  0.02514  0.44278  0.55429  1.0000
  H   H20       1.0  0.25619  0.46092  0.60525  1.0000
  S   S8        1.0  0.34037  0.44886  0.53027  1.0000
  N   N3        1.0  0.22422  0.50715  0.84698  1.0000
  S   S9        1.0  0.13105  0.50583  0.53897  1.0000
  S   S10       1.0  0.17644  0.50160  0.60920  1.0000
  C   C24       1.0  0.14946  0.50178  0.78460  1.0000
  H   H21       1.0  0.17422  0.39113  0.57291  1.0000
  H   H22       1.0  0.24924  0.39855  0.59844  1.0000
  H   H23       1.0  0.28013  0.41538  0.54749  1.0000
  N   N4        1.0  0.04114  0.43153  0.55473  1.0000
  H   H24       1.0  0.07819  0.44045  0.57584  1.0000
  H   H25       1.0  0.07821  0.44836  0.53306  1.0000
  C   C25       1.0  0.19190  0.39090  0.56566  1.0000
  H   H26       1.0  0.03335  0.46409  0.55590  1.0000
  H   H27       1.0  0.02054  0.35639  0.62925  1.0000
  C   C26       1.0  0.19650  0.38912  0.53249  1.0000
  C   C27       1.0  0.21934  0.51182  0.78906  1.0000
  H   H28       1.0  0.20672  0.50859  0.76741  1.0000
  H   H29       1.0  0.18227  0.38770  0.51375  1.0000
  H   H30       1.0  0.22584  0.50937  0.89956  1.0000
  Fe  Fe6       1.0  0.11406  0.65524  0.46797  1.0000
  S   S11       1.0  0.12318  0.62171  0.47145  1.0000
  N   N5        1.0  0.22126  0.70589  0.40675  1.0000
  H   H31       1.0  0.23560  0.68258  0.38253  1.0000
  H   H32       1.0  0.11406  0.55165  0.20956  1.0000
  H   H33       1.0  0.32800  0.77742  0.05138  1.0000
  Fe  Fe7       1.0  0.16150  0.64851  0.44992  1.0000
  S   S12       1.0  0.18341  0.63579  0.41521  1.0000
  H   H34       1.0  0.31800  0.55658  0.24115  1.0000
  S   S13       1.0  0.15131  0.68079  0.44217  1.0000
  S   S14       1.0  0.31597  0.54773  0.17051  1.0000
  Fe  Fe8       1.0  0.19805  0.62774  0.23071  1.0000
  S   S15       1.0  0.20315  0.63981  0.17793  1.0000
  S   S16       1.0  0.16697  0.63062  0.25988  1.0000
  Fe  Fe9       1.0  0.24250  0.61468  0.22996  1.0000
  S   S17       1.0  0.25147  0.62589  0.17773  1.0000
  S   S18       1.0  0.26666  0.60131  0.25954  1.0000
  Fe  Fe10      1.0  0.24603  0.66044  0.19198  1.0000
  S   S19       1.0  0.27471  0.69923  0.17194  1.0000
  Fe  Fe11      1.0  0.20814  0.60405  0.16846  1.0000
  S   S20       1.0  0.19072  0.57366  0.12644  1.0000
  S   S21       1.0  0.24055  0.65121  0.24535  1.0000
  S   S22       1.0  0.19937  0.59004  0.22004  1.0000
  C   C28       1.0  0.30379  0.71636  0.19606  1.0000
  C   C29       1.0  0.32533  0.73754  0.18281  1.0000
  N   N6        1.0  0.04719  0.57833  0.50465  1.0000
  C   C30       1.0  0.04183  0.64065  0.49602  1.0000
  C   C31       1.0  0.32951  0.72251  0.24658  1.0000
  C   C32       1.0  0.30592  0.70892  0.22802  1.0000
  H   H35       1.0  0.32360  0.74344  0.15829  1.0000
  H   H36       1.0  0.33627  0.53275  0.44205  1.0000
  H   H37       1.0  0.33106  0.71673  0.27131  1.0000
  H   H38       1.0  0.28943  0.69285  0.23860  1.0000
  C   C33       1.0  0.21040  0.62114  0.04847  1.0000
  C   C34       1.0  0.20580  0.61213  0.08066  1.0000
  C   C35       1.0  0.19617  0.58530  0.08622  1.0000
  C   C36       1.0  0.19114  0.56752  0.05946  1.0000
  C   C37       1.0  0.19614  0.57662  0.02725  1.0000
  H   H39       1.0  0.20973  0.62598  0.10111  1.0000
  H   H40       1.0  0.18357  0.54671  0.06369  1.0000
  H   H41       1.0  0.34168  0.61509  0.17021  1.0000
  C   C38       1.0  0.27699  0.58269  0.23560  1.0000
  C   C39       1.0  0.29429  0.57501  0.24963  1.0000
  C   C40       1.0  0.30516  0.56288  0.22998  1.0000
  C   C41       1.0  0.29913  0.55873  0.19619  1.0000
  C   C42       1.0  0.28047  0.56480  0.18253  1.0000
  C   C43       1.0  0.26926  0.57660  0.20230  1.0000
  H   H42       1.0  0.29961  0.57878  0.27561  1.0000
  C   C44       1.0  0.23253  0.70475  0.43891  1.0000
  C   C45       1.0  0.34385  0.62800  0.22082  1.0000
  H   H43       1.0  0.25470  0.58097  0.19181  1.0000
  C   C46       1.0  0.17715  0.63281  0.37225  1.0000
  C   C47       1.0  0.15812  0.63793  0.35767  1.0000
  C   C48       1.0  0.15486  0.63686  0.32315  1.0000
  C   C49       1.0  0.17074  0.63093  0.30310  1.0000
  C   C50       1.0  0.18966  0.62571  0.31773  1.0000
  C   C51       1.0  0.19276  0.62655  0.35217  1.0000
  H   H44       1.0  0.14605  0.64284  0.37295  1.0000
  H   H45       1.0  0.14015  0.64087  0.31199  1.0000
  H   H46       1.0  0.20188  0.62094  0.30255  1.0000
  H   H47       1.0  0.20749  0.62253  0.36329  1.0000
  C   C52       1.0  0.32551  0.65608  0.23219  1.0000
  H   H48       1.0  0.26421  0.62079  0.03717  1.0000
  C   C53       1.0  0.04320  0.63068  0.46493  1.0000
  H   H49       1.0  0.14899  0.62923  0.10715  1.0000
  N   N7        1.0  0.25562  0.58043  0.03563  1.0000
  C   C54       1.0  0.19628  0.72017  0.37300  1.0000
  C   C55       1.0  0.34394  0.77336  0.04644  1.0000
  C   C56       1.0  0.14384  0.59348  0.12907  1.0000
  H   H50       1.0  0.13898  0.56078  0.15781  1.0000
  C   C57       1.0  0.34295  0.64182  0.27810  1.0000
  C   C58       1.0  0.14392  0.61769  0.12909  1.0000
  H   H51       1.0  0.06861  0.56531  0.47464  1.0000
  C   C59       1.0  0.13808  0.57916  0.15780  1.0000
  H   H52       1.0  0.13974  0.54778  0.49637  1.0000
  C   C60       1.0  0.26041  0.60363  0.05129  1.0000
  H   H53       1.0  0.24649  0.54020  0.04090  1.0000
  C   C61       1.0  0.25275  0.58273  0.10357  1.0000
  C   C62       1.0  0.22515  0.69378  0.37986  1.0000
  C   C63       1.0  0.21456  0.69445  0.34887  1.0000
  H   H54       1.0  0.12818  0.62006  0.20826  1.0000
  N   N8        1.0  0.13190  0.58839  0.18557  1.0000
  C   C64       1.0  0.25010  0.55855  0.05327  1.0000
  C   C65       1.0  0.20579  0.60349  0.02172  1.0000
  H   H55       1.0  0.18464  0.73017  0.37085  1.0000
  C   C66       1.0  0.13811  0.62723  0.15771  1.0000
  H   H56       1.0  0.25322  0.78620  0.48935  1.0000
  H   H57       1.0  0.24334  0.54178  0.10141  1.0000
  C   C67       1.0  0.32536  0.64147  0.17623  1.0000
  C   C68       1.0  0.13215  0.61225  0.18591  1.0000
  C   C69       1.0  0.12618  0.57314  0.21548  1.0000
  C   C70       1.0  0.25909  0.60515  0.08549  1.0000
  H   H58       1.0  0.22381  0.71059  0.45929  1.0000
  S   S23       1.0  0.18207  0.66504  0.49906  1.0000
  H   H59       1.0  0.13872  0.64632  0.15830  1.0000
  H   H60       1.0  0.21695  0.68406  0.32781  1.0000
  C   C71       1.0  0.31944  0.65618  0.19875  1.0000
  C   C72       1.0  0.01985  0.61226  0.44822  1.0000
  H   H61       1.0  0.22851  0.68420  0.44338  1.0000
  H   H62       1.0  0.32015  0.64084  0.15035  1.0000
  H   H63       1.0  0.31998  0.66675  0.24973  1.0000
  H   H64       1.0  0.25392  0.71820  0.44004  1.0000
  C   C73       1.0  0.20755  0.71949  0.40352  1.0000
  S   S24       1.0  0.07327  0.64172  0.44506  1.0000
  H   H65       1.0  0.21782  0.64195  0.04427  1.0000
  H   H66       1.0  0.27515  0.56085  0.15661  1.0000
  H   H67       1.0  0.20469  0.72938  0.42474  1.0000
  C   C74       1.0  0.19973  0.70742  0.34557  1.0000
  S   S25       1.0  0.20315  0.73983  0.49337  1.0000
  H   H68       1.0  0.05869  0.58727  0.45565  1.0000
  H   H69       1.0  0.19064  0.70721  0.32187  1.0000
  H   H70       1.0  0.05957  0.65511  0.50897  1.0000
  H   H71       1.0  0.14883  0.58611  0.10715  1.0000
  H   H72       1.0  0.14472  0.57675  0.22826  1.0000
  H   H73       1.0  0.11546  0.57905  0.23305  1.0000
  C   C75       1.0  0.24843  0.55932  0.08748  1.0000
  H   H74       1.0  0.33426  0.76974  0.11009  1.0000
  H   H75       1.0  0.26169  0.62320  0.09769  1.0000
  C   C76       1.0  0.31568  0.52101  0.43245  1.0000
  H   H76       1.0  0.30974  0.66720  0.19053  1.0000
  H   H77       1.0  0.02065  0.60468  0.42398  1.0000
  Fe  Fe12      1.0  0.17044  0.69660  0.49271  1.0000
  H   H78       1.0  0.03511  0.55318  0.46123  1.0000
  N   N9        1.0  0.33771  0.64225  0.24278  1.0000
  H   H79       1.0  0.32418  0.63007  0.29031  1.0000
  C   C77       1.0  0.32452  0.51995  0.37417  1.0000
  H   H80       1.0  0.33254  0.54123  0.37437  1.0000
  C   C78       1.0  0.33761  0.62723  0.18727  1.0000
  H   H81       1.0  0.25041  0.58325  0.12988  1.0000
  C   C79       1.0  0.05263  0.57057  0.47248  1.0000
  H   H82       1.0  0.30751  0.53454  0.42763  1.0000
  H   H83       1.0  0.14213  0.59134  0.50608  1.0000
  H   H84       1.0  0.33332  0.51760  0.32334  1.0000
  C   C80       1.0  0.01731  0.63283  0.50970  1.0000
  C   C81       1.0  0.02243  0.57359  0.51100  1.0000
  C   C82       1.0  0.34836  0.76897  0.01386  1.0000
  C   C83       1.0  0.29197  0.88074  0.66175  1.0000
  Fe  Fe13      1.0  0.32950  0.84968  0.60642  1.0000
  H   H85       1.0  0.01643  0.64122  0.53334  1.0000
  S   S26       1.0  0.28630  0.81788  0.60379  1.0000
  H   H86       1.0  0.24779  0.55871  0.98949  1.0000
  C   C84       1.0  0.26237  0.52995  0.81519  1.0000
  C   C85       1.0  0.13209  0.58489  0.55684  1.0000
  H   H87       1.0  0.20610  0.73786  0.56552  1.0000
  C   C86       1.0  0.27535  0.86427  0.63607  1.0000
  H   H88       1.0  0.29811  0.90515  0.57328  1.0000
  Fe  Fe14      1.0  0.24865  0.57024  0.91022  1.0000
  S   S27       1.0  0.23719  0.57167  0.85780  1.0000
  S   S28       1.0  0.27597  0.55537  0.92678  1.0000
  Fe  Fe15      1.0  0.21700  0.59497  0.93709  1.0000
  S   S29       1.0  0.20203  0.59808  0.88655  1.0000
  S   S30       1.0  0.21295  0.61621  0.98213  1.0000
  Fe  Fe16      1.0  0.19704  0.55735  0.87635  1.0000
  C   C87       1.0  0.22732  0.75968  0.52440  1.0000
  Fe  Fe17      1.0  0.24322  0.61195  0.87211  1.0000
  S   S31       1.0  0.26577  0.64602  0.84008  1.0000
  S   S32       1.0  0.20804  0.55279  0.92851  1.0000
  S   S33       1.0  0.25871  0.61184  0.92284  1.0000
  H   H89       1.0  0.27727  0.58999  0.99220  1.0000
  C   C88       1.0  0.28224  0.67577  0.86349  1.0000
  C   C89       1.0  0.30243  0.69787  0.84968  1.0000
  C   C90       1.0  0.31780  0.72079  0.86919  1.0000
  C   C91       1.0  0.31285  0.72186  0.90245  1.0000
  C   C92       1.0  0.29189  0.70016  0.91590  1.0000
  C   C93       1.0  0.27663  0.67712  0.89646  1.0000
  H   H90       1.0  0.30658  0.69705  0.82407  1.0000
  H   H91       1.0  0.33340  0.73756  0.85834  1.0000
  H   H92       1.0  0.28763  0.70097  0.94147  1.0000
  H   H93       1.0  0.26040  0.66052  0.90697  1.0000
  C   C94       1.0  0.26047  0.85569  0.57772  1.0000
  S   S34       1.0  0.16413  0.52295  0.84774  1.0000
  H   H94       1.0  0.20025  0.56524  0.74427  1.0000
  H   H95       1.0  0.07896  0.61140  0.57528  1.0000
  C   C95       1.0  0.32508  0.56365  0.91416  1.0000
  C   C96       1.0  0.30435  0.56790  0.90393  1.0000
  C   C97       1.0  0.30615  0.58142  0.87511  1.0000
  C   C98       1.0  0.32843  0.59023  0.85630  1.0000
  C   C99       1.0  0.13697  0.57775  0.52584  1.0000
  H   H96       1.0  0.32379  0.55313  0.93634  1.0000
  H   H97       1.0  0.29037  0.58497  0.86714  1.0000
  H   H98       1.0  0.32972  0.60045  0.83389  1.0000
  H   H99       1.0  0.19093  0.57766  0.54743  1.0000
  H   H100      1.0  0.32597  0.67436  0.92772  1.0000
  H   H101      1.0  0.32440  0.91922  0.67474  1.0000
  H   H102      1.0  0.21632  0.57694  0.57337  1.0000
  C   C100      1.0  0.26510  0.79484  0.57247  1.0000
  C   C101      1.0  0.24224  0.77245  0.58171  1.0000
  C   C102      1.0  0.22366  0.75478  0.55789  1.0000
  H   H103      1.0  0.17477  0.57590  0.67931  1.0000
  H   H104      1.0  0.12187  0.52975  0.59741  1.0000
  C   C103      1.0  0.26915  0.79934  0.53893  1.0000
  H   H105      1.0  0.23874  0.76881  0.60754  1.0000
  C   C104      1.0  0.34579  0.68523  0.91773  1.0000
  N   N10       1.0  0.34478  0.68007  0.88218  1.0000
  H   H106      1.0  0.28646  0.81654  0.53133  1.0000
  C   C105      1.0  0.13060  0.53578  0.54621  1.0000
  C   C106      1.0  0.18890  0.60776  0.59466  1.0000
  C   C107      1.0  0.18401  0.54711  0.78973  1.0000
  H   H107      1.0  0.32803  0.93508  0.61799  1.0000
  S   S35       1.0  0.13467  0.61623  0.56450  1.0000
  C   C108      1.0  0.12585  0.54293  0.57733  1.0000
  H   H108      1.0  0.18530  0.55507  0.63274  1.0000
  H   H109      1.0  0.31315  0.64075  0.88395  1.0000
  H   H110      1.0  0.08691  0.59564  0.52242  1.0000
  H   H111      1.0  0.34155  0.66681  0.78832  1.0000
  N   N11       1.0  0.27754  0.87314  0.60476  1.0000
  H   H112      1.0  0.19229  0.56286  0.00671  1.0000
  C   C109      1.0  0.29605  0.89828  0.59818  1.0000
  C   C110      1.0  0.17875  0.58508  0.65560  1.0000
  C   C111      1.0  0.19537  0.57172  0.57160  1.0000
  N   N12       1.0  0.18924  0.58446  0.59899  1.0000
  C   C112      1.0  0.12626  0.56731  0.58250  1.0000
  C   C113      1.0  0.31089  0.90641  0.65524  1.0000
  H   H113      1.0  0.17279  0.61760  0.67143  1.0000
  H   H114      1.0  0.12263  0.57278  0.60662  1.0000
  C   C114      1.0  0.31296  0.91529  0.62329  1.0000
  H   H115      1.0  0.18159  0.63787  0.61659  1.0000
  C   C115      1.0  0.13584  0.55311  0.52043  1.0000
  C   C116      1.0  0.06724  0.59165  0.52745  1.0000
  C   C117      1.0  0.06279  0.60056  0.55758  1.0000
  C   C118      1.0  0.18467  0.57332  0.62910  1.0000
  Fe  Fe18      1.0  0.14263  0.64117  0.51985  1.0000
  H   H116      1.0  0.26130  0.84404  0.64115  1.0000
  H   H117      1.0  0.19650  0.56463  0.80472  1.0000
  C   C119      1.0  0.32702  0.65591  0.86871  1.0000
  H   H118      1.0  0.19222  0.61654  0.57075  1.0000
  H   H119      1.0  0.24934  0.86452  0.56567  1.0000
  C   C120      1.0  0.03759  0.59576  0.56430  1.0000
  C   C121      1.0  0.18606  0.54743  0.75542  1.0000
  C   C122      1.0  0.17774  0.60849  0.65121  1.0000
  S   S36       1.0  0.33348  0.74941  0.92804  1.0000
  H   H120      1.0  0.33591  0.76944  0.99383  1.0000
  H   H121      1.0  0.18322  0.54986  0.57189  1.0000
  H   H122      1.0  0.24623  0.83590  0.58633  1.0000
  C   C123      1.0  0.18292  0.61999  0.62059  1.0000
  H   H123      1.0  0.27240  0.85226  0.55935  1.0000
  H   H124      1.0  0.29070  0.87337  0.68631  1.0000
  C   C124      1.0  0.32559  0.65079  0.83477  1.0000
  H   H125      1.0  0.03393  0.60305  0.58725  1.0000
  C   C125      1.0  0.34279  0.67037  0.81472  1.0000
  H   H126      1.0  0.31057  0.63208  0.82409  1.0000
  S   S37       1.0  0.34522  0.86946  0.65670  1.0000
  S   S38       1.0  0.17403  0.52650  0.69268  1.0000
  C   C126      1.0  0.25022  0.78206  0.51514  1.0000
  H   H127      1.0  0.28349  0.54085  0.81404  1.0000
  S   S39       1.0  0.13194  0.67387  0.51783  1.0000
  C   C127      1.0  0.17004  0.52490  0.73554  1.0000
  C   C128      1.0  0.16571  0.52430  0.80448  1.0000
  H   H128      1.0  0.26331  0.52329  0.86677  1.0000
  C   C129      1.0  0.25668  0.57935  0.99973  1.0000
  H   H129      1.0  0.24560  0.58855  0.98839  1.0000
  C   C130      1.0  0.25083  0.52009  0.84504  1.0000
  C   C131      1.0  0.34766  0.57312  0.89586  1.0000
  C   C132      1.0  0.01720  0.58202  0.54100  1.0000
  C   C133      1.0  0.24644  0.52595  0.78710  1.0000
  H   H130      1.0  0.25501  0.53377  0.76382  1.0000
  Fe  Fe19      1.0  0.47512  0.30494  0.48830  1.0000
  S   S40       1.0  0.51879  0.32722  0.49193  1.0000
  H   H131      1.0  0.58861  0.29873  0.24588  1.0000
  Fe  Fe20      1.0  0.47074  0.35340  0.46478  1.0000
  S   S41       1.0  0.51444  0.37860  0.46771  1.0000
  S   S42       1.0  0.45192  0.37658  0.44203  1.0000
  Fe  Fe21      1.0  0.51603  0.34425  0.44379  1.0000
  S   S43       1.0  0.54867  0.35466  0.40855  1.0000
  C   C134      1.0  0.58266  0.40176  0.03486  1.0000
  S   S44       1.0  0.47238  0.31953  0.43768  1.0000
  C   C135      1.0  0.66814  0.46531  0.09654  1.0000
  Fe  Fe22      1.0  0.66641  0.24383  0.20241  1.0000
  C   C136      1.0  0.64490  0.27028  0.28024  1.0000
  Fe  Fe23      1.0  0.64470  0.12122  0.48577  1.0000
  C   C137      1.0  0.45576  0.47751  0.50542  1.0000
  C   C138      1.0  0.68042  0.14903  0.35869  1.0000
  N   N13       1.0  0.61262  0.28343  0.26618  1.0000
  S   S45       1.0  0.65203  0.09493  0.45122  1.0000
  Fe  Fe24      1.0  0.65322  0.19481  0.24105  1.0000
  C   C139      1.0  0.60140  0.23754  0.26188  1.0000
  S   S46       1.0  0.63802  0.18039  0.29123  1.0000
  H   H132      1.0  0.63958  0.13851  0.06846  1.0000
  H   H133      1.0  0.59834  0.30717  0.28884  1.0000
  H   H134      1.0  0.58235  0.31215  0.10537  1.0000
  Fe  Fe25      1.0  0.64542  0.19137  0.16569  1.0000
  S   S47       1.0  0.61848  0.16576  0.12343  1.0000
  C   C140      1.0  0.67110  0.38166  0.23349  1.0000
  S   S48       1.0  0.62951  0.20565  0.20643  1.0000
  C   C141      1.0  0.58746  0.38778  0.48534  1.0000
  Fe  Fe26      1.0  0.61759  0.38841  0.19850  1.0000
  S   S49       1.0  0.60557  0.36430  0.15124  1.0000
  S   S50       1.0  0.66035  0.41820  0.20439  1.0000
  Fe  Fe27      1.0  0.56159  0.36727  0.21954  1.0000
  S   S51       1.0  0.54514  0.34243  0.17286  1.0000
  S   S52       1.0  0.53194  0.36483  0.25611  1.0000
  Fe  Fe28      1.0  0.57698  0.33202  0.18142  1.0000
  S   S53       1.0  0.56830  0.29019  0.17254  1.0000
  Fe  Fe29      1.0  0.57513  0.37708  0.14664  1.0000
  S   S54       1.0  0.56612  0.38933  0.09759  1.0000
  S   S55       1.0  0.59192  0.35459  0.22975  1.0000
  S   S56       1.0  0.58848  0.40331  0.19236  1.0000
  H   H135      1.0  0.68042  0.35421  0.25791  1.0000
  S   S57       1.0  0.39302  0.48241  0.48677  1.0000
  H   H136      1.0  0.55866  0.34205  0.06160  1.0000
  C   C142      1.0  0.64999  0.02223  0.49271  1.0000
  C   C143      1.0  0.54728  0.16821  0.50942  1.0000
  H   H137      1.0  0.37758  0.47582  0.14238  1.0000
  C   C144      1.0  0.62530  0.46034  0.09230  1.0000
  C   C145      1.0  0.39632  0.49293  0.14879  1.0000
  H   H138      1.0  0.40352  0.42683  0.44286  1.0000
  C   C146      1.0  0.56269  0.32928  0.04561  1.0000
  C   C147      1.0  0.66072  0.15377  0.37061  1.0000
  C   C148      1.0  0.63240  0.40797  0.04907  1.0000
  C   C149      1.0  0.61395  0.40016  0.07360  1.0000
  C   C150      1.0  0.58913  0.39739  0.06673  1.0000
  H   H139      1.0  0.61981  0.05387  0.50926  1.0000
  C   C151      1.0  0.64046  0.45021  0.14292  1.0000
  H   H140      1.0  0.65182  0.41085  0.05488  1.0000
  H   H141      1.0  0.61940  0.39738  0.09811  1.0000
  H   H142      1.0  0.63729  0.44362  0.16794  1.0000
  C   C152      1.0  0.64311  0.28609  0.19217  1.0000
  C   C153      1.0  0.62034  0.26334  0.18140  1.0000
  C   C154      1.0  0.59738  0.26469  0.17429  1.0000
  C   C155      1.0  0.59742  0.28887  0.17754  1.0000
  C   C156      1.0  0.62052  0.31182  0.18673  1.0000
  C   C157      1.0  0.64330  0.31039  0.19419  1.0000
  H   H143      1.0  0.62023  0.24465  0.17899  1.0000
  H   H144      1.0  0.57955  0.24694  0.16687  1.0000
  H   H145      1.0  0.62071  0.33058  0.18925  1.0000
  H   H146      1.0  0.62136  0.32306  0.25710  1.0000
  C   C158      1.0  0.64284  0.20872  0.04135  1.0000
  C   C159      1.0  0.64056  0.20178  0.07452  1.0000
  C   C160      1.0  0.61929  0.17827  0.08389  1.0000
  C   C161      1.0  0.59958  0.16272  0.06023  1.0000
  C   C162      1.0  0.38452  0.49458  0.32300  1.0000
  Fe  Fe30      1.0  0.35973  0.44090  0.48735  1.0000
  C   C163      1.0  0.63749  0.28989  0.27680  1.0000
  H   H147      1.0  0.58313  0.14445  0.06725  1.0000
  C   C164      1.0  0.62076  0.45177  0.12454  1.0000
  H   H148      1.0  0.63220  0.22854  0.27537  1.0000
  C   C165      1.0  0.64353  0.01982  0.45903  1.0000
  S   S58       1.0  0.60245  0.11154  0.48842  1.0000
  H   H149      1.0  0.50751  0.27171  0.50649  1.0000
  C   C166      1.0  0.40611  0.49785  0.18132  1.0000
  S   S59       1.0  0.67095  0.28443  0.20553  1.0000
  C   C167      1.0  0.65409  0.16763  0.31647  1.0000
  C   C168      1.0  0.64755  0.16293  0.34951  1.0000
  C   C169      1.0  0.65499  0.15793  0.02359  1.0000
  H   H150      1.0  0.57504  0.25259  0.24977  1.0000
  H   H151      1.0  0.63242  0.16668  0.35893  1.0000
  C   C170      1.0  0.56253  0.30391  0.09337  1.0000
  C   C171      1.0  0.60334  0.41033  0.46840  1.0000
  C   C172      1.0  0.42875  0.38504  0.45831  1.0000
  C   C173      1.0  0.41325  0.37184  0.48447  1.0000
  S   S60       1.0  0.36560  0.40490  0.49481  1.0000
  C   C174      1.0  0.39019  0.39787  0.48019  1.0000
  C   C175      1.0  0.40616  0.41158  0.45461  1.0000
  C   C176      1.0  0.42512  0.40498  0.44354  1.0000
  H   H152      1.0  0.67849  0.16577  0.27889  1.0000
  H   H153      1.0  0.63812  0.44805  0.47106  1.0000
  H   H154      1.0  0.38256  0.47664  0.31141  1.0000
  S   S61       1.0  0.67816  0.15882  0.46917  1.0000
  H   H155      1.0  0.37640  0.47854  0.37161  1.0000
  C   C177      1.0  0.54341  0.35509  0.36573  1.0000
  C   C178      1.0  0.56505  0.36617  0.34569  1.0000
  C   C179      1.0  0.56169  0.36822  0.31172  1.0000
  C   C180      1.0  0.53661  0.35913  0.29759  1.0000
  C   C181      1.0  0.51491  0.34717  0.31746  1.0000
  C   C182      1.0  0.51827  0.34528  0.35146  1.0000
  H   H156      1.0  0.58455  0.37366  0.35656  1.0000
  H   H157      1.0  0.57853  0.37750  0.29666  1.0000
  H   H158      1.0  0.49544  0.33956  0.30653  1.0000
  H   H159      1.0  0.50145  0.33629  0.36661  1.0000
  H   H160      1.0  0.65194  0.31035  0.28207  1.0000
  C   C183      1.0  0.56902  0.15682  0.46744  1.0000
  S   S62       1.0  0.45357  0.26278  0.50656  1.0000
  H   H161      1.0  0.66089  0.32804  0.20228  1.0000
  C   C184      1.0  0.60484  0.30409  0.26453  1.0000
  N   N14       1.0  0.49907  0.39267  0.35595  1.0000
  C   C185      1.0  0.51181  0.40134  0.32734  1.0000
  C   C186      1.0  0.47309  0.37445  0.35513  1.0000
  C   C187      1.0  0.49830  0.39235  0.29687  1.0000
  C   C188      1.0  0.45900  0.36495  0.32510  1.0000
  C   C189      1.0  0.47175  0.37400  0.29580  1.0000
  C   C190      1.0  0.51371  0.40154  0.38760  1.0000
  H   H162      1.0  0.53271  0.41459  0.32786  1.0000
  H   H163      1.0  0.46317  0.36693  0.37779  1.0000
  H   H164      1.0  0.50866  0.39862  0.27422  1.0000
  H   H165      1.0  0.43846  0.35035  0.32464  1.0000
  H   H166      1.0  0.46131  0.36630  0.27228  1.0000
  H   H167      1.0  0.50107  0.40215  0.40724  1.0000
  H   H168      1.0  0.52113  0.38775  0.39461  1.0000
  H   H169      1.0  0.53053  0.42174  0.38647  1.0000
  N   N15       1.0  0.67806  0.17100  0.07623  1.0000
  H   H170      1.0  0.60824  0.16496  0.48081  1.0000
  H   H171      1.0  0.60701  0.04506  0.46799  1.0000
  Fe  Fe31      1.0  0.67679  0.09283  0.49278  1.0000
  H   H172      1.0  0.41567  0.35635  0.49595  1.0000
  H   H173      1.0  0.67570  0.18294  0.12480  1.0000
  H   H174      1.0  0.65593  0.21386  0.09239  1.0000
  C   C191      1.0  0.38108  0.49562  0.35708  1.0000
  H   H175      1.0  0.55164  0.09886  0.50961  1.0000
  H   H176      1.0  0.65035  0.37024  0.23683  1.0000
  H   H177      1.0  0.56349  0.39967  0.02933  1.0000
  C   C192      1.0  0.56975  0.29230  0.03783  1.0000
  H   H178      1.0  0.55154  0.28246  0.09820  1.0000
  H   H179      1.0  0.60966  0.46093  0.07795  1.0000
  H   H180      1.0  0.67937  0.45507  0.14304  1.0000
  H   H181      1.0  0.56967  0.37230  0.47353  1.0000
  C   C193      1.0  0.62603  0.41260  0.01733  1.0000
  C   C194      1.0  0.60160  0.16995  0.02719  1.0000
  H   H182      1.0  0.59786  0.41222  0.44329  1.0000
  H   H183      1.0  0.58827  0.05097  0.49844  1.0000
  Fe  Fe32      1.0  0.36648  0.49020  0.45279  1.0000
  H   H184      1.0  0.60183  0.44568  0.13487  1.0000
  N   N16       1.0  0.56460  0.30837  0.05801  1.0000
  C   C195      1.0  0.62605  0.43038  0.48419  1.0000
  C   C196      1.0  0.62666  0.24394  0.27293  1.0000
  H   H185      1.0  0.58729  0.21716  0.25541  1.0000
  H   H186      1.0  0.55207  0.31337  0.10548  1.0000
  C   C197      1.0  0.59463  0.25766  0.25872  1.0000
  H   H187      1.0  0.65080  0.03734  0.44464  1.0000
  C   C198      1.0  0.65639  0.15421  0.05730  1.0000
  H   H188      1.0  0.39497  0.48479  0.20048  1.0000
  H   H189      1.0  0.43689  0.41524  0.42319  1.0000
  N   N17       1.0  0.64872  0.46683  0.07865  1.0000
  H   H190      1.0  0.56895  0.14838  0.44333  1.0000
  H   H191      1.0  0.65586  0.15071  0.39617  1.0000
  S   S63       1.0  0.66581  0.17665  0.20080  1.0000
  C   C199      1.0  0.59118  0.16628  0.48843  1.0000
  H   H192      1.0  0.66778  0.47199  0.03316  1.0000
  C   C200      1.0  0.62359  0.19263  0.01745  1.0000
  H   H193      1.0  0.66018  0.22599  0.03390  1.0000
  H   H194      1.0  0.63511  0.46643  0.02933  1.0000
  H   H195      1.0  0.52951  0.15046  0.46185  1.0000
  H   H196      1.0  0.66339  0.14811  0.11904  1.0000
  C   C201      1.0  0.41037  0.51061  0.12479  1.0000
  H   H197      1.0  0.66063  0.49810  0.04556  1.0000
  C   C202      1.0  0.60143  0.04237  0.49407  1.0000
  H   H198      1.0  0.66487  0.27558  0.28756  1.0000
  C   C203      1.0  0.67350  0.16249  0.30440  1.0000
  C   C204      1.0  0.54691  0.15784  0.47790  1.0000
  C   C205      1.0  0.39395  0.37807  0.49511  1.0000
  S   S64       1.0  0.34883  0.50209  0.49389  1.0000
  C   C206      1.0  0.66425  0.45683  0.12888  1.0000
  C   C207      1.0  0.67893  0.16776  0.11178  1.0000
  H   H199      1.0  0.57143  0.27581  0.04769  1.0000
  H   H200      1.0  0.58791  0.46046  0.50265  1.0000
  C   C208      1.0  0.68110  0.40579  0.21800  1.0000
  H   H201      1.0  0.40269  0.50740  0.09954  1.0000
  S   S65       1.0  0.68078  0.23068  0.15928  1.0000
  C   C209      1.0  0.65334  0.47645  0.04513  1.0000
  H   H202      1.0  0.55026  0.41645  0.50991  1.0000
  H   H203      1.0  0.46022  0.46936  0.48376  1.0000
  N   N18       1.0  0.58863  0.01437  0.50206  1.0000
  C   C210      1.0  0.56586  0.33448  0.01213  1.0000
  S   S66       1.0  0.53821  0.37895  0.56163  1.0000
  Fe  Fe33      1.0  0.49368  0.15949  0.59027  1.0000
  S   S67       1.0  0.52180  0.16910  0.63351  1.0000
  S   S68       1.0  0.50721  0.19519  0.55756  1.0000
  Fe  Fe34      1.0  0.46546  0.10016  0.60726  1.0000
  S   S69       1.0  0.49191  0.10638  0.65174  1.0000
  S   S70       1.0  0.43679  0.05944  0.58443  1.0000
  Fe  Fe35      1.0  0.48750  0.14246  0.66214  1.0000
  S   S71       1.0  0.48737  0.16080  0.71175  1.0000
  Fe  Fe36      1.0  0.52404  0.13269  0.61950  1.0000
  S   S72       1.0  0.56418  0.13616  0.62224  1.0000
  S   S73       1.0  0.45848  0.13480  0.61985  1.0000
  S   S74       1.0  0.49843  0.12450  0.57422  1.0000
  H   H204      1.0  0.47879  0.04957  0.62125  1.0000
  H   H205      1.0  0.45242  0.18449  0.55453  1.0000
  H   H206      1.0  0.64114  0.32911  0.91175  1.0000
  H   H207      1.0  0.67786  0.41863  0.79487  1.0000
  Fe  Fe37      1.0  0.61572  0.23804  0.87932  1.0000
  S   S75       1.0  0.61175  0.24386  0.93298  1.0000
  S   S76       1.0  0.64663  0.26918  0.84984  1.0000
  Fe  Fe38      1.0  0.56928  0.18311  0.87404  1.0000
  S   S77       1.0  0.56152  0.18317  0.92805  1.0000
  S   S78       1.0  0.54675  0.14868  0.83757  1.0000
  Fe  Fe39      1.0  0.56893  0.22464  0.92013  1.0000
  S   S79       1.0  0.54172  0.23814  0.94021  1.0000
  Fe  Fe40      1.0  0.60515  0.20240  0.93708  1.0000
  S   S80       1.0  0.63094  0.19704  0.97546  1.0000
  S   S81       1.0  0.57346  0.22318  0.86587  1.0000
  S   S82       1.0  0.61213  0.19788  0.88373  1.0000
  Fe  Fe41      1.0  0.59380  0.37787  0.88832  1.0000
  S   S83       1.0  0.62409  0.37386  0.91866  1.0000
  S   S84       1.0  0.55246  0.34507  0.88775  1.0000
  Fe  Fe42      1.0  0.63200  0.43235  0.86541  1.0000
  C   C211      1.0  0.65217  0.44481  0.74493  1.0000
  S   S85       1.0  0.66968  0.46732  0.68610  1.0000
  H   H208      1.0  0.60774  0.18250  0.53648  1.0000
  Fe  Fe43      1.0  0.63718  0.41568  0.93521  1.0000
  H   H209      1.0  0.55520  0.17026  0.57798  1.0000
  S   S86       1.0  0.61778  0.39145  0.84367  1.0000
  S   S87       1.0  0.60494  0.41885  0.90785  1.0000
  H   H210      1.0  0.59596  0.41284  0.98571  1.0000
  C   C212      1.0  0.54521  0.26769  0.92445  1.0000
  C   C213      1.0  0.52547  0.27441  0.92939  1.0000
  C   C214      1.0  0.52759  0.29785  0.91720  1.0000
  C   C215      1.0  0.54982  0.31510  0.90080  1.0000
  C   C216      1.0  0.56971  0.30847  0.89585  1.0000
  C   C217      1.0  0.56728  0.28458  0.90739  1.0000
  H   H211      1.0  0.50844  0.26146  0.94266  1.0000
  H   H212      1.0  0.51224  0.30294  0.92113  1.0000
  H   H213      1.0  0.58677  0.32159  0.88276  1.0000
  H   H214      1.0  0.58257  0.27943  0.90340  1.0000
  C   C218      1.0  0.50277  0.26755  0.60062  1.0000
  S   S88       1.0  0.66763  0.11746  0.52817  1.0000
  H   H215      1.0  0.50273  0.23347  0.62188  1.0000
  H   H216      1.0  0.56111  0.20163  0.56243  1.0000
  H   H217      1.0  0.66228  0.24053  0.89420  1.0000
  H   H218      1.0  0.65389  0.45201  0.55798  1.0000
  H   H219      1.0  0.50671  0.04865  0.60411  1.0000
  C   C219      1.0  0.56844  0.18703  0.56320  1.0000
  H   H220      1.0  0.57371  0.32218  0.96545  1.0000
  C   C220      1.0  0.56520  0.42519  0.52913  1.0000
  C   C221      1.0  0.46144  0.26578  0.59310  1.0000
  H   H221      1.0  0.43100  0.04436  0.65346  1.0000
  C   C222      1.0  0.44911  0.24100  0.60717  1.0000
  C   C223      1.0  0.57453  0.12805  0.58561  1.0000
  C   C224      1.0  0.55673  0.11454  0.55940  1.0000
  Fe  Fe44      1.0  0.37237  0.49066  0.52729  1.0000
  S   S89       1.0  0.67285  0.37329  0.85637  1.0000
  C   C225      1.0  0.60983  0.13032  0.55281  1.0000
  C   C226      1.0  0.60106  0.13573  0.58235  1.0000
  H   H222      1.0  0.53622  0.10813  0.56183  1.0000
  C   C227      1.0  0.42122  0.02660  0.63789  1.0000
  H   H223      1.0  0.46352  0.14265  0.80134  1.0000
  C   C228      1.0  0.50577  0.15788  0.74486  1.0000
  C   C229      1.0  0.50626  0.13423  0.75011  1.0000
  C   C230      1.0  0.51925  0.13178  0.77838  1.0000
  C   C231      1.0  0.53213  0.15304  0.80129  1.0000
  C   C232      1.0  0.53239  0.17695  0.79533  1.0000
  C   C233      1.0  0.51902  0.17926  0.76743  1.0000
  H   H224      1.0  0.49588  0.11755  0.73296  1.0000
  H   H225      1.0  0.51892  0.11319  0.78279  1.0000
  H   H226      1.0  0.54215  0.19344  0.81261  1.0000
  H   H227      1.0  0.51867  0.19759  0.76353  1.0000
  C   C234      1.0  0.56339  0.41160  0.55780  1.0000
  C   C235      1.0  0.58275  0.42363  0.58300  1.0000
  C   C236      1.0  0.60412  0.44883  0.57908  1.0000
  C   C237      1.0  0.60610  0.46208  0.54996  1.0000
  H   H228      1.0  0.43229  0.21118  0.53369  1.0000
  H   H229      1.0  0.56428  0.35101  0.00227  1.0000
  H   H230      1.0  0.58151  0.41323  0.60526  1.0000
  H   H231      1.0  0.61932  0.45766  0.59822  1.0000
  N   N19       1.0  0.42848  0.47142  0.55118  1.0000
  N   N20       1.0  0.56905  0.17726  0.52991  1.0000
  H   H232      1.0  0.58697  0.15705  0.00891  1.0000
  C   C238      1.0  0.46451  0.20350  0.54420  1.0000
  C   C239      1.0  0.49145  0.21295  0.54252  1.0000
  C   C240      1.0  0.44360  0.49740  0.56092  1.0000
  H   H233      1.0  0.48448  0.05494  0.57874  1.0000
  S   S90       1.0  0.65064  0.42579  0.98854  1.0000
  H   H234      1.0  0.50483  0.32046  0.59423  1.0000
  C   C241      1.0  0.56546  0.10906  0.52994  1.0000
  C   C242      1.0  0.61726  0.40574  0.53263  1.0000
  H   H235      1.0  0.41253  0.44515  0.59002  1.0000
  H   H236      1.0  0.57663  0.28386  0.98813  1.0000
  H   H237      1.0  0.62148  0.21836  0.81566  1.0000
  H   H238      1.0  0.59616  0.45668  0.76041  1.0000
  C   C243      1.0  0.64566  0.44464  0.77791  1.0000
  C   C244      1.0  0.43476  0.46124  0.52438  1.0000
  S   S91       1.0  0.46975  0.33680  0.51476  1.0000
  H   H239      1.0  0.58499  0.44534  0.70262  1.0000
  S   S92       1.0  0.67007  0.05338  0.51279  1.0000
  H   H240      1.0  0.63040  0.13679  0.55025  1.0000
  S   S93       1.0  0.66541  0.43317  0.89489  1.0000
  H   H241      1.0  0.39702  0.46527  0.58167  1.0000
  H   H242      1.0  0.60514  0.17009  0.80733  1.0000
  N   N21       1.0  0.57862  0.18104  0.73827  1.0000
  C   C245      1.0  0.58719  0.20755  0.74299  1.0000
  C   C246      1.0  0.58525  0.16771  0.76075  1.0000
  C   C247      1.0  0.56329  0.16725  0.70817  1.0000
  H   H243      1.0  0.58198  0.21812  0.72516  1.0000
  H   H244      1.0  0.57825  0.14666  0.75733  1.0000
  H   H245      1.0  0.55152  0.14562  0.71137  1.0000
  H   H246      1.0  0.54924  0.17440  0.70138  1.0000
  H   H247      1.0  0.57645  0.17042  0.68751  1.0000
  H   H248      1.0  0.59934  0.02270  0.55311  1.0000
  S   S94       1.0  0.63364  0.49247  0.54297  1.0000
  Fe  Fe45      1.0  0.65983  0.51142  0.58784  1.0000
  H   H249      1.0  0.52996  0.16881  0.51754  1.0000
  C   C248      1.0  0.45314  0.21867  0.53229  1.0000
  H   H250      1.0  0.58162  0.36831  0.53130  1.0000
  N   N22       1.0  0.60511  0.48490  0.72303  1.0000
  N   N23       1.0  0.47003  0.01483  0.59241  1.0000
  H   H251      1.0  0.67432  0.18290  0.98356  1.0000
  H   H252      1.0  0.67468  0.36767  0.93860  1.0000
  N   N24       1.0  0.67790  0.33285  0.92905  1.0000
  C   C249      1.0  0.49542  0.25283  0.51703  1.0000
  H   H253      1.0  0.47125  0.01853  0.54037  1.0000
  S   S95       1.0  0.64093  0.46814  0.83517  1.0000
  C   C250      1.0  0.65380  0.31982  0.90838  1.0000
  N   N25       1.0  0.49380  0.19176  0.85962  1.0000
  C   C251      1.0  0.50177  0.17912  0.88152  1.0000
  C   C252      1.0  0.48008  0.17890  0.83119  1.0000
  C   C253      1.0  0.49599  0.15291  0.87529  1.0000
  C   C254      1.0  0.47372  0.15256  0.82435  1.0000
  C   C255      1.0  0.48185  0.13958  0.84653  1.0000
  C   C256      1.0  0.50103  0.21954  0.86636  1.0000
  H   H254      1.0  0.51295  0.18942  0.90382  1.0000
  H   H255      1.0  0.47437  0.18905  0.81329  1.0000
  H   H256      1.0  0.50314  0.14324  0.89216  1.0000
  H   H257      1.0  0.47809  0.11956  0.84090  1.0000
  H   H258      1.0  0.49073  0.22659  0.84929  1.0000
  H   H259      1.0  0.49604  0.22230  0.89181  1.0000
  H   H260      1.0  0.52245  0.23219  0.86413  1.0000
  Fe  Fe46      1.0  0.64935  0.39138  0.87603  1.0000
  H   H261      1.0  0.48750  0.30581  0.55554  1.0000
  C   C257      1.0  0.60266  0.22134  0.77095  1.0000
  H   H262      1.0  0.52369  0.27754  0.59759  1.0000
  C   C258      1.0  0.59077  0.17623  0.51991  1.0000
  C   C259      1.0  0.49107  0.24273  0.61463  1.0000
  C   C260      1.0  0.65024  0.46808  0.79427  1.0000
  C   C261      1.0  0.50044  0.30464  0.57520  1.0000
  H   H263      1.0  0.64840  0.42653  0.73237  1.0000
  Fe  Fe47      1.0  0.67737  0.50176  0.65433  1.0000
  H   H264      1.0  0.61493  0.14616  0.60256  1.0000
  N   N26       1.0  0.48791  0.27860  0.58975  1.0000
  H   H265      1.0  0.61815  0.46501  0.69041  1.0000
  H   H266      1.0  0.58803  0.19663  0.57598  1.0000
  C   C262      1.0  0.46406  0.22942  0.61790  1.0000
  C   C263      1.0  0.60943  0.20787  0.79398  1.0000
  H   H267      1.0  0.45470  0.20985  0.62791  1.0000
  C   C264      1.0  0.67954  0.25748  0.88633  1.0000
  C   C265      1.0  0.42092  0.02854  0.60369  1.0000
  C   C266      1.0  0.59985  0.46551  0.69609  1.0000
  H   H268      1.0  0.51883  0.30852  0.56342  1.0000
  H   H269      1.0  0.44961  0.27427  0.58373  1.0000
  H   H270      1.0  0.67252  0.44263  0.53099  1.0000
  C   C267      1.0  0.40613  0.45410  0.57039  1.0000
  H   H271      1.0  0.60943  0.24234  0.77494  1.0000
  H   H272      1.0  0.63669  0.42625  0.79043  1.0000
  H   H273      1.0  0.43904  0.50532  0.58267  1.0000
  H   H274      1.0  0.42802  0.23052  0.60874  1.0000
  C   C268      1.0  0.59203  0.11704  0.52651  1.0000
  C   C269      1.0  0.58653  0.45026  0.52513  1.0000
  C   C270      1.0  0.57112  0.31822  0.99140  1.0000
  C   C271      1.0  0.60058  0.18087  0.78903  1.0000
  C   C272      1.0  0.48591  0.04335  0.59946  1.0000
  C   C273      1.0  0.57292  0.29686  0.00419  1.0000
  H   H275      1.0  0.39062  0.43803  0.55445  1.0000
  H   H276      1.0  0.38175  0.36736  0.51495  1.0000
  H   H277      1.0  0.64238  0.29863  0.91395  1.0000
  H   H278      1.0  0.65878  0.32111  0.88204  1.0000
  C   C274      1.0  0.66290  0.46834  0.72785  1.0000
  C   C275      1.0  0.66756  0.49187  0.74414  1.0000
  C   C276      1.0  0.61429  0.51096  0.71633  1.0000
  H   H279      1.0  0.66535  0.51005  0.78999  1.0000
  H   H280      1.0  0.60644  0.48928  0.80620  1.0000
  C   C277      1.0  0.60226  0.47710  0.75488  1.0000
  H   H281      1.0  0.62225  0.40400  0.55799  1.0000
  H   H282      1.0  0.52755  0.24497  0.52680  1.0000
  H   H283      1.0  0.59232  0.47057  0.67349  1.0000
  C   C278      1.0  0.67753  0.27459  0.86403  1.0000
  C   C279      1.0  0.60812  0.49551  0.78096  1.0000
  C   C280      1.0  0.50674  0.23757  0.52858  1.0000
  C   C281      1.0  0.66155  0.49177  0.77741  1.0000
  C   C282      1.0  0.67574  0.17916  0.00940  1.0000
  C   C283      1.0  0.46853  0.24353  0.51893  1.0000
  H   H284      1.0  0.67596  0.51014  0.73119  1.0000
  S   S96       1.0  0.64368  0.50761  0.63772  1.0000
  Fe  Fe48      1.0  0.51356  0.35970  0.51532  1.0000
  C   C284      1.0  0.60096  0.40906  0.01009  1.0000
  C   C285      1.0  0.59436  0.38542  0.51765  1.0000
  C   C286      1.0  0.47070  0.50428  0.51448  1.0000
  H   H285      1.0  0.42329  0.44049  0.51734  1.0000
  C   C287      1.0  0.65701  0.44851  0.53191  1.0000
  H   H286      1.0  0.66388  0.46778  0.51999  1.0000
  H   H287      1.0  0.63736  0.14533  0.00887  1.0000
  N   N27       1.0  0.63269  0.42791  0.51595  1.0000
  S   S97       1.0  0.39350  0.51386  0.57362  1.0000
  Fe  Fe49      1.0  0.57464  0.90178  0.46434  1.0000
  S   S98       1.0  0.53225  0.89093  0.46454  1.0000
  S   S99       1.0  0.60164  0.94045  0.44099  1.0000
  C   C288      1.0  0.46842  0.56118  0.17488  1.0000
  H   H288      1.0  0.67198  0.97890  0.45823  1.0000
  H   H289      1.0  0.41146  0.81606  0.27905  1.0000
  Fe  Fe50      1.0  0.52425  0.85067  0.44629  1.0000
  S   S100      1.0  0.49182  0.82586  0.40859  1.0000
  H   H290      1.0  0.39306  0.76871  0.08526  1.0000
  S   S101      1.0  0.56657  0.86238  0.44186  1.0000
  Fe  Fe51      1.0  0.39326  0.54763  0.23228  1.0000
  S   S102      1.0  0.38042  0.54011  0.17856  1.0000
  H   H291      1.0  0.62154  0.87093  0.46270  1.0000
  Fe  Fe52      1.0  0.39976  0.60305  0.23272  1.0000
  S   S103      1.0  0.38755  0.59994  0.17967  1.0000
  S   S104      1.0  0.40671  0.64049  0.25869  1.0000
  H   H292      1.0  0.50827  0.78080  0.19143  1.0000
  Fe  Fe53      1.0  0.41294  0.58126  0.17206  1.0000
  S   S105      1.0  0.44351  0.59667  0.13353  1.0000
  C   C289      1.0  0.57571  0.99528  0.47782  1.0000
  S   S106      1.0  0.42781  0.58746  0.22485  1.0000
  Fe  Fe54      1.0  0.47079  0.81694  0.22089  1.0000
  S   S107      1.0  0.47419  0.80889  0.16718  1.0000
  S   S108      1.0  0.50417  0.84487  0.25548  1.0000
  Fe  Fe55      1.0  0.41356  0.77703  0.22075  1.0000
  S   S109      1.0  0.41121  0.76472  0.16767  1.0000
  S   S110      1.0  0.38103  0.75915  0.25557  1.0000
  Fe  Fe56      1.0  0.44960  0.76622  0.17890  1.0000
  S   S111      1.0  0.45724  0.73362  0.16094  1.0000
  Fe  Fe57      1.0  0.43545  0.80810  0.15961  1.0000
  S   S112      1.0  0.42125  0.82464  0.11872  1.0000
  S   S113      1.0  0.44975  0.77436  0.23287  1.0000
  S   S114      1.0  0.43440  0.82033  0.21220  1.0000
  H   H293      1.0  0.39216  0.55899  0.36462  1.0000
  C   C290      1.0  0.45960  0.81916  0.03959  1.0000
  C   C291      1.0  0.45190  0.81913  0.07202  1.0000
  C   C292      1.0  0.43171  0.82486  0.07846  1.0000
  C   C293      1.0  0.41886  0.83002  0.05223  1.0000
  C   C294      1.0  0.56286  0.96851  0.48524  1.0000
  N   N28       1.0  0.42756  0.65701  0.08254  1.0000
  H   H294      1.0  0.46192  0.81517  0.09207  1.0000
  H   H295      1.0  0.40317  0.83440  0.05710  1.0000
  C   C295      1.0  0.42440  0.82770  0.29965  1.0000
  C   C296      1.0  0.41963  0.66556  0.23036  1.0000
  C   C297      1.0  0.43612  0.66506  0.20632  1.0000
  C   C298      1.0  0.44719  0.68569  0.18441  1.0000
  C   C299      1.0  0.44130  0.70651  0.18606  1.0000
  C   C300      1.0  0.42393  0.70636  0.20920  1.0000
  C   C301      1.0  0.41345  0.68615  0.23169  1.0000
  H   H296      1.0  0.44099  0.64916  0.20530  1.0000
  H   H297      1.0  0.46079  0.68580  0.16678  1.0000
  H   H298      1.0  0.41852  0.72182  0.20992  1.0000
  H   H299      1.0  0.40039  0.68639  0.24992  1.0000
  H   H300      1.0  0.47569  0.81538  0.03481  1.0000
  C   C302      1.0  0.38991  0.54091  0.35308  1.0000
  C   C303      1.0  0.45240  0.60350  0.06787  1.0000
  C   C304      1.0  0.43439  0.58903  0.09147  1.0000
  C   C305      1.0  0.40991  0.56835  0.08123  1.0000
  C   C306      1.0  0.40386  0.56161  0.04753  1.0000
  C   C307      1.0  0.63302  0.89083  0.47333  1.0000
  H   H301      1.0  0.47143  0.61947  0.07568  1.0000
  H   H302      1.0  0.39587  0.55712  0.09923  1.0000
  C   C308      1.0  0.38383  0.51887  0.37219  1.0000
  C   C309      1.0  0.49685  0.83060  0.36618  1.0000
  C   C310      1.0  0.47756  0.81271  0.34363  1.0000
  C   C311      1.0  0.47955  0.81708  0.30978  1.0000
  C   C312      1.0  0.50117  0.83909  0.29803  1.0000
  C   C313      1.0  0.52084  0.85665  0.32050  1.0000
  C   C314      1.0  0.51865  0.85251  0.35453  1.0000
  H   H303      1.0  0.46069  0.79565  0.35240  1.0000
  H   H304      1.0  0.46412  0.80355  0.29293  1.0000
  H   H305      1.0  0.53769  0.87369  0.31162  1.0000
  H   H306      1.0  0.53364  0.86646  0.37172  1.0000
  C   C315      1.0  0.43883  0.68380  0.08772  1.0000
  S   S115      1.0  0.52185  0.83478  0.49696  1.0000
  C   C316      1.0  0.39296  0.53975  0.31909  1.0000
  H   H307      1.0  0.57578  0.00065  0.45242  1.0000
  C   C317      1.0  0.64067  0.99921  0.51096  1.0000
  H   H308      1.0  0.40191  0.76124  0.02795  1.0000
  C   C318      1.0  0.61898  0.97166  0.46193  1.0000
  C   C319      1.0  0.62841  0.99464  0.44368  1.0000
  C   C320      1.0  0.46329  0.86610  0.32118  1.0000
  C   C321      1.0  0.64291  0.91273  0.45334  1.0000
  H   H309      1.0  0.35299  0.66225  0.28903  1.0000
  C   C322      1.0  0.44665  0.85169  0.29451  1.0000
  H   H310      1.0  0.40217  0.79941  0.33508  1.0000
  H   H311      1.0  0.45139  0.85884  0.26983  1.0000
  Fe  Fe58      1.0  0.35631  0.55959  0.19135  1.0000
  H   H312      1.0  0.40983  0.81706  0.39690  1.0000
  H   H313      1.0  0.43473  0.64129  0.12574  1.0000
  N   N29       1.0  0.65722  0.93778  0.46685  1.0000
  H   H314      1.0  0.43232  0.80399  0.39144  1.0000
  H   H315      1.0  0.63879  0.90961  0.42699  1.0000
  H   H316      1.0  0.55338  0.95341  0.46578  1.0000
  Fe  Fe59      1.0  0.56490  0.84905  0.49402  1.0000
  H   H317      1.0  0.39771  0.55693  0.30473  1.0000
  H   H318      1.0  0.40636  0.64606  0.12644  1.0000
  C   C323      1.0  0.43002  0.82202  0.39053  1.0000
  C   C324      1.0  0.44893  0.70074  0.06163  1.0000
  C   C325      1.0  0.41919  0.81840  0.33150  1.0000
  C   C326      1.0  0.39035  0.51663  0.30390  1.0000
  N   N30       1.0  0.43556  0.83272  0.35757  1.0000
  H   H319      1.0  0.47101  0.86713  0.37317  1.0000
  N   N31       1.0  0.50735  0.77340  0.24269  1.0000
  C   C327      1.0  0.49397  0.74651  0.23803  1.0000
  C   C328      1.0  0.51009  0.78476  0.27338  1.0000
  C   C329      1.0  0.48154  0.73031  0.26409  1.0000
  C   C330      1.0  0.49808  0.76917  0.30009  1.0000
  C   C331      1.0  0.48346  0.74179  0.29525  1.0000
  C   C332      1.0  0.51961  0.79009  0.21486  1.0000
  H   H320      1.0  0.49251  0.73746  0.21391  1.0000
  H   H321      1.0  0.52129  0.80606  0.27723  1.0000
  H   H322      1.0  0.47027  0.70902  0.26003  1.0000
  H   H323      1.0  0.49989  0.77835  0.32427  1.0000
  H   H324      1.0  0.47366  0.72945  0.31559  1.0000
  H   H325      1.0  0.52017  0.80959  0.21798  1.0000
  H   H326      1.0  0.53985  0.79335  0.21276  1.0000
  S   S116      1.0  0.36672  0.56402  0.24534  1.0000
  C   C333      1.0  0.41793  0.63994  0.11067  1.0000
  H   H327      1.0  0.48111  0.88428  0.31722  1.0000
  H   H328      1.0  0.40525  0.61886  0.10283  1.0000
  C   C334      1.0  0.44607  0.59721  0.03412  1.0000
  H   H329      1.0  0.55311  0.70076  0.47925  1.0000
  H   H330      1.0  0.62413  0.99299  0.41742  1.0000
  S   S117      1.0  0.37874  0.52139  0.41439  1.0000
  H   H331      1.0  0.48451  0.87775  0.49863  1.0000
  N   N32       1.0  0.35961  0.77278  0.07168  1.0000
  H   H332      1.0  0.35580  0.63286  0.28311  1.0000
  H   H333      1.0  0.44475  0.54676  0.11497  1.0000
  C   C335      1.0  0.42628  0.64637  0.05171  1.0000
  C   C336      1.0  0.43420  0.53288  0.13369  1.0000
  H   H334      1.0  0.44169  0.87650  0.48979  1.0000
  S   S118      1.0  0.39438  0.51505  0.26116  1.0000
  H   H335      1.0  0.41758  0.62513  0.04755  1.0000
  H   H336      1.0  0.44009  0.69222  0.11218  1.0000
  H   H337      1.0  0.44377  0.83628  0.40972  1.0000
  C   C337      1.0  0.42190  0.57597  0.02388  1.0000
  H   H338      1.0  0.45787  0.72199  0.06595  1.0000
  C   C338      1.0  0.62494  0.97405  0.49576  1.0000
  H   H339      1.0  0.46026  0.57495  0.50201  1.0000
  C   C339      1.0  0.45742  0.85628  0.35276  1.0000
  H   H340      1.0  0.47999  0.57039  0.15303  1.0000
  H   H341      1.0  0.36553  0.76745  0.19090  1.0000
  C   C340      1.0  0.66883  0.96034  0.44534  1.0000
  H   H342      1.0  0.38514  0.54515  0.03968  1.0000
  C   C341      1.0  0.66200  0.94174  0.50016  1.0000
  H   H343      1.0  0.48062  0.55637  0.19190  1.0000
  H   H344      1.0  0.46428  0.57608  0.18710  1.0000
  C   C342      1.0  0.43625  0.66275  0.02502  1.0000
  N   N33       1.0  0.44377  0.53742  0.16560  1.0000
  H   H345      1.0  0.35299  0.61655  0.22926  1.0000
  C   C343      1.0  0.53859  0.69883  0.49664  1.0000
  H   H346      1.0  0.54521  0.73874  0.49186  1.0000
  C   C344      1.0  0.44758  0.69010  0.03009  1.0000
  H   H347      1.0  0.65560  0.95729  0.42357  1.0000
  H   H348      1.0  0.46020  0.60819  0.01608  1.0000
  C   C345      1.0  0.38513  0.76391  0.03301  1.0000
  C   C346      1.0  0.42990  0.52044  0.18939  1.0000
  C   C347      1.0  0.38001  0.76814  0.06535  1.0000
  H   H349      1.0  0.43691  0.52453  0.21495  1.0000
  S   S119      1.0  0.58558  0.82479  0.50553  1.0000
  H   H350      1.0  0.61789  0.95652  0.51007  1.0000
  H   H351      1.0  0.36462  0.77159  0.12383  1.0000
  C   C348      1.0  0.53408  0.72006  0.50358  1.0000
  C   C349      1.0  0.42598  0.82916  0.01967  1.0000
  H   H352      1.0  0.52806  0.65857  0.50773  1.0000
  C   C350      1.0  0.34904  0.75095  0.20116  1.0000
  C   C351      1.0  0.35118  0.74330  0.23300  1.0000
  C   C352      1.0  0.63774  0.89467  0.50728  1.0000
  C   C353      1.0  0.35545  0.77894  0.10540  1.0000
  H   H353      1.0  0.48687  0.51727  0.49984  1.0000
  C   C354      1.0  0.44658  0.82401  0.01334  1.0000
  H   H354      1.0  0.36443  0.80072  0.10945  1.0000
  H   H355      1.0  0.67327  0.96160  0.51088  1.0000
  S   S120      1.0  0.39446  0.84062  0.68332  1.0000
  N   N34       1.0  0.44994  0.88930  0.91418  1.0000
  H   H356      1.0  0.42991  0.93940  0.57408  1.0000
  H   H357      1.0  0.41593  0.83306  0.99961  1.0000
  C   C355      1.0  0.56302  0.96132  0.51774  1.0000
  H   H358      1.0  0.54214  0.70539  0.90087  1.0000
  C   C356      1.0  0.45667  0.82578  0.56531  1.0000
  H   H359      1.0  0.63348  0.60244  0.70725  1.0000
  S   S121      1.0  0.40351  0.89879  0.62690  1.0000
  S   S122      1.0  0.37868  0.94740  0.65134  1.0000
  Fe  Fe60      1.0  0.38407  0.87790  0.57910  1.0000
  S   S123      1.0  0.40746  0.88269  0.53409  1.0000
  S   S124      1.0  0.51710  0.88702  0.55805  1.0000
  H   H360      1.0  0.40577  0.82975  0.62024  1.0000
  Fe  Fe61      1.0  0.57783  0.65568  0.62771  1.0000
  S   S125      1.0  0.53844  0.62004  0.63320  1.0000
  S   S126      1.0  0.61527  0.65224  0.62362  1.0000
  Fe  Fe62      1.0  0.55461  0.69342  0.61433  1.0000
  S   S127      1.0  0.51413  0.65962  0.61852  1.0000
  S   S128      1.0  0.55160  0.73137  0.60697  1.0000
  Fe  Fe63      1.0  0.52917  0.64782  0.66285  1.0000
  S   S129      1.0  0.49864  0.63704  0.70171  1.0000
  Fe  Fe64      1.0  0.52674  0.63513  0.58910  1.0000
  S   S130      1.0  0.50300  0.61055  0.54478  1.0000
  S   S131      1.0  0.56945  0.68294  0.66069  1.0000
  S   S132      1.0  0.56624  0.66934  0.58140  1.0000
  Fe  Fe65      1.0  0.46746  0.61753  0.88412  1.0000
  S   S133      1.0  0.47201  0.62904  0.93826  1.0000
  S   S134      1.0  0.50064  0.61922  0.85461  1.0000
  Fe  Fe66      1.0  0.41183  0.60831  0.87880  1.0000
  S   S135      1.0  0.41139  0.61937  0.93168  1.0000
  S   S136      1.0  0.37764  0.59846  0.84408  1.0000
  Fe  Fe67      1.0  0.45155  0.65202  0.92400  1.0000
  S   S137      1.0  0.46354  0.69286  0.94398  1.0000
  Fe  Fe68      1.0  0.43131  0.59517  0.94184  1.0000
  S   S138      1.0  0.41419  0.56587  0.98206  1.0000
  S   S139      1.0  0.45043  0.64344  0.86998  1.0000
  S   S140      1.0  0.42852  0.58126  0.88891  1.0000
  Fe  Fe69      1.0  0.41588  0.77706  0.86817  1.0000
  S   S141      1.0  0.40459  0.76810  0.92023  1.0000
  S   S142      1.0  0.42576  0.74899  0.84143  1.0000
  Fe  Fe70      1.0  0.40664  0.82422  0.86801  1.0000
  S   S143      1.0  0.39485  0.81956  0.92087  1.0000
  S   S144      1.0  0.40660  0.85724  0.83903  1.0000
  Fe  Fe71      1.0  0.42845  0.81161  0.93010  1.0000
  S   S145      1.0  0.45754  0.82506  0.97324  1.0000
  H   H361      1.0  0.48141  0.73260  0.84140  1.0000
  S   S146      1.0  0.44259  0.82020  0.87859  1.0000
  C   C357      1.0  0.44138  0.96056  0.57929  1.0000
  C   C358      1.0  0.43511  0.73324  0.87102  1.0000
  C   C359      1.0  0.42643  0.70612  0.86745  1.0000
  C   C360      1.0  0.43375  0.69339  0.89114  1.0000
  C   C361      1.0  0.45068  0.70789  0.91768  1.0000
  C   C362      1.0  0.45900  0.73496  0.92159  1.0000
  C   C363      1.0  0.45097  0.74758  0.89844  1.0000
  H   H362      1.0  0.41379  0.69487  0.84659  1.0000
  H   H363      1.0  0.42626  0.67232  0.88871  1.0000
  H   H364      1.0  0.47202  0.74629  0.94214  1.0000
  H   H365      1.0  0.45759  0.76856  0.90137  1.0000
  C   C364      1.0  0.50216  0.63569  0.74466  1.0000
  C   C365      1.0  0.52211  0.63217  0.75956  1.0000
  C   C366      1.0  0.52172  0.62745  0.79346  1.0000
  C   C367      1.0  0.50138  0.62612  0.81245  1.0000
  C   C368      1.0  0.48197  0.63042  0.79759  1.0000
  C   C369      1.0  0.48248  0.63537  0.76397  1.0000
  H   H366      1.0  0.53733  0.63228  0.74482  1.0000
  H   H367      1.0  0.53695  0.62432  0.80483  1.0000
  H   H368      1.0  0.46618  0.62941  0.81174  1.0000
  H   H369      1.0  0.46708  0.63823  0.75264  1.0000
  C   C370      1.0  0.42652  0.89042  0.92418  1.0000
  H   H370      1.0  0.49487  0.87257  0.94267  1.0000
  C   C371      1.0  0.58072  0.76181  0.55545  1.0000
  C   C372      1.0  0.56179  0.75726  0.57854  1.0000
  C   C373      1.0  0.54992  0.77353  0.57894  1.0000
  C   C374      1.0  0.45917  0.89731  0.88363  1.0000
  C   C375      1.0  0.49422  0.88723  0.89449  1.0000
  H   H371      1.0  0.59014  0.74959  0.55490  1.0000
  H   H372      1.0  0.48084  0.57322  0.77024  1.0000
  N   N35       1.0  0.50233  0.69423  0.54255  1.0000
  C   C376      1.0  0.43862  0.88539  0.54061  1.0000
  C   C377      1.0  0.45093  0.89131  0.57193  1.0000
  C   C378      1.0  0.47548  0.89275  0.57675  1.0000
  C   C379      1.0  0.48765  0.88775  0.55042  1.0000
  H   H373      1.0  0.62810  0.55059  0.73620  1.0000
  H   H374      1.0  0.47154  0.82569  0.54990  1.0000
  H   H375      1.0  0.44159  0.89464  0.59254  1.0000
  H   H376      1.0  0.48477  0.89711  0.60112  1.0000
  H   H377      1.0  0.60272  0.78612  0.51597  1.0000
  H   H378      1.0  0.51972  0.67086  0.89114  1.0000
  C   C380      1.0  0.39676  0.84519  0.72660  1.0000
  C   C381      1.0  0.40242  0.85212  0.79581  1.0000
  H   H379      1.0  0.40699  0.59483  0.71842  1.0000
  C   C382      1.0  0.36211  0.69918  0.86279  1.0000
  S   S147      1.0  0.38107  0.78157  0.85314  1.0000
  H   H380      1.0  0.49786  0.72059  0.89129  1.0000
  C   C383      1.0  0.42279  0.54234  0.56563  1.0000
  H   H381      1.0  0.62256  0.53664  0.79437  1.0000
  H   H382      1.0  0.50936  0.68979  0.91586  1.0000
  C   C384      1.0  0.47188  0.58504  0.55326  1.0000
  C   C385      1.0  0.46441  0.57889  0.58566  1.0000
  C   C386      1.0  0.43989  0.55749  0.59182  1.0000
  H   H383      1.0  0.41688  0.53753  0.51293  1.0000
  H   H384      1.0  0.47769  0.59035  0.60594  1.0000
  H   H385      1.0  0.43434  0.55243  0.61688  1.0000
  H   H386      1.0  0.40968  0.81888  0.79461  1.0000
  C   C387      1.0  0.64080  0.59249  0.65872  1.0000
  C   C388      1.0  0.63871  0.59608  0.62507  1.0000
  C   C389      1.0  0.62886  0.61288  0.61424  1.0000
  C   C390      1.0  0.62051  0.62584  0.63680  1.0000
  C   C391      1.0  0.62170  0.62136  0.67032  1.0000
  C   C392      1.0  0.45025  0.97789  0.55351  1.0000
  H   H387      1.0  0.64551  0.58668  0.60745  1.0000
  H   H388      1.0  0.62847  0.61653  0.58832  1.0000
  H   H389      1.0  0.45543  0.70304  0.00963  1.0000
  Fe  Fe72      1.0  0.37198  0.77637  0.90651  1.0000
  H   H390      1.0  0.47830  0.57916  0.72783  1.0000
  H   H391      1.0  0.41842  0.87913  0.94663  1.0000
  C   C393      1.0  0.39679  0.86892  0.77671  1.0000
  C   C394      1.0  0.39531  0.97829  0.63223  1.0000
  Fe  Fe73      1.0  0.53368  0.87629  0.51463  1.0000
  C   C395      1.0  0.39535  0.98019  0.59802  1.0000
  H   H392      1.0  0.55324  0.94059  0.52382  1.0000
  H   H393      1.0  0.38534  0.96247  0.58244  1.0000
  S   S148      1.0  0.35127  0.88811  0.58029  1.0000
  C   C396      1.0  0.40524  0.83187  0.78018  1.0000
  H   H394      1.0  0.40496  0.81293  0.73386  1.0000
  C   C397      1.0  0.52144  0.69083  0.89466  1.0000
  H   H395      1.0  0.44883  0.85966  0.65870  1.0000
  H   H396      1.0  0.43535  0.65435  0.00057  1.0000
  C   C398      1.0  0.49144  0.72093  0.83920  1.0000
  H   H397      1.0  0.61606  0.63173  0.68806  1.0000
  C   C399      1.0  0.50827  0.69786  0.80590  1.0000
  C   C400      1.0  0.49521  0.71270  0.80829  1.0000
  C   C401      1.0  0.40822  0.00163  0.65203  1.0000
  H   H398      1.0  0.38933  0.87833  0.72768  1.0000
  C   C402      1.0  0.46149  0.99796  0.61786  1.0000
  N   N36       1.0  0.44392  0.83370  0.61826  1.0000
  H   H399      1.0  0.40810  0.00040  0.67853  1.0000
  C   C403      1.0  0.42012  0.82857  0.60493  1.0000
  C   C404      1.0  0.41413  0.82230  0.57133  1.0000
  N   N37       1.0  0.44554  0.57338  0.75572  1.0000
  C   C405      1.0  0.43583  0.56969  0.78657  1.0000
  C   C406      1.0  0.43505  0.58181  0.73126  1.0000
  C   C407      1.0  0.41555  0.57517  0.79377  1.0000
  C   C408      1.0  0.41481  0.58756  0.73768  1.0000
  C   C409      1.0  0.40512  0.58430  0.76921  1.0000
  C   C410      1.0  0.46682  0.56757  0.74869  1.0000
  H   H400      1.0  0.44426  0.56320  0.80606  1.0000
  H   H401      1.0  0.44295  0.58504  0.70688  1.0000
  H   H402      1.0  0.40811  0.57269  0.81833  1.0000
  H   H403      1.0  0.42848  0.81684  0.52520  1.0000
  C   C411      1.0  0.57571  0.79865  0.53360  1.0000
  H   H404      1.0  0.62987  0.87777  0.52299  1.0000
  H   H405      1.0  0.43949  0.95744  0.63200  1.0000
  H   H406      1.0  0.43120  0.91127  0.92899  1.0000
  H   H407      1.0  0.51110  0.88575  0.88656  1.0000
  H   H408      1.0  0.43511  0.82539  0.66833  1.0000
  H   H409      1.0  0.51154  0.69153  0.78197  1.0000
  C   C412      1.0  0.50054  0.71385  0.86738  1.0000
  C   C413      1.0  0.46278  0.88092  0.93545  1.0000
  C   C414      1.0  0.48513  0.87982  0.92595  1.0000
  H   H410      1.0  0.48776  0.90148  0.84841  1.0000
  H   H411      1.0  0.47416  0.70370  0.56220  1.0000
  C   C415      1.0  0.63185  0.60490  0.68116  1.0000
  C   C416      1.0  0.40261  0.82857  0.74572  1.0000
  H   H412      1.0  0.52690  0.67929  0.83265  1.0000
  H   H413      1.0  0.45878  0.54620  0.74247  1.0000
  H   H414      1.0  0.39459  0.88463  0.78863  1.0000
  H   H415      1.0  0.36363  0.56979  0.90399  1.0000
  Fe  Fe74      1.0  0.37791  0.86017  0.64955  1.0000
  H   H416      1.0  0.46951  0.84446  0.66140  1.0000
  H   H417      1.0  0.48812  0.71792  0.78623  1.0000
  H   H418      1.0  0.37301  0.76137  0.98191  1.0000
  C   C417      1.0  0.39375  0.86536  0.74219  1.0000
  C   C418      1.0  0.46216  0.83241  0.59893  1.0000
  C   C419      1.0  0.62055  0.52992  0.74181  1.0000
  C   C420      1.0  0.45113  0.88110  0.51407  1.0000
  C   C421      1.0  0.43258  0.82092  0.55145  1.0000
  C   C422      1.0  0.48120  0.89607  0.87314  1.0000
  C   C423      1.0  0.36915  0.76431  0.00716  1.0000
  H   H419      1.0  0.48138  0.83728  0.60910  1.0000
  H   H420      1.0  0.46971  0.67164  0.57210  1.0000
  H   H421      1.0  0.37639  0.71824  0.87346  1.0000
  H   H422      1.0  0.49587  0.65493  0.54817  1.0000
  C   C424      1.0  0.58777  0.78253  0.53334  1.0000
  C   C425      1.0  0.61741  0.52210  0.77432  1.0000
  H   H423      1.0  0.46528  0.00562  0.64312  1.0000
  C   C426      1.0  0.44697  0.97062  0.61171  1.0000
  H   H424      1.0  0.53537  0.77033  0.59679  1.0000
  H   H425      1.0  0.49609  0.70078  0.59202  1.0000
  C   C427      1.0  0.48462  0.69248  0.56844  1.0000
  H   H426      1.0  0.39558  0.81923  0.56070  1.0000
  C   C428      1.0  0.44981  0.84117  0.65335  1.0000
  C   C429      1.0  0.40788  0.00520  0.58389  1.0000
  H   H427      1.0  0.45559  0.87453  0.95974  1.0000
  N   N38       1.0  0.51240  0.69842  0.86486  1.0000
  H   H428      1.0  0.35278  0.70657  0.92346  1.0000
  Fe  Fe75      1.0  0.36970  0.90689  0.62988  1.0000
  H   H429      1.0  0.57658  0.97550  0.56760  1.0000
  C   C430      1.0  0.43005  0.54892  0.53327  1.0000
  C   C431      1.0  0.45460  0.57017  0.52711  1.0000
  H   H430      1.0  0.44900  0.90400  0.86678  1.0000
  H   H431      1.0  0.38965  0.58899  0.77481  1.0000
  C   C432      1.0  0.51688  0.69094  0.83464  1.0000
  C   C433      1.0  0.65219  0.92028  0.52088  1.0000
  H   H432      1.0  0.40744  0.00648  0.55742  1.0000
  H   H433      1.0  0.64562  0.00091  0.53703  1.0000
  S   S149      1.0  0.65645  0.57476  0.67431  1.0000
  C   C434      1.0  0.55657  0.79387  0.55642  1.0000
  H   H434      1.0  0.54724  0.80616  0.55716  1.0000
  H   H435      1.0  0.41087  0.88147  0.90438  1.0000
  H   H436      1.0  0.35912  0.67913  0.93014  1.0000
  S   S150      1.0  0.36103  0.83837  0.60105  1.0000
  H   H437      1.0  0.37479  0.71015  0.81351  1.0000
  C   C435      1.0  0.50645  0.67326  0.53562  1.0000
  C   C436      1.0  0.57611  0.98093  0.54232  1.0000
  Fe  Fe76      1.0  0.67131  0.55099  0.64459  1.0000
  H   H438      1.0  0.65571  0.92345  0.54731  1.0000
  C   C437      1.0  0.47547  0.88198  0.51901  1.0000
  H   H439      1.0  0.47627  0.53507  0.54993  1.0000
  H   H440      1.0  0.44569  0.97021  0.52825  1.0000
  C   C438      1.0  0.46469  0.00515  0.56054  1.0000
  C   C439      1.0  0.36130  0.69469  0.82879  1.0000
  H   H441      1.0  0.51318  0.73433  0.53302  1.0000
  C   C440      1.0  0.51585  0.71743  0.52687  1.0000
  S   S151      1.0  0.57682  0.88977  0.51590  1.0000
  C   C441      1.0  0.58888  0.00753  0.53400  1.0000
  C   C442      1.0  0.34933  0.58635  0.86686  1.0000
  C   C443      1.0  0.46478  0.51428  0.54259  1.0000
  H   H442      1.0  0.61703  0.51739  0.69120  1.0000
  C   C444      1.0  0.52461  0.67521  0.51262  1.0000
  H   H443      1.0  0.68157  0.65139  0.63671  1.0000
  C   C445      1.0  0.84485  0.36607  0.31257  1.0000
  S   S152      1.0  0.71386  0.12827  0.47730  1.0000
  H   H444      1.0  0.74575  0.38809  0.11685  1.0000
  H   H445      1.0  0.68664  0.47029  0.08570  1.0000
  S   S153      1.0  0.74091  0.22489  0.19408  1.0000
  Fe  Fe77      1.0  0.81678  0.37521  0.22615  1.0000
  S   S154      1.0  0.78256  0.37129  0.19632  1.0000
  S   S155      1.0  0.82730  0.34266  0.23019  1.0000
  Fe  Fe78      1.0  0.83451  0.43227  0.24674  1.0000
  S   S156      1.0  0.80142  0.43342  0.21819  1.0000
  S   S157      1.0  0.86902  0.46501  0.27556  1.0000
  Fe  Fe79      1.0  0.77661  0.39327  0.23825  1.0000
  S   S158      1.0  0.73574  0.37542  0.25664  1.0000
  Fe  Fe80      1.0  0.80957  0.41113  0.17801  1.0000
  S   S159      1.0  0.80464  0.41798  0.12421  1.0000
  S   S160      1.0  0.80895  0.39388  0.27012  1.0000
  S   S161      1.0  0.84483  0.41352  0.20458  1.0000
  C   C446      1.0  0.74527  0.19956  0.34005  1.0000
  C   C447      1.0  0.83310  0.38327  0.04256  1.0000
  C   C448      1.0  0.80730  0.40370  0.06055  1.0000
  C   C449      1.0  0.81456  0.40303  0.09351  1.0000
  C   C450      1.0  0.83058  0.39184  0.10107  1.0000
  C   C451      1.0  0.83994  0.38214  0.07562  1.0000
  H   H446      1.0  0.85878  0.44576  0.36553  1.0000
  H   H447      1.0  0.79497  0.41239  0.05452  1.0000
  H   H448      1.0  0.83628  0.39122  0.12642  1.0000
  H   H449      1.0  0.85283  0.37406  0.08152  1.0000
  H   H450      1.0  0.73990  0.29222  0.13846  1.0000
  H   H451      1.0  0.69814  0.16990  0.12027  1.0000
  C   C452      1.0  0.71508  0.38737  0.24128  1.0000
  C   C453      1.0  0.72503  0.41123  0.22514  1.0000
  C   C454      1.0  0.70807  0.42055  0.21383  1.0000
  H   H452      1.0  0.76137  0.21007  0.25981  1.0000
  H   H453      1.0  0.83721  0.34739  0.29872  1.0000
  H   H454      1.0  0.74580  0.42276  0.22200  1.0000
  C   C455      1.0  0.80259  0.31032  0.21968  1.0000
  C   C456      1.0  0.77620  0.30389  0.21623  1.0000
  C   C457      1.0  0.75704  0.27769  0.20813  1.0000
  C   C458      1.0  0.76430  0.25796  0.20344  1.0000
  C   C459      1.0  0.79062  0.26448  0.20692  1.0000
  C   C460      1.0  0.80966  0.29051  0.21516  1.0000
  H   H455      1.0  0.77052  0.31897  0.22031  1.0000
  H   H456      1.0  0.73671  0.27279  0.20556  1.0000
  H   H457      1.0  0.79635  0.24935  0.20332  1.0000
  H   H458      1.0  0.82999  0.29535  0.21781  1.0000
  C   C461      1.0  0.85878  0.46917  0.08957  1.0000
  C   C462      1.0  0.69847  0.19195  0.06253  1.0000
  H   H459      1.0  0.71590  0.43928  0.20197  1.0000
  C   C463      1.0  0.83954  0.47418  0.32086  1.0000
  C   C464      1.0  0.86447  0.47966  0.31152  1.0000
  H   H460      1.0  0.80440  0.49660  0.48895  1.0000
  C   C465      1.0  0.79961  0.49644  0.46225  1.0000
  H   H461      1.0  0.82257  0.46109  0.30553  1.0000
  C   C466      1.0  0.75313  0.21096  0.28315  1.0000
  C   C467      1.0  0.83664  0.48617  0.34975  1.0000
  S   S162      1.0  0.69957  0.14075  0.38536  1.0000
  H   H462      1.0  0.71664  0.23565  0.31744  1.0000
  H   H463      1.0  0.73668  0.23471  0.26487  1.0000
  H   H464      1.0  0.87251  0.49060  0.09342  1.0000
  H   H465      1.0  0.89198  0.45485  0.35621  1.0000
  H   H466      1.0  0.71530  0.20567  0.07777  1.0000
  C   C468      1.0  0.86295  0.38941  0.29874  1.0000
  H   H467      1.0  0.77199  0.32011  0.14653  1.0000
  H   H468      1.0  0.71357  0.21324  0.01816  1.0000
  H   H469      1.0  0.86914  0.38894  0.27390  1.0000
  H   H470      1.0  0.83902  0.39186  0.38552  1.0000
  C   C469      1.0  0.72624  0.32521  0.16567  1.0000
  C   C470      1.0  0.88338  0.50805  0.36102  1.0000
  H   H471      1.0  0.90028  0.42872  0.03742  1.0000
  C   C471      1.0  0.74866  0.35235  0.12175  1.0000
  C   C472      1.0  0.84601  0.39124  0.36125  1.0000
  Fe  Fe81      1.0  0.68764  0.13213  0.43824  1.0000
  H   H472      1.0  0.87848  0.43715  0.39252  1.0000
  H   H473      1.0  0.84257  0.46910  0.02763  1.0000
  C   C473      1.0  0.87236  0.41338  0.31673  1.0000
  H   H474      1.0  0.74737  0.18920  0.36094  1.0000
  H   H475      1.0  0.69946  0.21062  0.36920  1.0000
  C   C474      1.0  0.71986  0.21432  0.37353  1.0000
  H   H476      1.0  0.81000  0.48753  0.44874  1.0000
  H   H477      1.0  0.88606  0.43149  0.30552  1.0000
  N   N39       1.0  0.74178  0.33013  0.13930  1.0000
  C   C475      1.0  0.85851  0.50304  0.36998  1.0000
  H   H478      1.0  0.70127  0.14887  0.31585  1.0000
  C   C476      1.0  0.83618  0.36694  0.34394  1.0000
  C   C477      1.0  0.88841  0.43849  0.03506  1.0000
  H   H479      1.0  0.83840  0.46594  0.08735  1.0000
  H   H480      1.0  0.71886  0.19904  0.39059  1.0000
  C   C478      1.0  0.72372  0.36521  0.15703  1.0000
  C   C479      1.0  0.72802  0.22535  0.31577  1.0000
  H   H481      1.0  0.90573  0.50123  0.32433  1.0000
  C   C480      1.0  0.88165  0.44804  0.06296  1.0000
  C   C481      1.0  0.73958  0.37010  0.13018  1.0000
  H   H482      1.0  0.76690  0.18719  0.30844  1.0000
  C   C482      1.0  0.85569  0.46077  0.02987  1.0000
  S   S163      1.0  0.86224  0.49998  0.48961  1.0000
  C   C483      1.0  0.81644  0.39378  0.03518  1.0000
  S   S164      1.0  0.68877  0.23444  0.24031  1.0000
  N   N40       1.0  0.86530  0.45880  0.06014  1.0000
  C   C484      1.0  0.73909  0.22474  0.28591  1.0000
  H   H483      1.0  0.77822  0.48384  0.45796  1.0000
  C   C485      1.0  0.87382  0.43914  0.36642  1.0000
  H   H484      1.0  0.75713  0.31280  0.10544  1.0000
  C   C486      1.0  0.69765  0.19632  0.02892  1.0000
  H   H485      1.0  0.71717  0.37915  0.16460  1.0000
  C   C487      1.0  0.75324  0.31296  0.13200  1.0000
  H   H486      1.0  0.81735  0.48237  0.35638  1.0000
  H   H487      1.0  0.70579  0.33933  0.19678  1.0000
  H   H488      1.0  0.82174  0.34893  0.35459  1.0000
  N   N41       1.0  0.86413  0.41398  0.34777  1.0000
  H   H489      1.0  0.85965  0.45870  0.11185  1.0000
  C   C488      1.0  0.88637  0.49676  0.33156  1.0000
  C   C489      1.0  0.75628  0.19825  0.31037  1.0000
  C   C490      1.0  0.71710  0.34271  0.17497  1.0000
  Fe  Fe82      1.0  0.69978  0.21750  0.19761  1.0000
  Fe  Fe83      1.0  0.70242  0.15321  0.50919  1.0000
  H   H490      1.0  0.72169  0.30827  0.18052  1.0000
  N   N42       1.0  0.73114  0.21279  0.34232  1.0000
  H   H491      1.0  0.73181  0.23408  0.38580  1.0000
  C   C491      1.0  0.68812  0.37266  0.24547  1.0000
  H   H492      1.0  0.88890  0.44602  0.08696  1.0000
  H   H493      1.0  0.76199  0.35699  0.10183  1.0000
  C   C492      1.0  0.68637  0.15291  0.32537  1.0000
  Fe  Fe84      1.0  0.90313  0.50909  0.50303  1.0000
  H   H494      1.0  0.79653  0.50965  0.40085  1.0000
  C   C493      1.0  0.00367  0.38822  0.55109  1.0000
  Fe  Fe85      1.0  0.86288  0.35768  0.61197  1.0000
  S   S165      1.0  0.88802  0.34733  0.58077  1.0000
  S   S166      1.0  0.84373  0.38117  0.59406  1.0000
  Fe  Fe86      1.0  0.86812  0.32861  0.67061  1.0000
  S   S167      1.0  0.89399  0.31611  0.64405  1.0000
  S   S168      1.0  0.85421  0.31282  0.72077  1.0000
  Fe  Fe87      1.0  0.91454  0.35783  0.62636  1.0000
  S   S169      1.0  0.95724  0.39069  0.62843  1.0000
  Fe  Fe88      1.0  0.86502  0.30665  0.60101  1.0000
  S   S170      1.0  0.84864  0.26802  0.57018  1.0000
  S   S171      1.0  0.89030  0.37071  0.65625  1.0000
  S   S172      1.0  0.83822  0.31659  0.62904  1.0000
  C   C494      1.0  0.69719  0.42904  0.80676  1.0000
  Fe  Fe89      1.0  0.83952  0.37508  0.88444  1.0000
  S   S173      1.0  0.83052  0.34235  0.91943  1.0000
  S   S174      1.0  0.86841  0.38826  0.84360  1.0000
  Fe  Fe90      1.0  0.80166  0.39024  0.91544  1.0000
  S   S175      1.0  0.78871  0.35850  0.95201  1.0000
  S   S176      1.0  0.78664  0.41940  0.91971  1.0000
  Fe  Fe91      1.0  0.83102  0.37052  0.95898  1.0000
  H   H495      1.0  0.69868  0.31018  0.83754  1.0000
  Fe  Fe92      1.0  0.78878  0.33296  0.91001  1.0000
  S   S177      1.0  0.75679  0.29088  0.90805  1.0000
  S   S178      1.0  0.84432  0.40441  0.92512  1.0000
  S   S179      1.0  0.79760  0.36356  0.87217  1.0000
  C   C495      1.0  0.70441  0.38633  0.87415  1.0000
  C   C496      1.0  0.71870  0.37298  0.86893  1.0000
  C   C497      1.0  0.74392  0.38294  0.88312  1.0000
  C   C498      1.0  0.75515  0.40664  0.90189  1.0000
  C   C499      1.0  0.74094  0.42012  0.90692  1.0000
  C   C500      1.0  0.71546  0.40978  0.89340  1.0000
  H   H496      1.0  0.71013  0.35469  0.85434  1.0000
  H   H497      1.0  0.75456  0.37219  0.87957  1.0000
  H   H498      1.0  0.74951  0.43837  0.92164  1.0000
  H   H499      1.0  0.75173  0.42383  0.81894  1.0000
  C   C501      1.0  0.72665  0.28503  0.89050  1.0000
  C   C502      1.0  0.70405  0.26249  0.89915  1.0000
  C   C503      1.0  0.83475  0.46888  0.60406  1.0000
  C   C504      1.0  0.72607  0.35911  0.96304  1.0000
  C   C505      1.0  0.70017  0.29694  0.85482  1.0000
  C   C506      1.0  0.72473  0.30240  0.86845  1.0000
  H   H500      1.0  0.70544  0.24910  0.91632  1.0000
  H   H501      1.0  0.96652  0.38468  0.71330  1.0000
  C   C507      1.0  0.86168  0.48330  0.59986  1.0000
  H   H502      1.0  0.74216  0.31977  0.86154  1.0000
  C   C508      1.0  0.98871  0.39289  0.63167  1.0000
  S   S180      1.0  0.72662  0.18870  0.54471  1.0000
  C   C509      1.0  0.99236  0.37064  0.63044  1.0000
  H   H503      1.0  0.74529  0.36976  0.97523  1.0000
  H   H504      1.0  0.97558  0.35109  0.62867  1.0000
  C   C510      1.0  0.85479  0.33416  0.75298  1.0000
  C   C511      1.0  0.84332  0.32335  0.78267  1.0000
  C   C512      1.0  0.84602  0.33985  0.81009  1.0000
  C   C513      1.0  0.86062  0.36730  0.80815  1.0000
  C   C514      1.0  0.87143  0.37813  0.77816  1.0000
  C   C515      1.0  0.86837  0.36164  0.75057  1.0000
  H   H505      1.0  0.83279  0.30212  0.78476  1.0000
  H   H506      1.0  0.83766  0.33131  0.83312  1.0000
  H   H507      1.0  0.88273  0.39935  0.77653  1.0000
  H   H508      1.0  0.87731  0.37019  0.72788  1.0000
  C   C516      1.0  0.76066  0.21172  0.54752  1.0000
  C   C517      1.0  0.76898  0.23582  0.56522  1.0000
  C   C518      1.0  0.79576  0.25358  0.57135  1.0000
  C   C519      1.0  0.81472  0.24742  0.56009  1.0000
  C   C520      1.0  0.80645  0.22351  0.54190  1.0000
  H   H509      1.0  0.80365  0.43304  0.62214  1.0000
  H   H510      1.0  0.80167  0.27186  0.58521  1.0000
  C   C521      1.0  0.72896  0.46593  0.84056  1.0000
  H   H511      1.0  0.88091  0.44253  0.63406  1.0000
  C   C522      1.0  0.89696  0.45216  0.53516  1.0000
  C   C523      1.0  0.90698  0.43727  0.55067  1.0000
  C   C524      1.0  0.89056  0.41502  0.56814  1.0000
  C   C525      1.0  0.86399  0.40736  0.56970  1.0000
  H   H512      1.0  0.86937  0.50199  0.58774  1.0000
  C   C526      1.0  0.71033  0.37112  0.95978  1.0000
  H   H513      1.0  0.92758  0.44327  0.54977  1.0000
  H   H514      1.0  0.89859  0.40408  0.58087  1.0000
  C   C527      1.0  0.77960  0.20577  0.53557  1.0000
  H   H515      1.0  0.78365  0.49920  0.58503  1.0000
  S   S181      1.0  0.69128  0.50171  0.60327  1.0000
  H   H516      1.0  0.73453  0.48402  0.85494  1.0000
  H   H517      1.0  0.83359  0.41626  0.64166  1.0000
  C   C528      1.0  0.82455  0.44470  0.61933  1.0000
  H   H518      1.0  0.70461  0.42015  0.89769  1.0000
  C   C529      1.0  0.71724  0.33362  0.94975  1.0000
  C   C530      1.0  0.68621  0.35769  0.94243  1.0000
  C   C531      1.0  0.85383  0.42189  0.55351  1.0000
  H   H519      1.0  0.72934  0.32405  0.95169  1.0000
  C   C532      1.0  0.70434  0.45265  0.82464  1.0000
  H   H520      1.0  0.71520  0.38281  0.79697  1.0000
  C   C533      1.0  0.70640  0.39430  0.78575  1.0000
  C   C534      1.0  0.74621  0.45564  0.83818  1.0000
  C   C535      1.0  0.84133  0.43540  0.63058  1.0000
  H   H521      1.0  0.68487  0.38124  0.78556  1.0000
  H   H522      1.0  0.94283  0.39521  0.70215  1.0000
  H   H523      1.0  0.96614  0.38701  0.55141  1.0000
  S   S182      1.0  0.84741  0.37368  0.01099  1.0000
  H   H524      1.0  0.69072  0.46040  0.82653  1.0000
  H   H525      1.0  0.71267  0.39879  0.76011  1.0000
  N   N43       1.0  0.93409  0.37134  0.74418  1.0000
  C   C536      1.0  0.91944  0.34530  0.75133  1.0000
  C   C537      1.0  0.93899  0.39079  0.76747  1.0000
  C   C538      1.0  0.90898  0.33819  0.78237  1.0000
  C   C539      1.0  0.92869  0.38437  0.79870  1.0000
  C   C540      1.0  0.91355  0.35789  0.80609  1.0000
  C   C541      1.0  0.94534  0.37863  0.71177  1.0000
  H   H526      1.0  0.91502  0.32982  0.73274  1.0000
  H   H527      1.0  0.91548  0.47637  0.60530  1.0000
  H   H528      1.0  0.89637  0.31758  0.78742  1.0000
  H   H529      1.0  0.95051  0.41143  0.76177  1.0000
  H   H530      1.0  0.90452  0.35272  0.82973  1.0000
  N   N44       1.0  0.87795  0.47377  0.61039  1.0000
  H   H531      1.0  0.99551  0.36692  0.55099  1.0000
  N   N45       1.0  0.77683  0.21439  0.63932  1.0000
  C   C542      1.0  0.77837  0.23351  0.66115  1.0000
  C   C543      1.0  0.79910  0.21475  0.62885  1.0000
  C   C544      1.0  0.80268  0.25372  0.67300  1.0000
  C   C545      1.0  0.82371  0.23473  0.64012  1.0000
  C   C546      1.0  0.82544  0.25426  0.66237  1.0000
  C   C547      1.0  0.75106  0.19317  0.62788  1.0000
  H   H532      1.0  0.76075  0.23331  0.66932  1.0000
  H   H533      1.0  0.79800  0.20009  0.61084  1.0000
  H   H534      1.0  0.80399  0.26909  0.69006  1.0000
  H   H535      1.0  0.84133  0.23559  0.63072  1.0000
  H   H536      1.0  0.84439  0.27003  0.67103  1.0000
  H   H537      1.0  0.75241  0.18131  0.60683  1.0000
  H   H538      1.0  0.74139  0.17973  0.64812  1.0000
  H   H539      1.0  0.73854  0.20157  0.61882  1.0000
  N   N46       1.0  0.71407  0.41889  0.80495  1.0000
  C   C548      1.0  0.73844  0.43202  0.82002  1.0000
  H   H540      1.0  0.83327  0.41600  0.55469  1.0000
  H   H541      1.0  0.75456  0.24069  0.57459  1.0000
  H   H542      1.0  0.76524  0.46551  0.85094  1.0000
  H   H543      1.0  0.93569  0.36200  0.69324  1.0000
  H   H544      1.0  0.93156  0.39976  0.81674  1.0000
  H   H545      1.0  0.71726  0.39115  0.96937  1.0000
  C   C549      1.0  0.86817  0.45038  0.62611  1.0000
  H   H546      1.0  0.86248  0.45577  0.52453  1.0000
  C   C550      1.0  0.87034  0.44441  0.53649  1.0000
  H   H547      1.0  0.00826  0.43549  0.63494  1.0000
  C   C551      1.0  0.90611  0.48921  0.60579  1.0000
  H   H548      1.0  0.81134  0.39512  0.00984  1.0000
  C   C552      1.0  0.98719  0.39950  0.55126  1.0000
  H   H549      1.0  0.82091  0.21850  0.53304  1.0000
  H   H550      1.0  0.82193  0.47638  0.59522  1.0000
  C   C553      1.0  0.69289  0.32068  0.93299  1.0000
  H   H551      1.0  0.68622  0.30097  0.92271  1.0000
  H   H552      1.0  0.90991  0.49888  0.58172  1.0000
  C   C554      1.0  0.01084  0.41813  0.63388  1.0000
  H   H553      1.0  0.85350  0.45188  0.97758  1.0000
  H   H554      1.0  0.77356  0.18724  0.52214  1.0000
  H   H555      1.0  0.88271  0.43169  0.98259  1.0000
  C   C555      1.0  0.86193  0.45125  0.00145  1.0000
  H   H556      1.0  0.98520  0.43579  0.55367  1.0000
  C   C556      1.0  0.99793  0.42694  0.55277  1.0000
  C   C557      1.0  0.87841  0.44006  0.00418  1.0000
  H   H557      1.0  0.91546  0.50458  0.62582  1.0000
  S   S183      1.0  0.91845  0.48115  0.51596  1.0000
  C   C558      1.0  0.82765  0.57002  0.46152  1.0000
  C   C559      1.0  0.82499  0.57371  0.42816  1.0000
  S   S184      1.0  0.88524  0.56419  0.48427  1.0000
  C   C560      1.0  0.99397  0.61422  0.49310  1.0000
  Fe  Fe93      1.0  0.92490  0.56784  0.49808  1.0000
  H   H558      1.0  0.68784  0.96304  0.43684  1.0000
  H   H559      1.0  0.97766  0.58963  0.44916  1.0000
  C   C561      1.0  0.99542  0.60374  0.46240  1.0000
  S   S185      1.0  0.92090  0.53627  0.46151  1.0000
  H   H560      1.0  0.83696  0.58685  0.47879  1.0000
  H   H561      1.0  0.82173  0.54181  0.49818  1.0000
  C   C562      1.0  0.81892  0.54443  0.47245  1.0000
  H   H562      1.0  0.83233  0.59350  0.41920  1.0000
  Fe  Fe94      1.0  0.88017  0.53002  0.45111  1.0000
  C   C563      1.0  0.81332  0.55182  0.40628  1.0000
  H   H563      1.0  0.81180  0.55444  0.38015  1.0000
  C   C564      1.0  0.80456  0.52649  0.41817  1.0000
  N   N47       1.0  0.80778  0.52311  0.45081  1.0000
  H   H564      1.0  0.90038  0.52133  0.37619  1.0000
  H   H565      1.0  0.00664  0.56388  0.49254  1.0000
  S   S186      1.0  0.85405  0.51885  0.40490  1.0000
  S   S187      1.0  0.96362  0.60480  0.51164  1.0000
  H   H566      1.0  0.99764  0.57887  0.54546  1.0000
  H   H567      1.0  0.83812  0.57497  0.54994  1.0000
  Fe  Fe95      1.0  0.71615  0.54542  0.61236  1.0000
  S   S188      1.0  0.75778  0.56916  0.59456  1.0000
  H   H568      1.0  0.72195  0.64009  0.57543  1.0000
  H   H569      1.0  0.74694  0.61622  0.58749  1.0000
  C   C565      1.0  0.72356  0.61639  0.66292  1.0000
  C   C566      1.0  0.77843  0.55561  0.58324  1.0000
  C   C567      1.0  0.80244  0.57188  0.56897  1.0000
  C   C568      1.0  0.81958  0.56204  0.56033  1.0000
  C   C569      1.0  0.81298  0.53575  0.56607  1.0000
  Fe  Fe96      1.0  0.86885  0.53413  0.52341  1.0000
  C   C570      1.0  0.70964  0.62988  0.65550  1.0000
  S   S189      1.0  0.83395  0.52217  0.55657  1.0000
  C   C571      1.0  0.73672  0.62033  0.60678  1.0000
  H   H570      1.0  0.69866  0.63297  0.67462  1.0000
  C   C572      1.0  0.73729  0.61175  0.63842  1.0000
  N   N48       1.0  0.70913  0.63821  0.62438  1.0000
  S   S190      1.0  0.68530  0.55541  0.59301  1.0000
  C   C573      1.0  0.72245  0.63363  0.60014  1.0000
  S   S191      1.0  0.70447  0.54494  0.66503  1.0000
  H   H571      1.0  0.80795  0.59233  0.56490  1.0000
  C   C574      1.0  0.77175  0.52927  0.58864  1.0000
  H   H572      1.0  0.75348  0.51652  0.59975  1.0000
  S   S192      1.0  0.90870  0.54061  0.54022  1.0000
  C   C575      1.0  0.69507  0.65295  0.61700  1.0000
  H   H573      1.0  0.74801  0.60111  0.64371  1.0000
  H   H574      1.0  0.72318  0.60907  0.68736  1.0000
  H   H575      1.0  0.70911  0.67418  0.61432  1.0000
  H   H576      1.0  0.68280  0.64492  0.59394  1.0000
  C   C576      1.0  0.78898  0.51951  0.58030  1.0000
