data_image0
_chemical_formula_structural       HCSH2SC3HC2HCHC6H4CHC2HC2FeHCHFeSC2H2CHCNH2C2HNCH4S2FeCSC2HFeS2CFeS2FeS2FeSFeS3H2NCSFeHSHCS2FeS2FeS2FeSFeS3C7HCNCHCH2CH2C6H4C6H4C6H5CHCHSC5H4C2HCHC6H5NH3CH3CFeHCH2SCH2CNC4H2CH3CHCH2CNC6H8C5H4C3HCSNFeCH5C2H5CSHCHNCHSCH2CHC2S2HCFeSNSCFe2SFeS2FeHCSFeHS2H2FeS3CFeCSFeCSHS2C2H2CH2C7H4CSCHCHC2HCHC6H5C4H3SCH2CNC6H11CHCH2FeH2SH2CHNCSHFeSCH7SFeS2FeS2FeSFeS3FeHSFeCS2FeHS2HSFeS2HSFeSFeS2HFeS2FeS2FeSFeS3C4H2C6H6C7H4FeCHC3HCH3C8H4C2HCH2C6H4C6H4NCSCHC2HCH2CH3NHC2NH4C3NH2NC3H2C2H3CHCHNCH3CH2CH3SC2HCH3CNHCHCHCHC2FeCNC6H4CH3CHCFeC2H2C2HCHSHFeC2HCSCHCH3CHCH4CNH3SH3CHCSCSFeS2FeS2FeSFeS3FeS2FeSCFeSFeS4HFeSCSFeSFeSHFeS2FeS2FeSFeS3NCSHC6H4C5H2C2HC3H2C6H4CHC3H3C6H4C6H7C7H2CHC6H4C4H2CHFeH4CHC2HCH2NCHCH2SH2CFeH2CNSC5NC6H8CHCNH2C3HCHFeH6C2HCH2NH4NCH2C2H2C4HNCHCHCFeCH2C2HCH3NSC2H2C4H3CH2CHSCSFeC3H2CH3NCNH2C2HCHCH2SHSHCH2SHC2SFeSHSFeSFeSFeS2FeS2FeSFeS5FeS2FeS2FeSFeS3FeS2FeSCFeSFeS3C3HC2HCH2C6H4C6H4C7H3C6H4CH2C2H2C6H7C6H4C2NC3HCHNC2H5CNCH2CHCH2CHC2H2NC6H9CH3CHCHC4HC2H4NHCH2CNCH2CHCHCH3CHC2H3C2HC3SH2CH3CHC2HNHCNHCH3NH3C3H2CH2CHC2HNH3SC2SC2HSHCH2CH8C4SFeSFeS2FeSFeS3FeS2FeS2FeSFeS4FeS2FeS2FeSFeS3FeSFeS2FeSFeS3C4H3C6H4C2H2C6H4C6H4CH2C6HC2HC6H4C4H2C7H4NC6H8NC2NCHCH2C2NH4CHCH2CHC2HC2H2CH3C2H3C2HC2HCH3CHCH4C2H4CH6N2C2H5CNHCSH3C2HCHCH4CSC2NHFeCSFeHSFeS2FeS2H2FeSFeS3FeSHFeSFeSFeS3FeS2FeS3FeS3C4HC7H4NCFeHC6H4CNC2H2C6H4C2HCH2SH4C4H2C2H2C2H3SHCNH2C2HCNHC3HSCH3C2HFeCHC2H6C2HFeC2HCFeS2FeS2FeSFeS3FeHSFeNSH2CS2HSFeS2FeS2FeSFeS3FeS2FeS2FeSCS2H2C8H5C3FeHC7H5C7H2C2SHC6H4C6H4C4HC7H3CNC6H6CH2CH5CHC2NCHNH2CHNC3H2CH8CH2FeHCH3C2HCH3CHCHCHNC2HCH2CH2C4HNHFe2H3SCHCH2CHC3SH2C2NC2H3SCHC6H5CHC5H2C2SCH6CHNCHCNCHC3H3
_chemical_formula_sum              "H768 C768 S256 Fe128 N64"
_cell_length_a       57.026
_cell_length_b       57.0406
_cell_length_c       49.4641
_cell_angle_alpha    89.7825
_cell_angle_beta     90.0727
_cell_angle_gamma    88.6066

_space_group_name_H-M_alt    "P 1"
_space_group_IT_number       1

loop_
  _space_group_symop_operation_xyz
  'x, y, z'

loop_
  _atom_site_type_symbol
  _atom_site_label
  _atom_site_symmetry_multiplicity
  _atom_site_fract_x
  _atom_site_fract_y
  _atom_site_fract_z
  _atom_site_occupancy
  H   H1        1.0  0.43079  0.02922  0.05401  1.0000
  C   C1        1.0  0.02337  0.03995  0.03334  1.0000
  S   S1        1.0  0.44809  0.10574  0.08972  1.0000
  H   H2        1.0  0.23026  0.01216  0.11139  1.0000
  H   H3        1.0  0.43903  0.06652  0.03050  1.0000
  S   S2        1.0  0.07958  0.03456  0.08934  1.0000
  C   C2        1.0  0.05098  0.04791  0.09246  1.0000
  C   C3        1.0  0.04786  0.07194  0.08629  1.0000
  C   C4        1.0  0.02548  0.08316  0.08755  1.0000
  H   H4        1.0  0.48189  0.31105  0.03218  1.0000
  C   C5        1.0  0.00902  0.04659  0.10190  1.0000
  C   C6        1.0  0.03133  0.03528  0.10025  1.0000
  H   H5        1.0  0.06289  0.08196  0.08033  1.0000
  C   C7        1.0  0.44856  0.03562  0.05328  1.0000
  H   H6        1.0  0.03334  0.01685  0.10518  1.0000
  C   C8        1.0  0.41234  0.03580  0.11103  1.0000
  C   C9        1.0  0.43473  0.04068  0.12143  1.0000
  C   C10       1.0  0.44591  0.06192  0.11525  1.0000
  C   C11       1.0  0.43469  0.07881  0.09885  1.0000
  C   C12       1.0  0.41217  0.07405  0.08871  1.0000
  C   C13       1.0  0.40113  0.05267  0.09459  1.0000
  H   H7        1.0  0.44360  0.02789  0.13429  1.0000
  H   H8        1.0  0.46314  0.06526  0.12332  1.0000
  H   H9        1.0  0.40321  0.08700  0.07614  1.0000
  H   H10       1.0  0.38388  0.04935  0.08655  1.0000
  C   C14       1.0  0.48918  0.03239  0.06669  1.0000
  H   H11       1.0  0.02346  0.10157  0.08253  1.0000
  C   C15       1.0  0.45333  0.05665  0.03997  1.0000
  C   C16       1.0  0.47992  0.08717  0.02548  1.0000
  H   H12       1.0  0.46829  0.26255  0.09197  1.0000
  C   C17       1.0  0.27316  0.99854  0.03536  1.0000
  C   C18       1.0  0.22853  0.99549  0.10129  1.0000
  Fe  Fe1       1.0  0.48558  0.11885  0.09604  1.0000
  H   H13       1.0  0.47516  0.08566  0.00381  1.0000
  C   C19       1.0  0.46658  0.02355  0.06691  1.0000
  H   H14       1.0  0.99405  0.03663  0.10817  1.0000
  Fe  Fe2       1.0  0.09273  0.99608  0.08852  1.0000
  S   S3        1.0  0.39962  0.00824  0.11900  1.0000
  C   C20       1.0  0.04412  0.02647  0.03129  1.0000
  C   C21       1.0  0.48693  0.25852  0.09177  1.0000
  H   H15       1.0  0.46929  0.10162  0.03478  1.0000
  H   H16       1.0  0.48227  0.22090  0.09018  1.0000
  C   C22       1.0  0.23120  0.00053  0.02887  1.0000
  H   H17       1.0  0.06084  0.03485  0.02849  1.0000
  C   C23       1.0  0.25163  0.01049  0.03864  1.0000
  N   N1        1.0  0.47557  0.06512  0.03970  1.0000
  H   H18       1.0  0.25073  0.02675  0.04994  1.0000
  H   H19       1.0  0.28878  0.00584  0.04426  1.0000
  C   C24       1.0  0.00584  0.07056  0.09540  1.0000
  C   C25       1.0  0.04336  0.00218  0.03424  1.0000
  H   H20       1.0  0.02427  0.05888  0.03180  1.0000
  N   N2        1.0  0.00246  0.02948  0.03843  1.0000
  C   C26       1.0  0.00159  0.00565  0.04137  1.0000
  H   H21       1.0  0.46282  0.00772  0.07820  1.0000
  H   H22       1.0  0.19078  0.99937  0.09692  1.0000
  H   H23       1.0  0.21426  0.00910  0.03233  1.0000
  H   H24       1.0  0.36349  0.00077  0.21103  1.0000
  S   S4        1.0  0.27694  0.99320  0.10363  1.0000
  S   S5        1.0  0.49183  0.30668  0.09212  1.0000
  Fe  Fe3       1.0  0.34537  0.63001  0.32503  1.0000
  C   C27       1.0  0.39798  0.61739  0.14331  1.0000
  S   S6        1.0  0.36684  0.61294  0.29081  1.0000
  C   C28       1.0  0.02736  0.35964  0.09442  1.0000
  C   C29       1.0  0.17804  0.55806  0.00891  1.0000
  H   H25       1.0  0.37334  0.47452  0.06755  1.0000
  Fe  Fe4       1.0  0.29815  0.62487  0.35134  1.0000
  S   S7        1.0  0.26467  0.60590  0.34538  1.0000
  S   S8        1.0  0.33244  0.60576  0.35751  1.0000
  C   C30       1.0  0.01255  0.34302  0.10550  1.0000
  Fe  Fe5       1.0  0.36471  0.51755  0.11362  1.0000
  S   S9        1.0  0.37806  0.55391  0.12083  1.0000
  S   S10       1.0  0.38277  0.48258  0.12595  1.0000
  Fe  Fe6       1.0  0.31703  0.53686  0.09179  1.0000
  S   S11       1.0  0.32791  0.57429  0.09646  1.0000
  S   S12       1.0  0.28224  0.52455  0.07371  1.0000
  Fe  Fe7       1.0  0.36292  0.56250  0.07940  1.0000
  S   S13       1.0  0.38662  0.58434  0.05193  1.0000
  Fe  Fe8       1.0  0.34211  0.56287  0.13733  1.0000
  S   S14       1.0  0.33020  0.58660  0.17252  1.0000
  S   S15       1.0  0.35126  0.52569  0.07170  1.0000
  S   S16       1.0  0.32955  0.52590  0.13311  1.0000
  H   H26       1.0  0.37474  0.63356  0.20338  1.0000
  H   H27       1.0  0.47984  0.43039  0.15038  1.0000
  N   N3        1.0  0.15737  0.56998  0.01388  1.0000
  C   C31       1.0  0.40715  0.59900  0.00438  1.0000
  S   S17       1.0  0.11877  0.62589  0.41493  1.0000
  Fe  Fe9       1.0  0.11346  0.62693  0.31185  1.0000
  H   H28       1.0  0.20408  0.58636  0.40167  1.0000
  S   S18       1.0  0.11461  0.59486  0.28405  1.0000
  H   H29       1.0  0.02607  0.40497  0.16733  1.0000
  C   C32       1.0  0.35994  0.63257  0.15380  1.0000
  S   S19       1.0  0.14190  0.62699  0.34348  1.0000
  S   S20       1.0  0.08624  0.63898  0.34221  1.0000
  Fe  Fe10      1.0  0.13732  0.54173  0.09912  1.0000
  S   S21       1.0  0.11866  0.57687  0.09899  1.0000
  S   S22       1.0  0.17609  0.54683  0.11072  1.0000
  Fe  Fe11      1.0  0.08974  0.51704  0.09191  1.0000
  S   S23       1.0  0.06885  0.55116  0.09244  1.0000
  S   S24       1.0  0.07187  0.48268  0.07988  1.0000
  Fe  Fe12      1.0  0.09662  0.56441  0.06442  1.0000
  S   S25       1.0  0.09108  0.59175  0.03064  1.0000
  Fe  Fe13      1.0  0.09262  0.56104  0.12707  1.0000
  S   S26       1.0  0.08086  0.58556  0.16132  1.0000
  S   S27       1.0  0.11712  0.53022  0.06226  1.0000
  S   S28       1.0  0.11168  0.52601  0.12869  1.0000
  C   C33       1.0  0.01213  0.43774  0.11430  1.0000
  C   C34       1.0  0.35594  0.62602  0.48480  1.0000
  C   C35       1.0  0.03936  0.44762  0.07829  1.0000
  C   C36       1.0  0.04899  0.46564  0.09395  1.0000
  C   C37       1.0  0.04018  0.46943  0.12000  1.0000
  C   C38       1.0  0.02207  0.45541  0.13016  1.0000
  C   C39       1.0  0.01567  0.36216  0.14873  1.0000
  H   H30       1.0  0.04745  0.48307  0.13240  1.0000
  C   C40       1.0  0.19730  0.56047  0.02617  1.0000
  N   N4        1.0  0.34116  0.46079  0.08083  1.0000
  C   C41       1.0  0.17991  0.61598  0.40144  1.0000
  H   H31       1.0  0.13196  0.56949  0.16103  1.0000
  C   C42       1.0  0.11703  0.63953  0.44720  1.0000
  H   H32       1.0  0.40151  0.64554  0.19059  1.0000
  H   H33       1.0  0.33571  0.43214  0.14041  1.0000
  C   C43       1.0  0.12304  0.62626  0.47036  1.0000
  H   H34       1.0  0.35098  0.47389  0.04183  1.0000
  H   H35       1.0  0.01358  0.42036  0.07580  1.0000
  C   C44       1.0  0.10311  0.59179  0.25080  1.0000
  C   C45       1.0  0.10846  0.57116  0.23627  1.0000
  C   C46       1.0  0.10144  0.56869  0.20906  1.0000
  C   C47       1.0  0.08871  0.58679  0.19614  1.0000
  C   C48       1.0  0.08265  0.60706  0.21097  1.0000
  C   C49       1.0  0.08992  0.60965  0.23807  1.0000
  H   H36       1.0  0.11841  0.55713  0.24602  1.0000
  H   H37       1.0  0.10586  0.55281  0.19815  1.0000
  H   H38       1.0  0.07257  0.62106  0.20129  1.0000
  H   H39       1.0  0.08546  0.62552  0.24903  1.0000
  C   C50       1.0  0.25285  0.53039  0.08483  1.0000
  C   C51       1.0  0.24770  0.54521  0.10662  1.0000
  C   C52       1.0  0.22417  0.54960  0.11443  1.0000
  C   C53       1.0  0.20541  0.53928  0.10069  1.0000
  C   C54       1.0  0.21055  0.52428  0.07903  1.0000
  C   C55       1.0  0.23410  0.51994  0.07115  1.0000
  H   H40       1.0  0.26184  0.55341  0.11737  1.0000
  H   H41       1.0  0.22050  0.56127  0.13117  1.0000
  H   H42       1.0  0.19639  0.51615  0.06826  1.0000
  H   H43       1.0  0.23782  0.50838  0.05432  1.0000
  C   C56       1.0  0.40938  0.46812  0.11540  1.0000
  C   C57       1.0  0.41492  0.44553  0.12558  1.0000
  C   C58       1.0  0.43578  0.43336  0.11793  1.0000
  C   C59       1.0  0.45155  0.44373  0.10008  1.0000
  C   C60       1.0  0.44593  0.46626  0.08982  1.0000
  C   C61       1.0  0.42498  0.47834  0.09728  1.0000
  H   H44       1.0  0.40306  0.43740  0.13963  1.0000
  H   H45       1.0  0.43971  0.41605  0.12597  1.0000
  H   H46       1.0  0.45793  0.47452  0.07601  1.0000
  H   H47       1.0  0.42109  0.49567  0.08924  1.0000
  H   H48       1.0  0.41568  0.61249  0.14950  1.0000
  C   C62       1.0  0.38740  0.58858  0.01609  1.0000
  H   H49       1.0  0.16433  0.59988  0.25203  1.0000
  C   C63       1.0  0.24262  0.62639  0.33651  1.0000
  H   H50       1.0  0.17179  0.59699  0.07217  1.0000
  S   S29       1.0  0.35676  0.62655  0.42901  1.0000
  C   C64       1.0  0.03627  0.37718  0.11099  1.0000
  C   C65       1.0  0.20206  0.63519  0.32478  1.0000
  C   C66       1.0  0.22026  0.61877  0.32974  1.0000
  C   C67       1.0  0.99696  0.49736  0.08435  1.0000
  C   C68       1.0  0.32546  0.64975  0.46351  1.0000
  H   H51       1.0  0.18495  0.62921  0.31925  1.0000
  H   H52       1.0  0.21687  0.60021  0.32884  1.0000
  H   H53       1.0  0.04862  0.41035  0.14332  1.0000
  H   H54       1.0  0.16195  0.56150  0.16870  1.0000
  C   C69       1.0  0.39138  0.61411  0.11635  1.0000
  C   C70       1.0  0.20216  0.60531  0.40076  1.0000
  H   H55       1.0  0.29743  0.45418  0.13988  1.0000
  C   C71       1.0  0.34656  0.44597  0.10186  1.0000
  H   H56       1.0  0.04609  0.44444  0.05816  1.0000
  C   C72       1.0  0.35663  0.60602  0.25778  1.0000
  C   C73       1.0  0.33612  0.61625  0.24698  1.0000
  C   C74       1.0  0.32858  0.61025  0.22078  1.0000
  C   C75       1.0  0.34116  0.59368  0.20512  1.0000
  C   C76       1.0  0.36173  0.58346  0.21583  1.0000
  C   C77       1.0  0.36951  0.58979  0.24190  1.0000
  H   H57       1.0  0.32614  0.62893  0.25877  1.0000
  H   H58       1.0  0.31271  0.61838  0.21269  1.0000
  H   H59       1.0  0.37164  0.57071  0.20407  1.0000
  H   H60       1.0  0.38544  0.58181  0.25001  1.0000
  H   H61       1.0  0.15567  0.58482  0.14531  1.0000
  N   N5        1.0  0.38228  0.62643  0.16166  1.0000
  H   H62       1.0  0.14328  0.63789  0.24512  1.0000
  H   H63       1.0  0.04772  0.39007  0.10221  1.0000
  H   H64       1.0  0.23933  0.61104  0.39781  1.0000
  C   C78       1.0  0.35269  0.62929  0.12707  1.0000
  H   H65       1.0  0.36567  0.44709  0.05221  1.0000
  H   H66       1.0  0.12379  0.55643  0.00577  1.0000
  H   H67       1.0  0.12872  0.60814  0.46813  1.0000
  C   C79       1.0  0.38988  0.63024  0.18962  1.0000
  Fe  Fe14      1.0  0.34004  0.63418  0.38768  1.0000
  H   H68       1.0  0.31597  0.48516  0.06406  1.0000
  C   C80       1.0  0.15507  0.58388  0.03625  1.0000
  H   H69       1.0  0.01067  0.36325  0.16985  1.0000
  H   H70       1.0  0.99332  0.46579  0.02663  1.0000
  S   S30       1.0  0.31039  0.64761  0.31756  1.0000
  C   C81       1.0  0.32023  0.47308  0.08045  1.0000
  H   H71       1.0  0.42176  0.60353  0.01716  1.0000
  H   H72       1.0  0.37085  0.61400  0.48317  1.0000
  C   C82       1.0  0.35856  0.46424  0.05947  1.0000
  N   N6        1.0  0.14895  0.59370  0.18632  1.0000
  C   C83       1.0  0.15900  0.58848  0.21083  1.0000
  C   C84       1.0  0.13703  0.61454  0.18244  1.0000
  C   C85       1.0  0.13528  0.63100  0.20329  1.0000
  C   C86       1.0  0.14972  0.57652  0.16437  1.0000
  H   H73       1.0  0.16035  0.64857  0.40014  1.0000
  H   H74       1.0  0.05352  0.38826  0.16909  1.0000
  C   C87       1.0  0.04023  0.39628  0.15525  1.0000
  H   H75       1.0  0.20984  0.57658  0.06262  1.0000
  H   H76       1.0  0.99485  0.33158  0.14143  1.0000
  H   H77       1.0  0.16752  0.57154  0.21433  1.0000
  C   C88       1.0  0.22192  0.61916  0.39872  1.0000
  H   H78       1.0  0.01621  0.49767  0.04695  1.0000
  C   C89       1.0  0.15747  0.60449  0.23217  1.0000
  H   H79       1.0  0.00531  0.32939  0.09290  1.0000
  H   H80       1.0  0.06915  0.55411  0.99961  1.0000
  C   C90       1.0  0.00666  0.34425  0.13281  1.0000
  N   N7        1.0  0.29011  0.58470  0.27179  1.0000
  C   C91       1.0  0.30532  0.58177  0.29300  1.0000
  C   C92       1.0  0.29337  0.57215  0.24850  1.0000
  C   C93       1.0  0.32482  0.56655  0.29096  1.0000
  C   C94       1.0  0.31265  0.55669  0.24577  1.0000
  C   C95       1.0  0.32851  0.55400  0.26713  1.0000
  C   C96       1.0  0.26987  0.60086  0.27454  1.0000
  H   H81       1.0  0.30265  0.59157  0.31149  1.0000
  H   H82       1.0  0.28145  0.57450  0.23155  1.0000
  H   H83       1.0  0.33737  0.56514  0.30745  1.0000
  H   H84       1.0  0.31571  0.54752  0.22685  1.0000
  H   H85       1.0  0.34398  0.54272  0.26499  1.0000
  H   H86       1.0  0.26266  0.60638  0.25459  1.0000
  H   H87       1.0  0.25592  0.59239  0.28654  1.0000
  H   H88       1.0  0.27496  0.61707  0.28531  1.0000
  C   C97       1.0  0.14554  0.62587  0.22831  1.0000
  C   C98       1.0  0.24698  0.65041  0.33733  1.0000
  C   C99       1.0  0.36857  0.62010  0.10825  1.0000
  C   C100      1.0  0.30959  0.45578  0.12316  1.0000
  C   C101      1.0  0.33095  0.44332  0.12339  1.0000
  H   H89       1.0  0.40368  0.60659  0.10184  1.0000
  H   H90       1.0  0.36314  0.61726  0.08749  1.0000
  H   H91       1.0  0.21366  0.55090  0.02242  1.0000
  H   H92       1.0  0.03175  0.35901  0.07310  1.0000
  C   C102      1.0  0.30411  0.47067  0.10153  1.0000
  C   C103      1.0  0.17388  0.58647  0.05407  1.0000
  C   C104      1.0  0.00189  0.48995  0.05809  1.0000
  H   H93       1.0  0.13859  0.59296  0.04055  1.0000
  C   C105      1.0  0.34468  0.63419  0.46108  1.0000
  S   S31       1.0  0.47874  0.42984  0.09042  1.0000
  N   N8        1.0  0.03034  0.37827  0.13778  1.0000
  Fe  Fe15      1.0  0.11556  0.64224  0.37270  1.0000
  C   C106      1.0  0.02089  0.43393  0.08824  1.0000
  H   H94       1.0  0.31666  0.65628  0.44552  1.0000
  H   H95       1.0  0.36354  0.43696  0.10267  1.0000
  H   H96       1.0  0.16435  0.60545  0.40315  1.0000
  H   H97       1.0  0.28767  0.48069  0.10128  1.0000
  H   H98       1.0  0.34730  0.63929  0.16838  1.0000
  C   C107      1.0  0.21907  0.64354  0.39683  1.0000
  C   C108      1.0  0.19518  0.57490  0.04878  1.0000
  H   H99       1.0  0.12792  0.61804  0.16349  1.0000
  H   H100      1.0  0.35334  0.57489  0.00779  1.0000
  H   H101      1.0  0.01557  0.45846  0.15043  1.0000
  H   H102      1.0  0.00737  0.51088  0.09360  1.0000
  H   H103      1.0  0.33471  0.63334  0.12116  1.0000
  C   C109      1.0  0.17772  0.64041  0.39960  1.0000
  S   S32       1.0  0.30437  0.65094  0.38398  1.0000
  H   H104      1.0  0.12501  0.64708  0.20048  1.0000
  C   C110      1.0  0.31826  0.65773  0.48922  1.0000
  H   H105      1.0  0.39943  0.61443  0.19754  1.0000
  N   N9        1.0  0.19713  0.65380  0.39674  1.0000
  C   C111      1.0  0.13722  0.56730  0.99579  1.0000
  H   H106      1.0  0.26419  0.65650  0.34254  1.0000
  S   S33       1.0  0.35655  0.65708  0.35586  1.0000
  C   C112      1.0  0.07710  0.59076  0.99838  1.0000
  H   H107      1.0  0.47580  0.34231  0.99733  1.0000
  H   H108      1.0  0.48389  0.41052  0.19509  1.0000
  C   C113      1.0  0.36870  0.58280  0.99921  1.0000
  H   H109      1.0  0.23451  0.65413  0.39468  1.0000
  C   C114      1.0  0.22540  0.60031  0.56269  1.0000
  C   C115      1.0  0.12135  0.63607  0.49647  1.0000
  S   S34       1.0  0.14423  0.64898  0.64852  1.0000
  S   S35       1.0  0.07479  0.64878  0.66126  1.0000
  H   H110      1.0  0.38213  0.64951  0.96330  1.0000
  C   C116      1.0  0.34853  0.63378  0.51058  1.0000
  Fe  Fe16      1.0  0.30283  0.62626  0.63348  1.0000
  S   S36       1.0  0.28161  0.59408  0.63996  1.0000
  N   N10       1.0  0.35512  0.58475  0.73323  1.0000
  S   S37       1.0  0.33746  0.62160  0.61232  1.0000
  C   C117      1.0  0.25970  0.63308  0.55375  1.0000
  Fe  Fe17      1.0  0.42016  0.62939  0.83225  1.0000
  Fe  Fe18      1.0  0.35100  0.64520  0.64540  1.0000
  S   S38       1.0  0.39311  0.62941  0.79761  1.0000
  Fe  Fe19      1.0  0.41599  0.61884  0.89394  1.0000
  S   S39       1.0  0.45102  0.63420  0.90209  1.0000
  S   S40       1.0  0.38885  0.60514  0.92419  1.0000
  Fe  Fe20      1.0  0.46390  0.61446  0.86515  1.0000
  H   H111      1.0  0.30347  0.58982  0.69935  1.0000
  C   C118      1.0  0.29082  0.60341  0.56270  1.0000
  S   S41       1.0  0.42892  0.59756  0.85834  1.0000
  Fe  Fe21      1.0  0.12189  0.65782  0.57332  1.0000
  H   H112      1.0  0.35844  0.64708  0.92330  1.0000
  S   S42       1.0  0.31695  0.64721  0.66779  1.0000
  S   S43       1.0  0.29140  0.65736  0.60900  1.0000
  H   H113      1.0  0.12571  0.62552  0.51406  1.0000
  H   H114      1.0  0.05104  0.55401  0.95383  1.0000
  Fe  Fe22      1.0  0.15123  0.62711  0.61166  1.0000
  S   S44       1.0  0.17259  0.59362  0.61505  1.0000
  S   S45       1.0  0.00304  0.64047  0.87939  1.0000
  S   S46       1.0  0.11341  0.62588  0.59832  1.0000
  C   C119      1.0  0.36965  0.58771  0.97119  1.0000
  Fe  Fe23      1.0  0.04100  0.62255  0.81675  1.0000
  C   C120      1.0  0.23601  0.63989  0.55170  1.0000
  S   S47       1.0  0.06846  0.61440  0.78398  1.0000
  Fe  Fe24      1.0  0.03423  0.61540  0.87889  1.0000
  C   C121      1.0  0.36167  0.58576  0.68525  1.0000
  S   S48       1.0  0.04322  0.58940  0.91326  1.0000
  H   H115      1.0  0.29418  0.59381  0.58199  1.0000
  S   S49       1.0  0.02219  0.59583  0.84199  1.0000
  S   S50       1.0  0.05561  0.63988  0.85366  1.0000
  C   C122      1.0  0.05633  0.59073  0.94599  1.0000
  C   C123      1.0  0.05786  0.57012  0.96178  1.0000
  H   H116      1.0  0.30247  0.61874  0.56245  1.0000
  H   H117      1.0  0.09700  0.65321  0.80467  1.0000
  C   C124      1.0  0.06529  0.61138  0.95659  1.0000
  H   H118      1.0  0.35115  0.64591  0.71274  1.0000
  H   H119      1.0  0.06429  0.62737  0.94477  1.0000
  C   C125      1.0  0.07380  0.64064  0.69594  1.0000
  C   C126      1.0  0.09358  0.63183  0.70970  1.0000
  C   C127      1.0  0.09162  0.62405  0.73669  1.0000
  C   C128      1.0  0.07001  0.62541  0.75042  1.0000
  C   C129      1.0  0.05036  0.63475  0.73688  1.0000
  C   C130      1.0  0.05223  0.64211  0.70971  1.0000
  C   C131      1.0  0.40965  0.63381  0.71702  1.0000
  H   H120      1.0  0.10691  0.61675  0.74695  1.0000
  H   H121      1.0  0.03362  0.63585  0.74714  1.0000
  H   H122      1.0  0.42889  0.62781  0.75439  1.0000
  H   H123      1.0  0.36071  0.56466  0.76901  1.0000
  C   C132      1.0  0.36415  0.58242  0.76093  1.0000
  S   S51       1.0  0.00948  0.64684  0.81352  1.0000
  C   C133      1.0  0.07566  0.61135  0.98256  1.0000
  H   H124      1.0  0.38335  0.58536  0.76196  1.0000
  C   C134      1.0  0.38940  0.59810  0.95948  1.0000
  H   H125      1.0  0.31945  0.58716  0.74608  1.0000
  C   C135      1.0  0.38769  0.63864  0.70487  1.0000
  C   C136      1.0  0.40828  0.60352  0.97628  1.0000
  H   H126      1.0  0.35491  0.58344  0.95849  1.0000
  C   C137      1.0  0.33141  0.58665  0.72905  1.0000
  H   H127      1.0  0.42367  0.61137  0.96772  1.0000
  C   C138      1.0  0.25107  0.59542  0.63436  1.0000
  C   C139      1.0  0.23852  0.61665  0.63050  1.0000
  C   C140      1.0  0.21413  0.61656  0.62544  1.0000
  C   C141      1.0  0.20247  0.59520  0.62383  1.0000
  C   C142      1.0  0.21512  0.57416  0.62781  1.0000
  C   C143      1.0  0.23921  0.57428  0.63322  1.0000
  H   H128      1.0  0.24752  0.63309  0.63155  1.0000
  H   H129      1.0  0.20446  0.63291  0.62235  1.0000
  H   H130      1.0  0.20627  0.55763  0.62655  1.0000
  H   H131      1.0  0.24874  0.55784  0.63624  1.0000
  H   H132      1.0  0.48483  0.53597  0.89093  1.0000
  C   C144      1.0  0.24923  0.59421  0.56507  1.0000
  C   C145      1.0  0.32990  0.65006  0.51288  1.0000
  C   C146      1.0  0.39231  0.63501  0.76209  1.0000
  C   C147      1.0  0.41199  0.63205  0.74545  1.0000
  H   H133      1.0  0.35577  0.59582  0.77432  1.0000
  H   H134      1.0  0.35775  0.62777  0.52854  1.0000
  H   H135      1.0  0.03679  0.64883  0.69923  1.0000
  S   S52       1.0  0.38514  0.63851  0.66890  1.0000
  C   C148      1.0  0.36815  0.64216  0.72160  1.0000
  H   H136      1.0  0.08254  0.62744  0.99048  1.0000
  H   H137      1.0  0.11027  0.63054  0.69936  1.0000
  C   C149      1.0  0.33754  0.58758  0.68082  1.0000
  N   N11       1.0  0.10105  0.58059  0.66904  1.0000
  C   C150      1.0  0.10038  0.57280  0.69524  1.0000
  C   C151      1.0  0.08111  0.58920  0.65674  1.0000
  C   C152      1.0  0.07924  0.57308  0.70963  1.0000
  C   C153      1.0  0.05969  0.58968  0.67050  1.0000
  C   C154      1.0  0.05880  0.58160  0.69714  1.0000
  C   C155      1.0  0.12355  0.58132  0.65478  1.0000
  H   H138      1.0  0.11632  0.56680  0.70534  1.0000
  H   H139      1.0  0.08178  0.59651  0.63647  1.0000
  H   H140      1.0  0.07884  0.56760  0.73068  1.0000
  H   H141      1.0  0.04414  0.59733  0.66096  1.0000
  H   H142      1.0  0.04249  0.58276  0.70841  1.0000
  H   H143      1.0  0.12122  0.57954  0.63255  1.0000
  H   H144      1.0  0.13213  0.59824  0.65876  1.0000
  H   H145      1.0  0.13566  0.56680  0.66125  1.0000
  H   H146      1.0  0.21208  0.58746  0.56673  1.0000
  H   H147      1.0  0.27301  0.64601  0.55003  1.0000
  H   H148      1.0  0.38905  0.58339  0.71496  1.0000
  C   C156      1.0  0.37022  0.58425  0.71174  1.0000
  H   H149      1.0  0.33066  0.58885  0.66039  1.0000
  C   C157      1.0  0.32226  0.58811  0.70279  1.0000
  H   H150      1.0  0.25421  0.57644  0.57098  1.0000
  H   H151      1.0  0.29579  0.59197  0.54541  1.0000
  Fe  Fe25      1.0  0.10699  0.65001  0.63380  1.0000
  H   H152      1.0  0.42491  0.63107  0.70435  1.0000
  H   H153      1.0  0.40941  0.65027  0.94512  1.0000
  S   S53       1.0  0.40496  0.64934  0.86758  1.0000
  H   H154      1.0  0.01107  0.55269  0.89805  1.0000
  H   H155      1.0  0.37374  0.58624  0.66831  1.0000
  C   C158      1.0  0.06815  0.57010  0.98779  1.0000
  H   H156      1.0  0.20032  0.62838  0.55510  1.0000
  N   N12       1.0  0.26601  0.61053  0.56068  1.0000
  C   C159      1.0  0.21878  0.62335  0.55623  1.0000
  S   S54       1.0  0.16018  0.65693  0.58421  1.0000
  H   H157      1.0  0.12899  0.58472  0.99101  1.0000
  Fe  Fe26      1.0  0.32696  0.65447  0.58932  1.0000
  S   S55       1.0  0.45607  0.64532  0.83690  1.0000
  C   C160      1.0  0.37046  0.64026  0.74993  1.0000
  H   H158      1.0  0.14221  0.55899  0.97631  1.0000
  H   H159      1.0  0.11437  0.65677  0.77510  1.0000
  H   H160      1.0  0.35509  0.64255  0.76252  1.0000
  H   H161      1.0  0.99287  0.59194  0.90401  1.0000
  H   H162      1.0  0.23104  0.65788  0.54680  1.0000
  H   H163      1.0  0.17973  0.54654  0.99160  1.0000
  H   H164      1.0  0.28488  0.88251  0.26836  1.0000
  S   S56       1.0  0.30538  0.70960  0.35310  1.0000
  Fe  Fe27      1.0  0.29732  0.86102  0.36147  1.0000
  S   S57       1.0  0.31319  0.89648  0.35935  1.0000
  S   S58       1.0  0.26098  0.86060  0.37880  1.0000
  Fe  Fe28      1.0  0.34227  0.83664  0.34476  1.0000
  S   S59       1.0  0.36166  0.87052  0.34169  1.0000
  S   S60       1.0  0.36267  0.80269  0.33832  1.0000
  Fe  Fe29      1.0  0.34358  0.87932  0.38116  1.0000
  S   S61       1.0  0.36252  0.89682  0.41602  1.0000
  Fe  Fe30      1.0  0.32933  0.88433  0.31990  1.0000
  S   S62       1.0  0.32541  0.91073  0.28459  1.0000
  S   S63       1.0  0.32676  0.84459  0.38546  1.0000
  S   S64       1.0  0.31095  0.84978  0.32076  1.0000
  Fe  Fe31      1.0  0.34749  0.94021  0.12589  1.0000
  H   H165      1.0  0.41251  0.89124  0.43175  1.0000
  S   S65       1.0  0.35410  0.91231  0.15899  1.0000
  Fe  Fe32      1.0  0.35009  0.95135  0.06413  1.0000
  C   C161      1.0  0.17592  0.84837  0.48282  1.0000
  S   S66       1.0  0.35371  0.94447  0.01832  1.0000
  S   S67       1.0  0.12123  0.66320  0.29727  1.0000
  Fe  Fe33      1.0  0.31398  0.97646  0.10078  1.0000
  H   H166      1.0  0.17793  0.84871  0.41443  1.0000
  S   S68       1.0  0.37698  0.94955  0.09744  1.0000
  S   S69       1.0  0.32120  0.93845  0.09153  1.0000
  H   H167      1.0  0.04906  0.83626  0.26765  1.0000
  S   S70       1.0  0.06862  0.70264  0.31761  1.0000
  Fe  Fe34      1.0  0.13712  0.96594  0.07531  1.0000
  S   S71       1.0  0.11610  0.93292  0.07648  1.0000
  S   S72       1.0  0.17617  0.95840  0.06539  1.0000
  H   H168      1.0  0.21219  0.86426  0.27389  1.0000
  S   S73       1.0  0.07001  0.96455  0.09192  1.0000
  Fe  Fe35      1.0  0.10033  0.94750  0.11485  1.0000
  S   S74       1.0  0.09995  0.91898  0.14791  1.0000
  Fe  Fe36      1.0  0.08777  0.95242  0.05338  1.0000
  S   S75       1.0  0.06158  0.94033  0.02098  1.0000
  S   S76       1.0  0.12215  0.97998  0.11433  1.0000
  H   H169      1.0  0.15262  0.90060  0.17293  1.0000
  Fe  Fe37      1.0  0.14773  0.84270  0.31687  1.0000
  S   S77       1.0  0.14633  0.88023  0.33002  1.0000
  S   S78       1.0  0.18107  0.82506  0.30287  1.0000
  Fe  Fe38      1.0  0.09638  0.83654  0.32539  1.0000
  S   S79       1.0  0.09058  0.87376  0.33932  1.0000
  S   S80       1.0  0.06531  0.81383  0.31888  1.0000
  Fe  Fe39      1.0  0.11387  0.88323  0.30418  1.0000
  S   S81       1.0  0.10643  0.91526  0.27711  1.0000
  Fe  Fe40      1.0  0.12336  0.86722  0.36390  1.0000
  S   S82       1.0  0.13169  0.87960  0.40675  1.0000
  S   S83       1.0  0.11705  0.84646  0.28872  1.0000
  S   S84       1.0  0.12740  0.82924  0.35222  1.0000
  C   C162      1.0  0.11720  0.87259  0.43749  1.0000
  C   C163      1.0  0.09835  0.85734  0.43839  1.0000
  C   C164      1.0  0.08831  0.85123  0.46344  1.0000
  C   C165      1.0  0.12577  0.88165  0.46193  1.0000
  H   H170      1.0  0.09151  0.85025  0.41980  1.0000
  H   H171      1.0  0.14024  0.89356  0.46150  1.0000
  C   C166      1.0  0.10180  0.91871  0.18385  1.0000
  C   C167      1.0  0.10004  0.93912  0.19939  1.0000
  C   C168      1.0  0.10173  0.93777  0.22787  1.0000
  C   C169      1.0  0.10553  0.91611  0.24113  1.0000
  C   C170      1.0  0.10765  0.89576  0.22555  1.0000
  C   C171      1.0  0.10554  0.89706  0.19715  1.0000
  H   H172      1.0  0.09716  0.95590  0.18951  1.0000
  H   H173      1.0  0.10001  0.95365  0.23969  1.0000
  H   H174      1.0  0.11047  0.87897  0.23539  1.0000
  H   H175      1.0  0.10691  0.88115  0.18535  1.0000
  H   H176      1.0  0.31180  0.97673  0.01988  1.0000
  H   H177      1.0  0.28080  0.90465  0.31093  1.0000
  C   C172      1.0  0.34684  0.70389  0.46547  1.0000
  C   C173      1.0  0.06869  0.73345  0.32075  1.0000
  C   C174      1.0  0.04947  0.74597  0.30996  1.0000
  C   C175      1.0  0.04863  0.77047  0.31032  1.0000
  C   C176      1.0  0.06714  0.78295  0.32122  1.0000
  C   C177      1.0  0.08647  0.77062  0.33249  1.0000
  C   C178      1.0  0.08714  0.74578  0.33247  1.0000
  H   H178      1.0  0.03508  0.73660  0.30109  1.0000
  H   H179      1.0  0.03360  0.77977  0.30175  1.0000
  H   H180      1.0  0.10077  0.78016  0.34119  1.0000
  H   H181      1.0  0.10191  0.73620  0.34122  1.0000
  Fe  Fe41      1.0  0.32002  0.67249  0.35076  1.0000
  C   C179      1.0  0.05173  0.88901  0.23561  1.0000
  H   H182      1.0  0.03419  0.92416  0.30365  1.0000
  C   C180      1.0  0.20360  0.96719  0.07910  1.0000
  C   C181      1.0  0.22383  0.95315  0.07425  1.0000
  C   C182      1.0  0.24626  0.96027  0.08265  1.0000
  H   H183      1.0  0.29221  0.75792  0.35753  1.0000
  C   C183      1.0  0.12548  0.73800  0.28646  1.0000
  H   H184      1.0  0.22221  0.93681  0.06344  1.0000
  H   H185      1.0  0.26162  0.94945  0.07830  1.0000
  H   H186      1.0  0.07074  0.74496  0.48819  1.0000
  C   C184      1.0  0.26807  0.88336  0.27870  1.0000
  C   C185      1.0  0.04702  0.90950  0.30718  1.0000
  C   C186      1.0  0.23933  0.84796  0.35894  1.0000
  C   C187      1.0  0.24495  0.83507  0.33573  1.0000
  C   C188      1.0  0.22695  0.82684  0.31912  1.0000
  C   C189      1.0  0.20345  0.83186  0.32557  1.0000
  C   C190      1.0  0.19793  0.84395  0.34933  1.0000
  C   C191      1.0  0.21585  0.85199  0.36596  1.0000
  H   H187      1.0  0.26309  0.83167  0.33042  1.0000
  H   H188      1.0  0.23127  0.81733  0.30083  1.0000
  H   H189      1.0  0.17985  0.84749  0.35472  1.0000
  H   H190      1.0  0.21153  0.86201  0.38386  1.0000
  C   C192      1.0  0.35921  0.89607  0.45186  1.0000
  C   C193      1.0  0.34640  0.87920  0.46610  1.0000
  H   H191      1.0  0.14479  0.70813  0.30273  1.0000
  C   C194      1.0  0.37161  0.91259  0.46661  1.0000
  H   H192      1.0  0.33675  0.86628  0.45497  1.0000
  H   H193      1.0  0.38154  0.92570  0.45602  1.0000
  C   C195      1.0  0.33228  0.90985  0.24931  1.0000
  C   C196      1.0  0.32460  0.92858  0.23258  1.0000
  C   C197      1.0  0.33054  0.92937  0.20483  1.0000
  C   C198      1.0  0.34440  0.91141  0.19336  1.0000
  C   C199      1.0  0.35180  0.89252  0.21002  1.0000
  C   C200      1.0  0.34577  0.89169  0.23774  1.0000
  H   H194      1.0  0.31415  0.94276  0.24120  1.0000
  H   H195      1.0  0.32469  0.94404  0.19242  1.0000
  H   H196      1.0  0.36247  0.87848  0.20145  1.0000
  H   H197      1.0  0.35186  0.87714  0.25020  1.0000
  C   C201      1.0  0.32188  0.73507  0.34878  1.0000
  C   C202      1.0  0.34573  0.73400  0.34218  1.0000
  C   C203      1.0  0.35817  0.75486  0.33905  1.0000
  C   C204      1.0  0.34683  0.77678  0.34249  1.0000
  C   C205      1.0  0.32307  0.77778  0.34936  1.0000
  C   C206      1.0  0.31066  0.75699  0.35248  1.0000
  H   H198      1.0  0.35448  0.71719  0.33911  1.0000
  H   H199      1.0  0.37655  0.75402  0.33364  1.0000
  H   H200      1.0  0.31418  0.79459  0.35201  1.0000
  H   H201      1.0  0.21656  0.97061  0.00919  1.0000
  N   N13       1.0  0.12492  0.76180  0.28276  1.0000
  C   C207      1.0  0.14325  0.77499  0.29126  1.0000
  S   S85       1.0  0.12349  0.67957  0.36194  1.0000
  C   C208      1.0  0.16261  0.76442  0.30425  1.0000
  H   H202      1.0  0.04618  0.86238  0.30708  1.0000
  C   C209      1.0  0.16320  0.74021  0.30836  1.0000
  C   C210      1.0  0.22555  0.88599  0.30578  1.0000
  H   H203      1.0  0.14300  0.79383  0.28807  1.0000
  C   C211      1.0  0.26570  0.89579  0.30290  1.0000
  H   H204      1.0  0.17709  0.77496  0.31101  1.0000
  H   H205      1.0  0.06461  0.91694  0.31078  1.0000
  C   C212      1.0  0.38134  0.94566  0.22926  1.0000
  H   H206      1.0  0.25049  0.86188  0.24965  1.0000
  H   H207      1.0  0.19452  0.68714  0.41541  1.0000
  H   H208      1.0  0.08897  0.76276  0.27042  1.0000
  N   N14       1.0  0.40255  0.85565  0.43050  1.0000
  H   H209      1.0  0.39992  0.93298  0.15105  1.0000
  C   C213      1.0  0.40467  0.85204  0.40327  1.0000
  C   C214      1.0  0.17059  0.96496  0.16477  1.0000
  N   N15       1.0  0.17035  0.84361  0.45651  1.0000
  H   H210      1.0  0.31518  0.72349  0.41109  1.0000
  H   H211      1.0  0.43463  0.87010  0.44333  1.0000
  H   H212      1.0  0.40807  0.96276  0.14505  1.0000
  H   H213      1.0  0.41510  0.86362  0.39100  1.0000
  C   C215      1.0  0.09717  0.85994  0.48792  1.0000
  C   C216      1.0  0.29683  0.96460  0.02035  1.0000
  C   C217      1.0  0.15241  0.82896  0.45060  1.0000
  N   N16       1.0  0.39506  0.95534  0.18478  1.0000
  H   H214      1.0  0.17889  0.87439  0.43492  1.0000
  H   H215      1.0  0.05933  0.99153  0.03296  1.0000
  N   N17       1.0  0.16346  0.92714  0.14558  1.0000
  C   C218      1.0  0.15811  0.91857  0.17061  1.0000
  C   C219      1.0  0.16989  0.94995  0.14251  1.0000
  C   C220      1.0  0.37209  0.98363  0.20987  1.0000
  H   H216      1.0  0.10126  0.69053  0.47879  1.0000
  H   H217      1.0  0.38674  0.84458  0.46736  1.0000
  C   C221      1.0  0.16229  0.91157  0.12213  1.0000
  C   C222      1.0  0.37894  0.81918  0.40623  1.0000
  H   H218      1.0  0.17409  0.95681  0.12274  1.0000
  H   H219      1.0  0.07366  0.83954  0.46387  1.0000
  H   H220      1.0  0.29799  0.95401  0.00155  1.0000
  C   C223      1.0  0.41558  0.87458  0.44314  1.0000
  H   H221      1.0  0.14451  0.90405  0.12067  1.0000
  C   C224      1.0  0.38445  0.90674  0.00641  1.0000
  H   H222      1.0  0.17562  0.89716  0.12402  1.0000
  N   N18       1.0  0.24477  0.89657  0.31638  1.0000
  C   C225      1.0  0.24267  0.90976  0.34167  1.0000
  H   H223      1.0  0.25936  0.90866  0.35334  1.0000
  H   H224      1.0  0.23816  0.92842  0.33732  1.0000
  H   H225      1.0  0.22908  0.90224  0.35504  1.0000
  C   C226      1.0  0.32871  0.71429  0.42280  1.0000
  H   H226      1.0  0.11088  0.72746  0.27997  1.0000
  H   H227      1.0  0.14730  0.82598  0.42977  1.0000
  C   C227      1.0  0.20606  0.98824  0.09316  1.0000
  H   H228      1.0  0.40095  0.92206  0.20367  1.0000
  H   H229      1.0  0.25516  0.95029  0.00348  1.0000
  H   H230      1.0  0.05281  0.85335  0.22138  1.0000
  S   S86       1.0  0.18291  0.67983  0.32454  1.0000
  C   C228      1.0  0.05129  0.86472  0.23886  1.0000
  C   C229      1.0  0.37047  0.96775  0.23128  1.0000
  H   H231      1.0  0.16555  0.92102  0.10284  1.0000
  C   C230      1.0  0.40808  0.94849  0.16042  1.0000
  H   H232      1.0  0.05392  0.89667  0.21566  1.0000
  H   H233      1.0  0.10945  0.77521  0.24674  1.0000
  H   H234      1.0  0.17769  0.68445  0.38455  1.0000
  C   C231      1.0  0.10515  0.77317  0.26848  1.0000
  N   N19       1.0  0.04804  0.89390  0.28368  1.0000
  H   H235      1.0  0.40701  0.87711  0.99613  1.0000
  C   C232      1.0  0.04921  0.85515  0.26473  1.0000
  H   H236      1.0  0.20890  0.88664  0.31639  1.0000
  C   C233      1.0  0.22728  0.87340  0.28161  1.0000
  H   H237      1.0  0.29918  0.95267  0.03799  1.0000
  C   C234      1.0  0.32921  0.71596  0.45094  1.0000
  H   H238      1.0  0.02147  0.97273  0.04180  1.0000
  C   C235      1.0  0.39301  0.83371  0.39077  1.0000
  C   C236      1.0  0.34570  0.70061  0.40962  1.0000
  Fe  Fe42      1.0  0.36723  0.98728  0.10643  1.0000
  C   C237      1.0  0.23251  0.97889  0.01586  1.0000
  N   N20       1.0  0.36325  0.69024  0.45232  1.0000
  C   C238      1.0  0.18308  0.85525  0.43470  1.0000
  C   C239      1.0  0.13950  0.81867  0.47134  1.0000
  C   C240      1.0  0.10954  0.66289  0.45042  1.0000
  C   C241      1.0  0.24876  0.87194  0.26814  1.0000
  C   C242      1.0  0.05027  0.90341  0.25841  1.0000
  C   C243      1.0  0.36289  0.68855  0.42474  1.0000
  H   H239      1.0  0.37574  0.67754  0.41429  1.0000
  H   H240      1.0  0.10096  0.79070  0.27727  1.0000
  H   H241      1.0  0.04166  0.90012  0.32583  1.0000
  H   H242      1.0  0.18981  0.86035  0.48751  1.0000
  C   C244      1.0  0.16481  0.95645  0.19033  1.0000
  H   H243      1.0  0.05162  0.92224  0.25584  1.0000
  H   H244      1.0  0.34543  0.69931  0.38778  1.0000
  H   H245      1.0  0.38523  0.90336  0.02793  1.0000
  C   C245      1.0  0.38202  0.67829  0.46774  1.0000
  H   H246      1.0  0.17811  0.73169  0.31835  1.0000
  C   C246      1.0  0.04759  0.87008  0.28705  1.0000
  Fe  Fe43      1.0  0.09625  0.67560  0.32960  1.0000
  C   C247      1.0  0.38879  0.84147  0.44586  1.0000
  C   C248      1.0  0.37664  0.82315  0.43393  1.0000
  H   H247      1.0  0.36531  0.81230  0.44600  1.0000
  H   H248      1.0  0.20866  0.68696  0.38253  1.0000
  C   C249      1.0  0.39344  0.93963  0.20561  1.0000
  C   C250      1.0  0.14452  0.72691  0.29946  1.0000
  H   H249      1.0  0.23208  0.68536  0.33376  1.0000
  C   C251      1.0  0.24883  0.98174  0.09582  1.0000
  H   H250      1.0  0.20231  0.85225  0.43701  1.0000
  S   S87       1.0  0.34145  0.98967  0.07188  1.0000
  H   H251      1.0  0.39453  0.83098  0.36911  1.0000
  Fe  Fe44      1.0  0.14764  0.66396  0.33071  1.0000
  C   C252      1.0  0.22875  0.66680  0.33244  1.0000
  C   C253      1.0  0.02201  0.99164  0.03928  1.0000
  H   H252      1.0  0.31600  0.72644  0.46143  1.0000
  C   C254      1.0  0.37069  0.92559  0.99663  1.0000
  S   S88       1.0  0.33902  0.97763  0.13634  1.0000
  C   C255      1.0  0.25435  0.96744  0.01287  1.0000
  H   H253      1.0  0.30382  0.67031  0.49073  1.0000
  C   C256      1.0  0.38464  0.97715  0.18667  1.0000
  H   H254      1.0  0.36041  0.97230  0.24920  1.0000
  H   H255      1.0  0.16484  0.96800  0.20771  1.0000
  H   H256      1.0  0.37957  0.93293  0.24547  1.0000
  C   C257      1.0  0.15868  0.93306  0.19336  1.0000
  H   H257      1.0  0.42660  0.94406  0.16560  1.0000
  C   C258      1.0  0.19441  0.67938  0.39488  1.0000
  H   H258      1.0  0.10470  0.67326  0.43283  1.0000
  H   H259      1.0  0.36947  0.80518  0.39657  1.0000
  H   H260      1.0  0.12467  0.80787  0.46658  1.0000
  H   H261      1.0  0.15370  0.92635  0.21305  1.0000
  C   C259      1.0  0.10757  0.67262  0.47655  1.0000
  N   N21       1.0  0.27432  0.97742  0.02235  1.0000
  H   H262      1.0  0.38755  0.66157  0.45780  1.0000
  H   H263      1.0  0.17531  0.98314  0.16206  1.0000
  H   H264      1.0  0.40971  0.87790  0.46424  1.0000
  S   S89       1.0  0.10968  0.98453  0.04929  1.0000
  H   H265      1.0  0.34703  0.70510  0.48737  1.0000
  H   H266      1.0  0.37596  0.67355  0.48837  1.0000
  H   H267      1.0  0.39739  0.68976  0.46937  1.0000
  C   C260      1.0  0.11596  0.87525  0.48701  1.0000
  H   H268      1.0  0.38574  0.98960  0.17011  1.0000
  C   C261      1.0  0.20612  0.65919  0.32688  1.0000
  S   S90       1.0  0.29357  0.71156  0.65780  1.0000
  C   C262      1.0  0.36165  0.75537  0.64432  1.0000
  S   S91       1.0  0.44393  0.70075  0.89074  1.0000
  Fe  Fe45      1.0  0.33076  0.82842  0.59957  1.0000
  S   S92       1.0  0.36591  0.84509  0.59904  1.0000
  S   S93       1.0  0.32743  0.79255  0.58171  1.0000
  Fe  Fe46      1.0  0.30632  0.87167  0.62079  1.0000
  S   S94       1.0  0.33956  0.89219  0.62173  1.0000
  S   S95       1.0  0.27169  0.88761  0.63425  1.0000
  Fe  Fe47      1.0  0.34651  0.87595  0.58067  1.0000
  S   S96       1.0  0.36032  0.89747  0.54536  1.0000
  Fe  Fe48      1.0  0.35594  0.85946  0.64018  1.0000
  S   S97       1.0  0.38355  0.85526  0.67391  1.0000
  S   S98       1.0  0.31204  0.85836  0.57865  1.0000
  S   S99       1.0  0.32212  0.84006  0.64174  1.0000
  Fe  Fe49      1.0  0.44656  0.84035  0.85382  1.0000
  S   S100      1.0  0.40856  0.84750  0.86354  1.0000
  S   S101      1.0  0.46033  0.80342  0.84240  1.0000
  Fe  Fe50      1.0  0.45791  0.89375  0.85252  1.0000
  S   S102      1.0  0.42022  0.90334  0.86212  1.0000
  C   C263      1.0  0.36378  0.69638  0.88538  1.0000
  Fe  Fe51      1.0  0.42177  0.87447  0.89311  1.0000
  S   S103      1.0  0.41208  0.87618  0.93835  1.0000
  Fe  Fe52      1.0  0.41057  0.87577  0.83155  1.0000
  S   S104      1.0  0.38287  0.88424  0.79899  1.0000
  S   S105      1.0  0.46011  0.86580  0.88497  1.0000
  S   S106      1.0  0.44788  0.86772  0.82048  1.0000
  S   S107      1.0  0.16963  0.71130  0.62910  1.0000
  H   H269      1.0  0.33207  0.73248  0.69225  1.0000
  Fe  Fe53      1.0  0.00925  0.84413  0.85201  1.0000
  S   S108      1.0  0.04726  0.85116  0.84539  1.0000
  C   C264      1.0  0.44248  0.93136  0.95680  1.0000
  S   S109      1.0  0.03300  0.90651  0.83666  1.0000
  Fe  Fe54      1.0  0.03491  0.87406  0.81051  1.0000
  S   S110      1.0  0.05555  0.86472  0.77182  1.0000
  Fe  Fe55      1.0  0.04206  0.88295  0.87197  1.0000
  S   S111      1.0  0.06960  0.89325  0.90345  1.0000
  H   H270      1.0  0.06171  0.67784  0.81158  1.0000
  Fe  Fe56      1.0  0.14469  0.85047  0.59452  1.0000
  S   S112      1.0  0.12167  0.88147  0.58232  1.0000
  S   S113      1.0  0.18214  0.84250  0.58192  1.0000
  Fe  Fe57      1.0  0.10276  0.82173  0.61101  1.0000
  S   S114      1.0  0.07692  0.84971  0.59875  1.0000
  S   S115      1.0  0.08954  0.78868  0.62932  1.0000
  Fe  Fe58      1.0  0.09935  0.85472  0.56170  1.0000
  S   S116      1.0  0.08449  0.85079  0.51897  1.0000
  Fe  Fe59      1.0  0.10140  0.87324  0.62097  1.0000
  S   S117      1.0  0.08402  0.89757  0.65233  1.0000
  S   S118      1.0  0.12294  0.82437  0.57267  1.0000
  S   S119      1.0  0.12662  0.84458  0.63436  1.0000
  N   N22       1.0  0.46495  0.94620  0.91968  1.0000
  C   C265      1.0  0.14500  0.82349  0.49821  1.0000
  S   S120      1.0  0.03438  0.70265  0.84994  1.0000
  H   H271      1.0  0.31566  0.95715  0.57433  1.0000
  C   C266      1.0  0.06497  0.87574  0.73985  1.0000
  C   C267      1.0  0.07995  0.86146  0.72396  1.0000
  C   C268      1.0  0.08617  0.86804  0.69744  1.0000
  C   C269      1.0  0.07774  0.88925  0.68639  1.0000
  C   C270      1.0  0.06330  0.90391  0.70254  1.0000
  C   C271      1.0  0.05683  0.89717  0.72904  1.0000
  H   H272      1.0  0.08659  0.84496  0.73208  1.0000
  H   H273      1.0  0.09741  0.85662  0.68548  1.0000
  H   H274      1.0  0.05675  0.92040  0.69431  1.0000
  H   H275      1.0  0.04530  0.90840  0.74089  1.0000
  C   C272      1.0  0.00717  0.94828  0.90479  1.0000
  C   C273      1.0  0.04516  0.91018  0.94864  1.0000
  C   C274      1.0  0.06695  0.90561  0.93649  1.0000
  C   C275      1.0  0.08740  0.91160  0.95061  1.0000
  C   C276      1.0  0.04395  0.92072  0.97444  1.0000
  H   H276      1.0  0.02925  0.90556  0.93824  1.0000
  H   H277      1.0  0.10437  0.90822  0.94146  1.0000
  C   C277      1.0  0.02210  0.73174  0.85180  1.0000
  C   C278      1.0  0.36000  0.77090  0.68880  1.0000
  H   H278      1.0  0.31358  0.91106  0.52425  1.0000
  C   C279      1.0  0.36990  0.92949  0.96845  1.0000
  C   C280      1.0  0.02796  0.77422  0.84754  1.0000
  C   C281      1.0  0.03646  0.75080  0.84554  1.0000
  H   H279      1.0  0.03931  0.78860  0.84281  1.0000
  H   H280      1.0  0.05436  0.74741  0.83916  1.0000
  C   C282      1.0  0.14858  0.73387  0.63265  1.0000
  C   C283      1.0  0.15286  0.75622  0.62234  1.0000
  C   C284      1.0  0.13499  0.77352  0.62243  1.0000
  C   C285      1.0  0.11277  0.76831  0.63246  1.0000
  C   C286      1.0  0.10874  0.74622  0.64356  1.0000
  C   C287      1.0  0.12671  0.72906  0.64385  1.0000
  H   H281      1.0  0.16956  0.75987  0.61311  1.0000
  H   H282      1.0  0.13828  0.79064  0.61408  1.0000
  H   H283      1.0  0.09159  0.74219  0.65142  1.0000
  H   H284      1.0  0.12352  0.71195  0.65238  1.0000
  C   C288      1.0  0.36490  0.66400  0.91700  1.0000
  H   H285      1.0  0.39032  0.72219  0.89164  1.0000
  C   C289      1.0  0.38245  0.91475  0.95031  1.0000
  C   C290      1.0  0.39581  0.89561  0.96008  1.0000
  C   C291      1.0  0.37158  0.91238  0.49492  1.0000
  H   H286      1.0  0.35896  0.74110  0.63030  1.0000
  H   H287      1.0  0.38147  0.91795  0.92877  1.0000
  H   H288      1.0  0.41650  0.95523  0.79394  1.0000
  C   C292      1.0  0.24666  0.87404  0.62127  1.0000
  C   C293      1.0  0.24892  0.85612  0.60221  1.0000
  C   C294      1.0  0.22892  0.84685  0.59019  1.0000
  C   C295      1.0  0.20647  0.85499  0.59762  1.0000
  C   C296      1.0  0.20406  0.87256  0.61712  1.0000
  C   C297      1.0  0.22418  0.88220  0.62878  1.0000
  H   H289      1.0  0.26608  0.84953  0.59650  1.0000
  H   H290      1.0  0.23085  0.83319  0.57518  1.0000
  H   H291      1.0  0.18677  0.87891  0.62297  1.0000
  H   H292      1.0  0.22231  0.89610  0.64351  1.0000
  C   C298      1.0  0.38186  0.86188  0.70911  1.0000
  C   C299      1.0  0.40012  0.85398  0.72633  1.0000
  C   C300      1.0  0.40035  0.85997  0.75403  1.0000
  C   C301      1.0  0.38234  0.87414  0.76489  1.0000
  C   C302      1.0  0.36389  0.88173  0.74775  1.0000
  C   C303      1.0  0.36358  0.87559  0.72009  1.0000
  H   H293      1.0  0.41438  0.84337  0.71814  1.0000
  H   H294      1.0  0.41468  0.85397  0.76687  1.0000
  H   H295      1.0  0.34983  0.89264  0.75588  1.0000
  H   H296      1.0  0.34939  0.88184  0.70720  1.0000
  H   H297      1.0  0.36237  0.72255  0.69629  1.0000
  H   H298      1.0  0.08057  0.95167  0.86664  1.0000
  H   H299      1.0  0.16747  0.84253  0.52494  1.0000
  C   C304      1.0  0.03669  0.85439  0.66093  1.0000
  C   C305      1.0  0.44595  0.72917  0.87576  1.0000
  C   C306      1.0  0.44204  0.74907  0.89206  1.0000
  C   C307      1.0  0.44522  0.77194  0.88182  1.0000
  C   C308      1.0  0.45300  0.77522  0.85527  1.0000
  C   C309      1.0  0.45675  0.75529  0.83892  1.0000
  C   C310      1.0  0.45288  0.73244  0.84890  1.0000
  H   H300      1.0  0.43683  0.74686  0.91291  1.0000
  H   H301      1.0  0.44246  0.78701  0.89476  1.0000
  C   C311      1.0  0.06559  0.80686  0.90241  1.0000
  H   H302      1.0  0.45588  0.71740  0.83601  1.0000
  C   C312      1.0  0.30097  0.73453  0.63623  1.0000
  C   C313      1.0  0.30817  0.72967  0.60982  1.0000
  C   C314      1.0  0.31564  0.74779  0.59303  1.0000
  C   C315      1.0  0.31589  0.77083  0.60254  1.0000
  C   C316      1.0  0.30789  0.77585  0.62868  1.0000
  C   C317      1.0  0.30042  0.75767  0.64556  1.0000
  H   H303      1.0  0.30807  0.71191  0.60226  1.0000
  H   H304      1.0  0.32164  0.74386  0.57275  1.0000
  H   H305      1.0  0.30781  0.79359  0.63606  1.0000
  H   H306      1.0  0.29469  0.76148  0.66595  1.0000
  C   C318      1.0  0.04706  0.82047  0.68810  1.0000
  C   C319      1.0  0.39678  0.89183  0.98825  1.0000
  C   C320      1.0  0.07690  0.75249  0.50695  1.0000
  C   C321      1.0  0.29896  0.91188  0.53822  1.0000
  H   H307      1.0  0.11470  0.71577  0.56089  1.0000
  H   H308      1.0  0.02895  0.70678  0.74048  1.0000
  C   C322      1.0  0.04728  0.79154  0.90750  1.0000
  H   H309      1.0  0.28258  0.93657  0.59704  1.0000
  Fe  Fe60      1.0  0.14968  0.67887  0.61983  1.0000
  H   H310      1.0  0.34059  0.66710  0.88358  1.0000
  H   H311      1.0  0.99533  0.96736  0.85699  1.0000
  H   H312      1.0  0.09224  0.71999  0.52143  1.0000
  H   H313      1.0  0.01099  0.76604  0.91534  1.0000
  C   C323      1.0  0.36918  0.77686  0.63422  1.0000
  H   H314      1.0  0.37814  0.81224  0.64440  1.0000
  C   C324      1.0  0.37226  0.79550  0.65192  1.0000
  C   C325      1.0  0.34925  0.73010  0.68187  1.0000
  H   H315      1.0  0.35635  0.76878  0.71017  1.0000
  C   C326      1.0  0.04660  0.95084  0.88570  1.0000
  H   H316      1.0  0.34665  0.71708  0.66552  1.0000
  H   H317      1.0  0.06553  0.69801  0.71448  1.0000
  N   N23       1.0  0.08254  0.67735  0.77586  1.0000
  C   C327      1.0  0.44033  0.89938  0.72810  1.0000
  H   H318      1.0  0.40724  0.70196  0.93152  1.0000
  C   C328      1.0  0.99899  0.73650  0.85999  1.0000
  H   H319      1.0  0.48893  0.96541  0.89571  1.0000
  H   H320      1.0  0.08145  0.80065  0.89239  1.0000
  S   S121      1.0  0.00489  0.87429  0.88121  1.0000
  H   H321      1.0  0.13455  0.81634  0.51443  1.0000
  H   H322      1.0  0.40555  0.90837  0.71377  1.0000
  C   C329      1.0  0.02443  0.82250  0.92689  1.0000
  Fe  Fe61      1.0  0.44082  0.66362  0.87350  1.0000
  H   H323      1.0  0.44500  0.88935  0.71021  1.0000
  H   H324      1.0  0.35931  0.94395  0.96055  1.0000
  C   C330      1.0  0.04410  0.69878  0.75045  1.0000
  N   N24       1.0  0.02701  0.79948  0.91953  1.0000
  S   S122      1.0  0.34392  0.67779  0.62030  1.0000
  C   C331      1.0  0.46985  0.96497  0.90032  1.0000
  C   C332      1.0  0.04312  0.69309  0.77787  1.0000
  C   C333      1.0  0.08911  0.73846  0.52581  1.0000
  C   C334      1.0  0.35478  0.67520  0.89445  1.0000
  C   C335      1.0  0.45530  0.91026  0.95577  1.0000
  N   N25       1.0  0.23065  0.75035  0.63279  1.0000
  C   C336      1.0  0.21098  0.75814  0.64613  1.0000
  C   C337      1.0  0.24513  0.76594  0.62053  1.0000
  C   C338      1.0  0.20517  0.78212  0.64710  1.0000
  C   C339      1.0  0.24004  0.79006  0.62143  1.0000
  C   C340      1.0  0.21984  0.79814  0.63470  1.0000
  C   C341      1.0  0.23631  0.72514  0.63240  1.0000
  H   H325      1.0  0.19947  0.74574  0.65578  1.0000
  H   H326      1.0  0.26076  0.75984  0.60996  1.0000
  H   H327      1.0  0.18928  0.78820  0.65721  1.0000
  H   H328      1.0  0.25168  0.80238  0.61188  1.0000
  H   H329      1.0  0.21552  0.81679  0.63534  1.0000
  H   H330      1.0  0.22087  0.71518  0.62558  1.0000
  H   H331      1.0  0.25116  0.72080  0.61862  1.0000
  H   H332      1.0  0.24142  0.71907  0.65301  1.0000
  C   C342      1.0  0.05305  0.96525  0.84046  1.0000
  H   H333      1.0  0.27910  0.88677  0.51571  1.0000
  C   C343      1.0  0.00501  0.77898  0.85629  1.0000
  N   N26       1.0  0.35714  0.75264  0.67132  1.0000
  H   H334      1.0  0.36984  0.80717  0.69318  1.0000
  H   H335      1.0  0.11302  0.67996  0.80010  1.0000
  C   C344      1.0  0.36761  0.79260  0.67938  1.0000
  C   C345      1.0  0.34649  0.87889  0.49490  1.0000
  C   C346      1.0  0.01410  0.96442  0.85944  1.0000
  H   H336      1.0  0.38137  0.92542  0.50571  1.0000
  C   C347      1.0  0.44946  0.91353  0.77273  1.0000
  H   H337      1.0  0.37213  0.77920  0.61270  1.0000
  Fe  Fe62      1.0  0.99539  0.89703  0.84513  1.0000
  H   H338      1.0  0.00823  0.82886  0.93604  1.0000
  H   H339      1.0  0.09842  0.73046  0.58736  1.0000
  H   H340      1.0  0.09966  0.67949  0.73759  1.0000
  H   H341      1.0  0.49043  0.92260  0.90261  1.0000
  H   H342      1.0  0.05300  0.81747  0.74431  1.0000
  H   H343      1.0  0.02737  0.69688  0.78957  1.0000
  C   C348      1.0  0.06319  0.83030  0.91012  1.0000
  C   C349      1.0  0.07257  0.77620  0.51258  1.0000
  H   H344      1.0  0.39433  0.92950  0.75557  1.0000
  C   C350      1.0  0.26154  0.91336  0.57386  1.0000
  H   H345      1.0  0.00371  0.92924  0.90316  1.0000
  H   H346      1.0  0.12284  0.88227  0.50561  1.0000
  N   N27       1.0  0.42755  0.92374  0.77460  1.0000
  H   H347      1.0  0.46020  0.96193  0.88117  1.0000
  H   H348      1.0  0.46468  0.98249  0.90837  1.0000
  H   H349      1.0  0.04927  0.77335  0.90139  1.0000
  H   H350      1.0  0.02302  0.82559  0.75038  1.0000
  N   N28       1.0  0.03484  0.82976  0.70948  1.0000
  C   C351      1.0  0.27943  0.89815  0.53322  1.0000
  H   H351      1.0  0.43703  0.96535  0.93893  1.0000
  H   H352      1.0  0.47329  0.89250  0.74847  1.0000
  C   C352      1.0  0.39217  0.69456  0.92157  1.0000
  C   C353      1.0  0.35925  0.89557  0.50940  1.0000
  H   H353      1.0  0.42838  0.93359  0.97138  1.0000
  H   H354      1.0  0.05365  0.94314  0.90413  1.0000
  C   C354      1.0  0.47268  0.90711  0.93622  1.0000
  C   C355      1.0  0.09243  0.77096  0.55534  1.0000
  C   C356      1.0  0.41819  0.91017  0.73002  1.0000
  C   C357      1.0  0.02418  0.86368  0.68277  1.0000
  H   H355      1.0  0.04049  0.85646  0.92833  1.0000
  N   N29       1.0  0.09692  0.74787  0.54950  1.0000
  C   C358      1.0  0.45612  0.90105  0.74956  1.0000
  H   H356      1.0  0.05821  0.82538  0.64687  1.0000
  C   C359      1.0  0.03509  0.81720  0.73541  1.0000
  H   H357      1.0  0.24544  0.88813  0.54797  1.0000
  C   C360      1.0  0.06263  0.68232  0.79031  1.0000
  Fe  Fe63      1.0  0.30898  0.67813  0.64102  1.0000
  C   C361      1.0  0.32062  0.93965  0.56608  1.0000
  H   H358      1.0  0.01464  0.85896  0.72435  1.0000
  H   H359      1.0  0.24717  0.91385  0.58824  1.0000
  C   C362      1.0  0.04252  0.83820  0.92249  1.0000
  C   C363      1.0  0.04806  0.83258  0.66352  1.0000
  H   H360      1.0  0.12599  0.74170  0.57574  1.0000
  C   C364      1.0  0.42047  0.93659  0.79898  1.0000
  H   H361      1.0  0.46182  0.91465  0.78936  1.0000
  H   H362      1.0  0.43442  0.93604  0.81469  1.0000
  H   H363      1.0  0.10210  0.92655  0.98697  1.0000
  N   N30       1.0  0.29977  0.92588  0.56061  1.0000
  S   S123      1.0  0.10959  0.67216  0.53222  1.0000
  C   C365      1.0  0.08389  0.68340  0.74911  1.0000
  C   C366      1.0  0.10960  0.73320  0.56929  1.0000
  H   H364      1.0  0.03831  0.86448  0.64238  1.0000
  H   H365      1.0  0.02173  0.97660  0.81910  1.0000
  C   C367      1.0  0.41197  0.92215  0.75367  1.0000
  C   C368      1.0  0.08619  0.92206  0.97646  1.0000
  C   C369      1.0  0.02344  0.85108  0.70707  1.0000
  C   C370      1.0  0.38261  0.70614  0.89898  1.0000
  H   H366      1.0  0.09821  0.77820  0.57437  1.0000
  H   H367      1.0  0.01606  0.88103  0.68127  1.0000
  H   H368      1.0  0.33211  0.93017  0.58084  1.0000
  C   C371      1.0  0.39457  0.66126  0.95292  1.0000
  H   H369      1.0  0.45111  0.89600  0.96942  1.0000
  H   H370      1.0  0.33108  0.94245  0.54742  1.0000
  C   C372      1.0  0.26059  0.89895  0.55121  1.0000
  H   H371      1.0  0.33678  0.86583  0.50580  1.0000
  S   S124      1.0  0.47827  0.92737  0.84319  1.0000
  C   C373      1.0  0.06197  0.95577  0.86453  1.0000
  S   S125      1.0  0.11193  0.68178  0.60767  1.0000
  Fe  Fe64      1.0  0.02346  0.66390  0.85118  1.0000
  C   C374      1.0  0.06464  0.69401  0.73593  1.0000
  C   C375      1.0  0.02896  0.96968  0.83788  1.0000
  C   C376      1.0  0.00810  0.78326  0.92544  1.0000
  H   H372      1.0  0.46279  0.75758  0.81837  1.0000
  H   H373      1.0  0.00680  0.78028  0.94756  1.0000
  C   C377      1.0  0.28158  0.92637  0.57862  1.0000
  H   H374      1.0  0.40462  0.92864  0.80789  1.0000
  H   H375      1.0  0.07677  0.80384  0.54171  1.0000
  H   H376      1.0  0.07719  0.84245  0.90624  1.0000
  N   N31       1.0  0.02301  0.95517  0.88299  1.0000
  C   C378      1.0  0.08029  0.78549  0.53697  1.0000
  N   N32       1.0  0.38323  0.67384  0.93036  1.0000
  H   H377      1.0  0.35657  0.70494  0.86747  1.0000
  H   H378      1.0  0.05662  0.80388  0.69009  1.0000
  C   C379      1.0  0.44743  0.94920  0.93834  1.0000
  C   C380      1.0  0.47721  0.92533  0.91810  1.0000
  H   H379      1.0  0.01494  0.95184  0.92493  1.0000
  C   C381      1.0  0.06442  0.92674  0.98859  1.0000
  H   H380      1.0  0.40127  0.67362  0.96823  1.0000
  C   C382      1.0  0.16338  0.83835  0.50407  1.0000
  H   H381      1.0  0.06309  0.78736  0.49823  1.0000
  H   H382      1.0  0.48502  0.67113  0.92270  1.0000
  S   S126      1.0  0.32143  0.66283  0.54426  1.0000
  H   H383      1.0  0.06473  0.96873  0.82369  1.0000
  S   S127      1.0  0.99411  0.80816  0.86222  1.0000
  H   H384      1.0  0.02976  0.79878  0.73263  1.0000
  C   C383      1.0  0.10283  0.66639  0.78958  1.0000
  H   H385      1.0  0.48217  0.89045  0.93472  1.0000
  H   H386      1.0  0.02700  0.92414  0.98362  1.0000
  S   S128      1.0  0.99653  0.86599  0.81650  1.0000
  H   H387      1.0  0.49077  0.70153  0.91853  1.0000
  C   C384      1.0  0.11335  0.65926  0.49973  1.0000
  C   C385      1.0  0.56768  0.19768  0.41935  1.0000
  S   S129      1.0  0.66972  0.29474  0.32362  1.0000
  Fe  Fe65      1.0  0.51790  0.16152  0.09041  1.0000
  S   S130      1.0  0.54996  0.13760  0.09363  1.0000
  H   H388      1.0  0.55754  0.19787  0.40014  1.0000
  S   S131      1.0  0.51593  0.09349  0.10094  1.0000
  Fe  Fe66      1.0  0.53148  0.12060  0.12834  1.0000
  S   S132      1.0  0.55635  0.11201  0.16357  1.0000
  Fe  Fe67      1.0  0.53196  0.11268  0.06588  1.0000
  S   S133      1.0  0.54977  0.08780  0.03523  1.0000
  Fe  Fe68      1.0  0.63533  0.13741  0.33831  1.0000
  S   S134      1.0  0.60385  0.11440  0.34057  1.0000
  S   S135      1.0  0.67034  0.11921  0.33142  1.0000
  Fe  Fe69      1.0  0.60766  0.18039  0.35547  1.0000
  S   S136      1.0  0.57434  0.16069  0.35883  1.0000
  S   S137      1.0  0.60473  0.21719  0.37104  1.0000
  Fe  Fe70      1.0  0.59638  0.13314  0.37983  1.0000
  S   S138      1.0  0.58590  0.11422  0.41855  1.0000
  Fe  Fe71      1.0  0.58493  0.14431  0.31905  1.0000
  S   S139      1.0  0.55541  0.14365  0.28755  1.0000
  S   S140      1.0  0.62903  0.15385  0.37887  1.0000
  S   S141      1.0  0.61706  0.16625  0.31441  1.0000
  S   S142      1.0  0.96159  0.30530  0.10763  1.0000
  S   S143      1.0  0.79454  0.30456  0.31825  1.0000
  Fe  Fe72      1.0  0.84065  0.14100  0.30169  1.0000
  S   S144      1.0  0.82606  0.17746  0.29616  1.0000
  S   S145      1.0  0.85877  0.11997  0.26819  1.0000
  Fe  Fe73      1.0  0.82400  0.13870  0.36131  1.0000
  S   S146      1.0  0.80794  0.17486  0.35999  1.0000
  S   S147      1.0  0.82396  0.11405  0.39753  1.0000
  Fe  Fe74      1.0  0.79460  0.16510  0.31899  1.0000
  S   S148      1.0  0.75935  0.17922  0.30480  1.0000
  Fe  Fe75      1.0  0.84053  0.18403  0.33755  1.0000
  S   S149      1.0  0.85772  0.21709  0.35006  1.0000
  S   S150      1.0  0.80790  0.12778  0.32164  1.0000
  S   S151      1.0  0.85794  0.14855  0.34162  1.0000
  Fe  Fe76      1.0  0.93982  0.16752  0.07244  1.0000
  S   S152      1.0  0.90180  0.16081  0.07936  1.0000
  S   S153      1.0  0.94381  0.20449  0.05432  1.0000
  Fe  Fe77      1.0  0.95356  0.11672  0.08979  1.0000
  S   S154      1.0  0.91563  0.10841  0.09876  1.0000
  C   C386      1.0  0.88235  0.13524  0.47310  1.0000
  Fe  Fe78      1.0  0.90763  0.12610  0.05890  1.0000
  S   S155      1.0  0.87881  0.11347  0.03030  1.0000
  Fe  Fe79      1.0  0.91310  0.14388  0.11854  1.0000
  S   S156      1.0  0.89309  0.16014  0.15441  1.0000
  S   S157      1.0  0.94519  0.13346  0.04910  1.0000
  S   S158      1.0  0.95135  0.15151  0.11229  1.0000
  C   C387      1.0  0.91927  0.25992  0.14514  1.0000
  C   C388      1.0  0.58989  0.16182  0.16191  1.0000
  C   C389      1.0  0.75203  0.22767  0.35166  1.0000
  H   H389      1.0  0.88535  0.16747  0.01892  1.0000
  C   C390      1.0  0.82443  0.11707  0.43332  1.0000
  C   C391      1.0  0.82807  0.09647  0.44832  1.0000
  H   H390      1.0  0.56722  0.29713  0.01318  1.0000
  C   C392      1.0  0.82249  0.13858  0.44713  1.0000
  H   H391      1.0  0.82938  0.07977  0.43805  1.0000
  H   H392      1.0  0.81955  0.15463  0.43578  1.0000
  C   C393      1.0  0.86962  0.13174  0.23742  1.0000
  C   C394      1.0  0.88078  0.11663  0.21873  1.0000
  C   C395      1.0  0.88831  0.12498  0.19335  1.0000
  C   C396      1.0  0.88472  0.14858  0.18634  1.0000
  C   C397      1.0  0.87364  0.16369  0.20509  1.0000
  C   C398      1.0  0.86622  0.15538  0.23050  1.0000
  H   H393      1.0  0.88358  0.09833  0.22388  1.0000
  H   H394      1.0  0.89684  0.11314  0.17919  1.0000
  H   H395      1.0  0.87078  0.18198  0.19990  1.0000
  H   H396      1.0  0.85766  0.16722  0.24460  1.0000
  C   C399      1.0  0.81009  0.27968  0.32982  1.0000
  C   C400      1.0  0.82715  0.28151  0.34996  1.0000
  C   C401      1.0  0.84144  0.26206  0.35679  1.0000
  C   C402      1.0  0.83796  0.24051  0.34428  1.0000
  C   C403      1.0  0.81955  0.23823  0.32582  1.0000
  C   C404      1.0  0.80582  0.25787  0.31830  1.0000
  H   H397      1.0  0.82927  0.29782  0.36047  1.0000
  H   H398      1.0  0.85519  0.26376  0.37171  1.0000
  H   H399      1.0  0.81635  0.22159  0.31653  1.0000
  H   H400      1.0  0.79220  0.25624  0.30320  1.0000
  C   C405      1.0  0.95632  0.27753  0.09228  1.0000
  C   C406      1.0  0.96447  0.25689  0.10539  1.0000
  C   C407      1.0  0.96029  0.23446  0.09453  1.0000
  C   C408      1.0  0.94859  0.23231  0.06980  1.0000
  C   C409      1.0  0.94084  0.25296  0.05642  1.0000
  C   C410      1.0  0.94431  0.27537  0.06774  1.0000
  C   C411      1.0  0.85761  0.31244  0.27704  1.0000
  H   H401      1.0  0.96664  0.21886  0.10499  1.0000
  H   H402      1.0  0.93202  0.25164  0.03712  1.0000
  H   H403      1.0  0.93809  0.29098  0.05719  1.0000
  C   C412      1.0  0.69479  0.13658  0.32507  1.0000
  C   C413      1.0  0.71733  0.12734  0.33048  1.0000
  C   C414      1.0  0.73724  0.14054  0.32494  1.0000
  C   C415      1.0  0.73468  0.16280  0.31324  1.0000
  C   C416      1.0  0.71214  0.17198  0.30763  1.0000
  C   C417      1.0  0.69219  0.15906  0.31396  1.0000
  H   H404      1.0  0.71941  0.10991  0.33901  1.0000
  H   H405      1.0  0.75453  0.13334  0.32941  1.0000
  H   H406      1.0  0.71005  0.18899  0.29810  1.0000
  H   H407      1.0  0.67485  0.16619  0.30949  1.0000
  C   C418      1.0  0.59112  0.12488  0.45168  1.0000
  H   H408      1.0  0.51105  0.06000  0.05270  1.0000
  H   H409      1.0  0.75786  0.20951  0.35416  1.0000
  C   C419      1.0  0.65693  0.11552  0.44670  1.0000
  C   C420      1.0  0.58405  0.11146  0.47398  1.0000
  H   H410      1.0  0.60694  0.15705  0.43934  1.0000
  H   H411      1.0  0.57634  0.09455  0.47069  1.0000
  C   C421      1.0  0.55522  0.12005  0.19828  1.0000
  C   C422      1.0  0.53515  0.13017  0.21008  1.0000
  C   C423      1.0  0.53545  0.13690  0.23753  1.0000
  C   C424      1.0  0.55584  0.13393  0.25340  1.0000
  C   C425      1.0  0.57589  0.12376  0.24159  1.0000
  C   C426      1.0  0.57548  0.11668  0.21429  1.0000
  H   H412      1.0  0.51940  0.13276  0.19812  1.0000
  H   H413      1.0  0.51978  0.14458  0.24651  1.0000
  H   H414      1.0  0.59165  0.12119  0.25355  1.0000
  H   H415      1.0  0.59104  0.10865  0.20546  1.0000
  H   H416      1.0  0.58553  0.19032  0.41519  1.0000
  H   H417      1.0  0.89646  0.21720  0.07469  1.0000
  H   H418      1.0  0.54759  0.15655  0.41214  1.0000
  C   C427      1.0  0.65456  0.27184  0.33890  1.0000
  C   C428      1.0  0.65502  0.24935  0.32753  1.0000
  C   C429      1.0  0.64025  0.23203  0.33774  1.0000
  C   C430      1.0  0.62502  0.23735  0.35916  1.0000
  C   C431      1.0  0.62522  0.25957  0.37098  1.0000
  C   C432      1.0  0.64011  0.27669  0.36103  1.0000
  H   H419      1.0  0.66606  0.24555  0.31025  1.0000
  H   H420      1.0  0.64016  0.21483  0.32861  1.0000
  H   H421      1.0  0.61365  0.26367  0.38772  1.0000
  H   H422      1.0  0.64019  0.29377  0.37043  1.0000
  C   C433      1.0  0.75785  0.26908  0.35784  1.0000
  C   C434      1.0  0.55659  0.19034  0.46651  1.0000
  N   N33       1.0  0.88126  0.12339  0.42653  1.0000
  C   C435      1.0  0.51884  0.22925  0.08996  1.0000
  C   C436      1.0  0.60114  0.14666  0.45627  1.0000
  C   C437      1.0  0.52693  0.27142  0.09201  1.0000
  H   H423      1.0  0.68496  0.13783  0.43412  1.0000
  C   C438      1.0  0.54715  0.17613  0.48668  1.0000
  H   H424      1.0  0.70806  0.26050  0.32332  1.0000
  N   N34       1.0  0.56831  0.17362  0.17132  1.0000
  C   C439      1.0  0.56482  0.17734  0.19835  1.0000
  C   C440      1.0  0.54425  0.18854  0.20753  1.0000
  H   H425      1.0  0.55514  0.17913  0.13140  1.0000
  H   H426      1.0  0.59724  0.14973  0.17762  1.0000
  H   H427      1.0  0.54117  0.19052  0.22908  1.0000
  H   H428      1.0  0.78173  0.24185  0.37245  1.0000
  H   H429      1.0  0.74507  0.31075  0.34070  1.0000
  C   C441      1.0  0.53756  0.15473  0.47963  1.0000
  N   N35       1.0  0.64291  0.08898  0.41302  1.0000
  C   C442      1.0  0.65915  0.09686  0.39507  1.0000
  H   H430      1.0  0.83411  0.08096  0.48741  1.0000
  H   H431      1.0  0.65069  0.30084  0.26769  1.0000
  C   C443      1.0  0.98073  0.04365  0.04055  1.0000
  H   H432      1.0  0.89137  0.24811  0.07259  1.0000
  C   C444      1.0  0.62674  0.07085  0.40444  1.0000
  H   H433      1.0  0.66002  0.08975  0.37477  1.0000
  H   H434      1.0  0.84340  0.09483  0.99566  1.0000
  C   C445      1.0  0.61189  0.08702  0.01737  1.0000
  H   H435      1.0  0.51122  0.20472  0.19563  1.0000
  C   C446      1.0  0.51958  0.31124  0.02875  1.0000
  C   C447      1.0  0.52742  0.19632  0.18882  1.0000
  H   H436      1.0  0.60276  0.07095  0.02393  1.0000
  H   H437      1.0  0.61283  0.06787  0.41973  1.0000
  N   N36       1.0  0.80949  0.11301  0.23167  1.0000
  C   C448      1.0  0.79319  0.11343  0.25195  1.0000
  C   C449      1.0  0.81405  0.13297  0.21735  1.0000
  C   C450      1.0  0.78102  0.13425  0.25842  1.0000
  C   C451      1.0  0.80250  0.15418  0.22363  1.0000
  C   C452      1.0  0.78586  0.15476  0.24428  1.0000
  C   C453      1.0  0.82181  0.09085  0.22525  1.0000
  H   H438      1.0  0.78975  0.09768  0.26349  1.0000
  H   H439      1.0  0.82715  0.13273  0.20143  1.0000
  H   H440      1.0  0.76819  0.13460  0.27463  1.0000
  H   H441      1.0  0.80667  0.17007  0.21274  1.0000
  H   H442      1.0  0.77685  0.17110  0.24960  1.0000
  H   H443      1.0  0.83636  0.09343  0.21068  1.0000
  H   H444      1.0  0.82991  0.08324  0.24389  1.0000
  H   H445      1.0  0.80941  0.07824  0.21650  1.0000
  H   H446      1.0  0.56544  0.30782  0.25057  1.0000
  C   C454      1.0  0.86250  0.26536  0.29044  1.0000
  H   H447      1.0  0.58391  0.28060  0.31598  1.0000
  H   H448      1.0  0.93527  0.24188  0.17911  1.0000
  H   H449      1.0  0.87661  0.15082  0.39742  1.0000
  C   C455      1.0  0.87736  0.16426  0.43781  1.0000
  H   H450      1.0  0.91215  0.27290  0.31239  1.0000
  C   C456      1.0  0.55260  0.08839  0.99937  1.0000
  H   H451      1.0  0.63610  0.31628  0.22336  1.0000
  C   C457      1.0  0.53731  0.14789  0.45258  1.0000
  C   C458      1.0  0.87847  0.14631  0.41862  1.0000
  C   C459      1.0  0.90725  0.25721  0.12071  1.0000
  C   C460      1.0  0.88255  0.10468  0.40630  1.0000
  H   H452      1.0  0.87458  0.18234  0.43142  1.0000
  C   C461      1.0  0.61589  0.29521  0.28309  1.0000
  C   C462      1.0  0.55216  0.18168  0.15283  1.0000
  H   H453      1.0  0.57754  0.17086  0.21309  1.0000
  H   H454      1.0  0.89475  0.28597  0.33935  1.0000
  H   H455      1.0  0.53079  0.13087  0.44695  1.0000
  H   H456      1.0  0.97163  0.03980  0.05990  1.0000
  N   N37       1.0  0.59231  0.29707  0.27827  1.0000
  H   H457      1.0  0.59938  0.10198  0.02088  1.0000
  C   C463      1.0  0.60253  0.15557  0.48280  1.0000
  H   H458      1.0  0.86413  0.24690  0.29573  1.0000
  H   H459      1.0  0.62236  0.28890  0.30244  1.0000
  C   C464      1.0  0.84487  0.27268  0.27238  1.0000
  N   N38       1.0  0.87683  0.28135  0.30212  1.0000
  C   C465      1.0  0.72425  0.25648  0.33408  1.0000
  H   H460      1.0  0.56660  0.05293  0.99795  1.0000
  H   H461      1.0  0.76852  0.28309  0.36550  1.0000
  C   C466      1.0  0.50288  0.27702  0.09231  1.0000
  H   H462      1.0  0.87561  0.11075  0.38636  1.0000
  C   C467      1.0  0.87506  0.30453  0.29500  1.0000
  H   H463      1.0  0.62756  0.08947  0.03028  1.0000
  C   C468      1.0  0.88336  0.11774  0.45335  1.0000
  H   H464      1.0  0.52202  0.29778  0.04407  1.0000
  H   H465      1.0  0.62913  0.09146  0.45304  1.0000
  H   H466      1.0  0.49867  0.09202  0.02653  1.0000
  C   C469      1.0  0.88043  0.10157  0.99704  1.0000
  H   H467      1.0  0.72069  0.21901  0.33000  1.0000
  C   C470      1.0  0.73122  0.23300  0.33787  1.0000
  C   C471      1.0  0.67332  0.12393  0.42834  1.0000
  H   H468      1.0  0.87042  0.23008  0.09008  1.0000
  H   H469      1.0  0.92447  0.20225  0.16269  1.0000
  H   H470      1.0  0.56942  0.21623  0.42566  1.0000
  C   C472      1.0  0.82918  0.11837  0.49046  1.0000
  C   C473      1.0  0.53479  0.24775  0.09066  1.0000
  H   H471      1.0  0.53948  0.28532  0.09261  1.0000
  C   C474      1.0  0.64192  0.09777  0.43872  1.0000
  C   C475      1.0  0.88932  0.23261  0.08600  1.0000
  C   C476      1.0  0.91978  0.21790  0.15110  1.0000
  S   S159      1.0  0.53011  0.19977  0.08754  1.0000
  H   H472      1.0  0.59315  0.31938  0.21477  1.0000
  H   H473      1.0  0.90096  0.09835  0.40375  1.0000
  C   C477      1.0  0.87926  0.15862  0.46523  1.0000
  H   H474      1.0  0.63649  0.05408  0.40081  1.0000
  H   H475      1.0  0.55342  0.24373  0.09011  1.0000
  H   H476      1.0  0.65563  0.12285  0.46688  1.0000
  C   C478      1.0  0.92564  0.24009  0.16034  1.0000
  H   H477      1.0  0.90347  0.19856  0.11948  1.0000
  C   C479      1.0  0.76536  0.24578  0.36196  1.0000
  C   C480      1.0  0.58413  0.30540  0.25397  1.0000
  H   H478      1.0  0.72240  0.30103  0.31879  1.0000
  N   N39       1.0  0.73777  0.27416  0.34357  1.0000
  H   H479      1.0  0.56054  0.28196  0.29165  1.0000
  C   C481      1.0  0.59974  0.31209  0.23370  1.0000
  N   N40       1.0  0.53852  0.32122  0.01678  1.0000
  H   H480      1.0  0.51860  0.19914  0.14641  1.0000
  C   C482      1.0  0.83068  0.09714  0.47643  1.0000
  H   H481      1.0  0.71657  0.30368  0.35446  1.0000
  H   H482      1.0  0.56903  0.30828  0.30912  1.0000
  H   H483      1.0  0.60898  0.17302  0.48599  1.0000
  N   N41       1.0  0.90202  0.23533  0.11154  1.0000
  H   H484      1.0  0.89067  0.25606  0.33044  1.0000
  H   H485      1.0  0.90285  0.27269  0.10875  1.0000
  H   H486      1.0  0.92420  0.27727  0.15171  1.0000
  C   C483      1.0  0.57562  0.29166  0.29981  1.0000
  C   C484      1.0  0.90785  0.21586  0.12655  1.0000
  C   C485      1.0  0.62383  0.31050  0.23859  1.0000
  H   H487      1.0  0.87140  0.08985  0.41250  1.0000
  H   H488      1.0  0.56484  0.20649  0.47231  1.0000
  C   C486      1.0  0.67458  0.11445  0.40241  1.0000
  H   H489      1.0  0.88501  0.09955  0.45969  1.0000
  H   H490      1.0  0.82813  0.30249  0.25275  1.0000
  C   C487      1.0  0.73013  0.29863  0.33930  1.0000
  H   H491      1.0  0.83287  0.26009  0.26412  1.0000
  C   C488      1.0  0.54689  0.16252  0.43293  1.0000
  C   C489      1.0  0.63201  0.30190  0.26340  1.0000
  H   H492      1.0  0.58623  0.15069  0.14403  1.0000
  N   N42       1.0  0.55625  0.18349  0.44002  1.0000
  H   H493      1.0  0.88679  0.31722  0.30368  1.0000
  H   H494      1.0  0.60310  0.17497  0.15644  1.0000
  H   H495      1.0  0.82352  0.15575  0.48636  1.0000
  S   S160      1.0  0.97682  0.08328  0.09614  1.0000
  C   C490      1.0  0.53146  0.19308  0.16126  1.0000
  C   C491      1.0  0.84222  0.29644  0.26600  1.0000
  S   S161      1.0  0.50117  0.13750  0.05988  1.0000
  C   C492      1.0  0.82463  0.13920  0.47579  1.0000
  C   C493      1.0  0.89456  0.27367  0.32196  1.0000
  H   H496      1.0  0.68712  0.12094  0.38782  1.0000
  S   S162      1.0  0.49989  0.14507  0.12623  1.0000
  H   H497      1.0  0.61758  0.07650  0.38554  1.0000
  C   C494      1.0  0.56224  0.31325  0.02448  1.0000
  H   H498      1.0  0.96886  0.03997  0.02336  1.0000
  H   H499      1.0  0.56322  0.30957  0.04656  1.0000
  C   C495      1.0  0.49481  0.23482  0.09077  1.0000
  H   H500      1.0  0.97392  0.25823  0.12427  1.0000
  H   H501      1.0  0.98506  0.99738  0.04562  1.0000
  H   H502      1.0  0.92758  0.17409  0.01008  1.0000
  H   H503      1.0  0.98414  0.06278  0.04073  1.0000
  H   H504      1.0  0.63732  0.05259  0.99503  1.0000
  H   H505      1.0  0.87781  0.17226  0.48041  1.0000
  H   H506      1.0  0.53956  0.12377  0.99363  1.0000
  H   H507      1.0  0.50328  0.02339  0.07756  1.0000
  C   C496      1.0  0.49677  0.31856  0.02185  1.0000
  C   C497      1.0  0.91631  0.16793  0.99400  1.0000
  C   C498      1.0  0.89256  0.16454  0.99889  1.0000
  C   C499      1.0  0.49344  0.05324  0.05272  1.0000
  S   S163      1.0  0.58564  0.29846  0.60853  1.0000
  Fe  Fe80      1.0  0.59165  0.01369  0.85876  1.0000
  S   S164      1.0  0.57211  0.04626  0.84389  1.0000
  Fe  Fe81      1.0  0.63674  0.04099  0.87220  1.0000
  S   S165      1.0  0.61894  0.07463  0.85917  1.0000
  S   S166      1.0  0.67343  0.04830  0.88919  1.0000
  Fe  Fe82      1.0  0.58704  0.06294  0.88148  1.0000
  S   S167      1.0  0.56778  0.09036  0.90762  1.0000
  Fe  Fe83      1.0  0.60615  0.05517  0.82284  1.0000
  S   S168      1.0  0.61909  0.07346  0.78430  1.0000
  S   S169      1.0  0.60540  0.03041  0.89703  1.0000
  S   S170      1.0  0.62492  0.02154  0.83536  1.0000
  Fe  Fe84      1.0  0.62558  0.16934  0.62595  1.0000
  S   S171      1.0  0.58957  0.15658  0.61712  1.0000
  S   S172      1.0  0.63515  0.20316  0.64614  1.0000
  Fe  Fe85      1.0  0.64885  0.12499  0.60434  1.0000
  S   S173      1.0  0.61470  0.10845  0.59379  1.0000
  S   S174      1.0  0.68411  0.10895  0.59505  1.0000
  Fe  Fe86      1.0  0.60477  0.14425  0.57717  1.0000
  S   S175      1.0  0.58990  0.15683  0.53653  1.0000
  Fe  Fe87      1.0  0.60312  0.12215  0.63478  1.0000
  S   S176      1.0  0.58187  0.10230  0.66636  1.0000
  S   S177      1.0  0.63986  0.15962  0.58539  1.0000
  S   S178      1.0  0.63817  0.13605  0.64599  1.0000
  S   S179      1.0  0.83045  0.30567  0.63995  1.0000
  Fe  Fe88      1.0  0.79882  0.16571  0.60263  1.0000
  S   S180      1.0  0.80738  0.12735  0.59717  1.0000
  S   S181      1.0  0.76356  0.18225  0.61155  1.0000
  Fe  Fe89      1.0  0.84862  0.17989  0.59695  1.0000
  S   S182      1.0  0.86168  0.14281  0.59124  1.0000
  S   S183      1.0  0.87279  0.21042  0.59360  1.0000
  Fe  Fe90      1.0  0.83075  0.13938  0.56333  1.0000
  S   S184      1.0  0.83594  0.11715  0.52558  1.0000
  Fe  Fe91      1.0  0.83739  0.13373  0.62544  1.0000
  S   S185      1.0  0.84843  0.10577  0.65645  1.0000
  S   S186      1.0  0.81955  0.17718  0.56666  1.0000
  S   S187      1.0  0.82709  0.17123  0.63343  1.0000
  Fe  Fe92      1.0  0.86476  0.02483  0.83184  1.0000
  S   S188      1.0  0.87628  0.06221  0.83419  1.0000
  Fe  Fe93      1.0  0.81443  0.03853  0.85137  1.0000
  S   S189      1.0  0.82352  0.07659  0.85605  1.0000
  S   S190      1.0  0.77839  0.02090  0.85176  1.0000
  Fe  Fe94      1.0  0.84154  0.07265  0.81552  1.0000
  S   S191      1.0  0.83407  0.10212  0.78466  1.0000
  Fe  Fe95      1.0  0.85769  0.06320  0.87462  1.0000
  S   S192      1.0  0.88135  0.07921  0.90726  1.0000
  S   S193      1.0  0.83113  0.03532  0.81025  1.0000
  S   S194      1.0  0.84749  0.02509  0.87274  1.0000
  C   C500      1.0  0.88053  0.08594  0.94244  1.0000
  C   C501      1.0  0.85973  0.08632  0.95741  1.0000
  C   C502      1.0  0.73890  0.11735  0.65309  1.0000
  C   C503      1.0  0.90133  0.09303  0.95514  1.0000
  H   H508      1.0  0.84357  0.08106  0.94797  1.0000
  H   H509      1.0  0.64357  0.27087  0.56832  1.0000
  H   H510      1.0  0.91752  0.09287  0.94377  1.0000
  C   C504      1.0  0.84332  0.10476  0.69192  1.0000
  C   C505      1.0  0.85120  0.08495  0.70666  1.0000
  C   C506      1.0  0.84825  0.08365  0.73496  1.0000
  C   C507      1.0  0.83748  0.10229  0.74889  1.0000
  C   C508      1.0  0.82949  0.12207  0.73408  1.0000
  C   C509      1.0  0.83227  0.12329  0.70576  1.0000
  H   H511      1.0  0.85984  0.07051  0.69622  1.0000
  H   H512      1.0  0.85456  0.06837  0.74605  1.0000
  H   H513      1.0  0.82113  0.13658  0.74467  1.0000
  H   H514      1.0  0.82616  0.13870  0.69477  1.0000
  C   C510      1.0  0.59052  0.14298  0.73334  1.0000
  C   C511      1.0  0.68929  0.25815  0.61016  1.0000
  H   H515      1.0  0.68249  0.09582  0.84380  1.0000
  H   H516      1.0  0.72603  0.09468  0.83926  1.0000
  C   C512      1.0  0.84334  0.27963  0.62734  1.0000
  C   C513      1.0  0.83481  0.25819  0.63655  1.0000
  C   C514      1.0  0.84361  0.23698  0.62602  1.0000
  C   C515      1.0  0.86151  0.23701  0.60675  1.0000
  C   C516      1.0  0.87048  0.25842  0.59797  1.0000
  C   C517      1.0  0.86120  0.27977  0.60799  1.0000
  H   H517      1.0  0.82111  0.25802  0.65165  1.0000
  H   H518      1.0  0.83665  0.22063  0.63303  1.0000
  H   H519      1.0  0.88443  0.25854  0.58316  1.0000
  H   H520      1.0  0.86794  0.29626  0.60091  1.0000
  C   C518      1.0  0.70527  0.13061  0.59696  1.0000
  C   C519      1.0  0.72741  0.12657  0.58552  1.0000
  C   C520      1.0  0.74510  0.14292  0.58900  1.0000
  C   C521      1.0  0.74081  0.16313  0.60430  1.0000
  C   C522      1.0  0.71845  0.16752  0.61507  1.0000
  C   C523      1.0  0.70064  0.15133  0.61128  1.0000
  H   H521      1.0  0.73093  0.11070  0.57415  1.0000
  H   H522      1.0  0.76200  0.13985  0.57977  1.0000
  H   H523      1.0  0.71513  0.18301  0.62711  1.0000
  H   H524      1.0  0.68364  0.15444  0.62040  1.0000
  C   C524      1.0  0.92552  0.16310  0.96846  1.0000
  H   H525      1.0  0.90031  0.17702  0.62720  1.0000
  H   H526      1.0  0.61262  0.11351  0.92896  1.0000
  C   C525      1.0  0.70239  0.04063  0.87797  1.0000
  C   C526      1.0  0.72137  0.05391  0.88703  1.0000
  C   C527      1.0  0.74464  0.04851  0.87884  1.0000
  C   C528      1.0  0.74934  0.02930  0.86202  1.0000
  C   C529      1.0  0.73038  0.01585  0.85322  1.0000
  C   C530      1.0  0.70705  0.02161  0.86084  1.0000
  H   H527      1.0  0.71807  0.06854  0.90046  1.0000
  C   C531      1.0  0.65601  0.26026  0.58000  1.0000
  C   C532      1.0  0.88262  0.19088  0.66208  1.0000
  H   H528      1.0  0.69277  0.01099  0.85402  1.0000
  C   C533      1.0  0.60860  0.07954  0.75101  1.0000
  C   C534      1.0  0.62352  0.09097  0.73284  1.0000
  C   C535      1.0  0.61590  0.09724  0.70660  1.0000
  C   C536      1.0  0.59315  0.09228  0.69813  1.0000
  C   C537      1.0  0.57838  0.08035  0.71608  1.0000
  C   C538      1.0  0.58599  0.07409  0.74241  1.0000
  H   H529      1.0  0.64107  0.09520  0.73918  1.0000
  H   H530      1.0  0.62755  0.10625  0.69310  1.0000
  H   H531      1.0  0.56082  0.07616  0.70970  1.0000
  H   H532      1.0  0.57435  0.06516  0.75605  1.0000
  C   C539      1.0  0.55111  0.10837  0.95576  1.0000
  C   C540      1.0  0.56114  0.08863  0.94274  1.0000
  C   C541      1.0  0.56651  0.06860  0.95817  1.0000
  C   C542      1.0  0.61875  0.10048  0.94356  1.0000
  H   H533      1.0  0.54687  0.12396  0.94403  1.0000
  H   H534      1.0  0.57419  0.05327  0.94848  1.0000
  C   C543      1.0  0.76115  0.12485  0.66028  1.0000
  C   C544      1.0  0.59914  0.27188  0.61915  1.0000
  C   C545      1.0  0.58888  0.25044  0.61299  1.0000
  C   C546      1.0  0.59971  0.22914  0.62118  1.0000
  C   C547      1.0  0.62062  0.22931  0.63601  1.0000
  C   C548      1.0  0.63062  0.25075  0.64254  1.0000
  C   C549      1.0  0.62011  0.27194  0.63381  1.0000
  H   H535      1.0  0.57264  0.25029  0.60163  1.0000
  H   H536      1.0  0.59186  0.21266  0.61606  1.0000
  H   H537      1.0  0.64679  0.25098  0.65399  1.0000
  H   H538      1.0  0.62824  0.28831  0.63859  1.0000
  N   N43       1.0  0.68859  0.04946  0.80179  1.0000
  C   C550      1.0  0.71252  0.04846  0.79949  1.0000
  C   C551      1.0  0.67787  0.06628  0.81742  1.0000
  C   C552      1.0  0.72631  0.06495  0.81255  1.0000
  C   C553      1.0  0.69110  0.08299  0.83081  1.0000
  C   C554      1.0  0.71548  0.08231  0.82828  1.0000
  C   C555      1.0  0.67450  0.03137  0.78910  1.0000
  H   H539      1.0  0.72114  0.03453  0.78812  1.0000
  H   H540      1.0  0.65899  0.06658  0.82001  1.0000
  H   H541      1.0  0.74537  0.32260  0.63467  1.0000
  H   H542      1.0  0.59428  0.18229  0.66997  1.0000
  H   H543      1.0  0.78331  0.28178  0.63185  1.0000
  H   H544      1.0  0.68268  0.02495  0.77007  1.0000
  H   H545      1.0  0.91804  0.15108  0.92830  1.0000
  H   H546      1.0  0.65670  0.03839  0.78370  1.0000
  N   N44       1.0  0.79173  0.26906  0.59280  1.0000
  C   C556      1.0  0.79823  0.24714  0.58388  1.0000
  C   C557      1.0  0.80110  0.28858  0.58135  1.0000
  N   N45       1.0  0.65413  0.23640  0.58121  1.0000
  C   C558      1.0  0.81776  0.28648  0.56070  1.0000
  H   H547      1.0  0.73375  0.00080  0.84044  1.0000
  C   C559      1.0  0.59451  0.14257  0.50504  1.0000
  H   H548      1.0  0.90977  0.13711  0.62033  1.0000
  H   H549      1.0  0.53579  0.14502  0.72633  1.0000
  C   C560      1.0  0.77501  0.27197  0.61509  1.0000
  C   C561      1.0  0.68756  0.23379  0.61084  1.0000
  N   N46       1.0  0.57188  0.14490  0.71594  1.0000
  H   H550      1.0  0.67252  0.01642  0.80332  1.0000
  H   H551      1.0  0.88115  0.20852  0.65378  1.0000
  H   H552      1.0  0.64271  0.21799  0.54659  1.0000
  H   H553      1.0  0.64972  0.04897  0.94704  1.0000
  C   C562      1.0  0.55022  0.13238  0.72139  1.0000
  H   H554      1.0  0.62857  0.17831  0.70055  1.0000
  C   C563      1.0  0.61259  0.16911  0.70515  1.0000
  H   H555      1.0  0.63761  0.07968  0.91411  1.0000
  H   H556      1.0  0.82569  0.30193  0.55218  1.0000
  C   C564      1.0  0.90134  0.10067  0.98227  1.0000
  H   H557      1.0  0.53239  0.99352  0.83959  1.0000
  C   C565      1.0  0.87212  0.14390  0.93121  1.0000
  C   C566      1.0  0.87561  0.16314  0.69791  1.0000
  H   H558      1.0  0.94403  0.16550  0.96458  1.0000
  C   C567      1.0  0.63244  0.08131  0.93511  1.0000
  C   C568      1.0  0.61211  0.10219  0.97071  1.0000
  H   H559      1.0  0.82075  0.22712  0.55693  1.0000
  H   H560      1.0  0.86486  0.19964  0.69925  1.0000
  C   C569      1.0  0.58581  0.12019  0.50051  1.0000
  H   H561      1.0  0.76944  0.25483  0.62338  1.0000
  H   H562      1.0  0.54831  0.18112  0.50780  1.0000
  H   H563      1.0  0.62621  0.15269  0.74146  1.0000
  C   C570      1.0  0.82481  0.26424  0.55182  1.0000
  C   C571      1.0  0.66992  0.22312  0.59592  1.0000
  H   H564      1.0  0.57605  0.30836  0.66585  1.0000
  H   H565      1.0  0.69954  0.22324  0.62313  1.0000
  H   H566      1.0  0.79399  0.05431  0.63715  1.0000
  C   C572      1.0  0.89348  0.17292  0.64710  1.0000
  C   C573      1.0  0.87353  0.18590  0.68757  1.0000
  H   H567      1.0  0.75896  0.05893  0.88601  1.0000
  C   C574      1.0  0.91075  0.15497  0.94807  1.0000
  C   C575      1.0  0.63563  0.22486  0.56598  1.0000
  H   H568      1.0  0.62850  0.21007  0.57784  1.0000
  C   C576      1.0  0.79868  0.07256  0.64224  1.0000
  H   H569      1.0  0.80975  0.07951  0.62570  1.0000
  H   H570      1.0  0.92427  0.12737  0.65099  1.0000
  H   H571      1.0  0.66849  0.20419  0.59688  1.0000
  C   C577      1.0  0.73638  0.09518  0.64181  1.0000
  H   H572      1.0  0.62056  0.23709  0.56179  1.0000
  C   C578      1.0  0.81494  0.24444  0.56335  1.0000
  H   H573      1.0  0.76337  0.14241  0.66808  1.0000
  H   H574      1.0  0.83826  0.26232  0.53643  1.0000
  H   H575      1.0  0.67500  0.29033  0.59370  1.0000
  H   H576      1.0  0.74533  0.06369  0.81136  1.0000
  C   C579      1.0  0.78056  0.10972  0.65673  1.0000
  C   C580      1.0  0.67364  0.27144  0.59440  1.0000
  H   H577      1.0  0.88804  0.12790  0.69049  1.0000
  H   H578      1.0  0.80939  0.07183  0.66107  1.0000
  H   H579      1.0  0.70259  0.26683  0.62194  1.0000
  H   H580      1.0  0.86856  0.15896  0.71770  1.0000
  C   C581      1.0  0.75622  0.08064  0.63815  1.0000
  H   H581      1.0  0.55853  0.15989  0.67931  1.0000
  H   H582      1.0  0.75411  0.06365  0.62882  1.0000
  H   H583      1.0  0.79103  0.23155  0.59307  1.0000
  H   H584      1.0  0.79783  0.11566  0.66224  1.0000
  H   H585      1.0  0.71919  0.08961  0.63523  1.0000
  H   H586      1.0  0.72369  0.12893  0.65554  1.0000
  N   N47       1.0  0.89520  0.15059  0.65727  1.0000
  N   N48       1.0  0.77791  0.08785  0.64603  1.0000
  C   C582      1.0  0.59335  0.17127  0.68783  1.0000
  C   C583      1.0  0.88667  0.14562  0.68243  1.0000
  H   H587      1.0  0.58506  0.32021  0.71308  1.0000
  H   H588      1.0  0.55237  0.11976  0.73846  1.0000
  H   H589      1.0  0.79629  0.30589  0.58888  1.0000
  H   H590      1.0  0.89611  0.11596  0.64151  1.0000
  H   H591      1.0  0.88169  0.13182  0.91718  1.0000
  C   C584      1.0  0.63921  0.06402  0.95370  1.0000
  N   N49       1.0  0.88747  0.15162  0.95309  1.0000
  H   H592      1.0  0.57912  0.11017  0.51732  1.0000
  C   C585      1.0  0.57311  0.15878  0.69340  1.0000
  S   S195      1.0  0.69520  0.32365  0.62966  1.0000
  H   H593      1.0  0.54527  0.12201  0.70332  1.0000
  H   H594      1.0  0.86522  0.15926  0.91961  1.0000
  H   H595      1.0  0.58978  0.13160  0.75095  1.0000
  C   C586      1.0  0.90699  0.13190  0.64174  1.0000
  C   C587      1.0  0.61123  0.15487  0.72807  1.0000
  H   H596      1.0  0.75918  0.28198  0.60807  1.0000
  C   C588      1.0  0.63215  0.06619  0.98070  1.0000
  H   H597      1.0  0.85997  0.15321  0.98235  1.0000
  C   C589      1.0  0.85969  0.09421  0.98446  1.0000
  H   H598      1.0  0.88293  0.13056  0.49441  1.0000
  H   H599      1.0  0.53115  0.14312  0.49524  1.0000
  H   H600      1.0  0.85714  0.13389  0.93926  1.0000
  H   H601      1.0  0.60096  0.11688  0.97692  1.0000
  C   C590      1.0  0.87827  0.15643  0.97807  1.0000
  S   S196      1.0  0.88711  0.99507  0.81276  1.0000
  C   C591      1.0  0.56220  0.06849  0.98626  1.0000
  C   C592      1.0  0.54688  0.10829  0.98390  1.0000
  N   N50       1.0  0.61877  0.08511  0.98887  1.0000
  H   H602      1.0  0.91741  0.10632  0.99158  1.0000
  Fe  Fe96      1.0  0.54273  0.37493  0.06224  1.0000
  C   C593      1.0  0.80669  0.39808  0.45140  1.0000
  S   S197      1.0  0.56828  0.37717  0.02651  1.0000
  Fe  Fe97      1.0  0.54362  0.37312  0.12502  1.0000
  H   H603      1.0  0.95386  0.45942  0.09918  1.0000
  S   S198      1.0  0.57137  0.37799  0.15804  1.0000
  Fe  Fe98      1.0  0.51040  0.34204  0.09378  1.0000
  S   S199      1.0  0.54944  0.34585  0.09268  1.0000
  S   S200      1.0  0.53982  0.40234  0.09441  1.0000
  Fe  Fe99      1.0  0.65192  0.38063  0.33763  1.0000
  S   S201      1.0  0.61338  0.38443  0.34723  1.0000
  S   S202      1.0  0.67189  0.41416  0.33731  1.0000
  H   H604      1.0  0.55541  0.44947  0.12442  1.0000
  H   H605      1.0  0.95973  0.44156  0.02733  1.0000
  Fe  Fe100     1.0  0.60830  0.35841  0.31365  1.0000
  S   S203      1.0  0.57652  0.35739  0.28523  1.0000
  Fe  Fe101     1.0  0.62030  0.35399  0.37541  1.0000
  S   S204      1.0  0.60266  0.35111  0.41666  1.0000
  S   S205      1.0  0.64639  0.35700  0.30196  1.0000
  S   S206      1.0  0.65910  0.35198  0.36795  1.0000
  Fe  Fe102     1.0  0.96255  0.39484  0.11201  1.0000
  S   S207      1.0  0.92621  0.40896  0.10294  1.0000
  H   H606      1.0  0.79066  0.41099  0.27148  1.0000
  Fe  Fe103     1.0  0.94799  0.34332  0.10051  1.0000
  S   S208      1.0  0.91110  0.35487  0.08970  1.0000
  Fe  Fe104     1.0  0.92741  0.38498  0.06675  1.0000
  S   S209      1.0  0.92492  0.39928  0.02308  1.0000
  Fe  Fe105     1.0  0.91317  0.37798  0.12690  1.0000
  S   S210      1.0  0.88308  0.37942  0.15795  1.0000
  S   S211      1.0  0.96455  0.37175  0.07541  1.0000
  S   S212      1.0  0.94932  0.36552  0.13828  1.0000
  Fe  Fe106     1.0  0.85309  0.36894  0.31676  1.0000
  S   S213      1.0  0.81649  0.36686  0.30082  1.0000
  S   S214      1.0  0.88414  0.37163  0.28756  1.0000
  Fe  Fe107     1.0  0.83715  0.36192  0.37699  1.0000
  S   S215      1.0  0.79940  0.35960  0.36404  1.0000
  S   S216      1.0  0.83888  0.35132  0.42175  1.0000
  S   S217      1.0  0.50456  0.36819  0.12791  1.0000
  Fe  Fe108     1.0  0.80661  0.38935  0.33626  1.0000
  S   S218      1.0  0.78272  0.42090  0.33132  1.0000
  S   S219      1.0  0.85028  0.33754  0.34420  1.0000
  S   S220      1.0  0.84362  0.39387  0.35097  1.0000
  C   C594      1.0  0.84971  0.36021  0.45380  1.0000
  C   C595      1.0  0.86585  0.37813  0.45687  1.0000
  C   C596      1.0  0.87353  0.38451  0.48296  1.0000
  C   C597      1.0  0.84122  0.34903  0.47711  1.0000
  H   H607      1.0  0.87262  0.38685  0.43917  1.0000
  C   C598      1.0  0.95888  0.44183  0.04979  1.0000
  C   C599      1.0  0.88403  0.37578  0.19386  1.0000
  C   C600      1.0  0.90501  0.37608  0.20857  1.0000
  C   C601      1.0  0.90473  0.37441  0.23711  1.0000
  C   C602      1.0  0.88354  0.37229  0.25141  1.0000
  C   C603      1.0  0.86257  0.37159  0.23668  1.0000
  C   C604      1.0  0.86284  0.37344  0.20816  1.0000
  H   H608      1.0  0.92145  0.37797  0.19798  1.0000
  H   H609      1.0  0.92108  0.37501  0.24818  1.0000
  H   H610      1.0  0.84607  0.37017  0.24722  1.0000
  H   H611      1.0  0.84649  0.37322  0.19706  1.0000
  N   N51       1.0  0.53856  0.43382  0.15860  1.0000
  C   C605      1.0  0.83296  0.42810  0.23733  1.0000
  Fe  Fe109     1.0  0.81289  0.33725  0.33031  1.0000
  H   H612      1.0  0.86624  0.42703  0.21633  1.0000
  C   C606      1.0  0.70280  0.41445  0.33557  1.0000
  C   C607      1.0  0.71337  0.43627  0.33369  1.0000
  C   C608      1.0  0.73780  0.43779  0.33240  1.0000
  C   C609      1.0  0.75207  0.41753  0.33316  1.0000
  C   C610      1.0  0.74166  0.39551  0.33510  1.0000
  C   C611      1.0  0.71696  0.39396  0.33626  1.0000
  H   H613      1.0  0.70259  0.45214  0.33313  1.0000
  H   H614      1.0  0.74565  0.45482  0.33090  1.0000
  H   H615      1.0  0.75257  0.37974  0.33557  1.0000
  H   H616      1.0  0.70890  0.37704  0.33769  1.0000
  C   C612      1.0  0.61548  0.35548  0.44900  1.0000
  N   N52       1.0  0.97158  0.46149  0.06130  1.0000
  C   C613      1.0  0.96686  0.46841  0.08723  1.0000
  C   C614      1.0  0.63811  0.36409  0.45204  1.0000
  H   H617      1.0  0.87334  0.40657  0.02432  1.0000
  H   H618      1.0  0.64892  0.36669  0.43440  1.0000
  C   C615      1.0  0.57246  0.37137  0.19323  1.0000
  C   C616      1.0  0.55318  0.36285  0.20734  1.0000
  C   C617      1.0  0.55463  0.35904  0.23553  1.0000
  C   C618      1.0  0.57542  0.36338  0.24990  1.0000
  C   C619      1.0  0.59476  0.37166  0.23572  1.0000
  C   C620      1.0  0.59321  0.37574  0.20761  1.0000
  H   H619      1.0  0.53710  0.35940  0.19658  1.0000
  H   H620      1.0  0.53958  0.35258  0.24627  1.0000
  H   H621      1.0  0.61088  0.37505  0.24644  1.0000
  H   H622      1.0  0.60822  0.38240  0.19694  1.0000
  C   C621      1.0  0.87968  0.41201  0.00474  1.0000
  C   C622      1.0  0.85924  0.42841  0.28451  1.0000
  H   H623      1.0  0.51489  0.44494  0.12726  1.0000
  C   C623      1.0  0.83471  0.42876  0.28530  1.0000
  H   H624      1.0  0.66348  0.37786  0.47991  1.0000
  H   H625      1.0  0.78776  0.43127  0.24350  1.0000
  S   S221      1.0  0.50385  0.36929  0.06096  1.0000
  H   H626      1.0  0.57210  0.42691  0.14154  1.0000
  H   H627      1.0  0.86936  0.42768  0.30310  1.0000
  H   H628      1.0  0.60114  0.40502  0.40333  1.0000
  H   H629      1.0  0.58423  0.34542  0.47011  1.0000
  C   C624      1.0  0.60840  0.41107  0.42228  1.0000
  C   C625      1.0  0.64510  0.41915  0.39879  1.0000
  C   C626      1.0  0.64634  0.37034  0.47790  1.0000
  C   C627      1.0  0.60174  0.35209  0.47223  1.0000
  H   H630      1.0  0.65237  0.40126  0.39478  1.0000
  H   H631      1.0  0.63543  0.42755  0.49095  1.0000
  C   C628      1.0  0.81508  0.40593  0.47628  1.0000
  C   C629      1.0  0.85747  0.42807  0.23580  1.0000
  H   H632      1.0  0.82957  0.41791  0.47649  1.0000
  H   H633      1.0  0.85581  0.33093  0.27213  1.0000
  C   C630      1.0  0.52133  0.41478  0.19691  1.0000
  C   C631      1.0  0.49921  0.41731  0.18502  1.0000
  H   H634      1.0  0.76543  0.36122  0.47492  1.0000
  H   H635      1.0  0.82293  0.42736  0.21873  1.0000
  H   H636      1.0  0.78954  0.44208  0.27745  1.0000
  S   S222      1.0  0.61176  0.32816  0.34279  1.0000
  H   H637      1.0  0.88966  0.42705  0.25873  1.0000
  C   C632      1.0  0.59489  0.40942  0.44577  1.0000
  N   N53       1.0  0.82191  0.42865  0.26189  1.0000
  H   H638      1.0  0.97594  0.49160  0.11985  1.0000
  H   H639      1.0  0.53314  0.40982  0.00254  1.0000
  C   C633      1.0  0.55958  0.44193  0.14467  1.0000
  C   C634      1.0  0.51688  0.43665  0.14695  1.0000
  H   H640      1.0  0.93995  0.44294  0.05515  1.0000
  C   C635      1.0  0.64048  0.42513  0.44766  1.0000
  N   N54       1.0  0.63083  0.41900  0.42342  1.0000
  H   H641      1.0  0.81470  0.40371  0.43264  1.0000
  C   C636      1.0  0.87064  0.42813  0.25958  1.0000
  C   C637      1.0  0.49692  0.42842  0.15996  1.0000
  C   C638      1.0  0.77927  0.37393  0.47512  1.0000
  H   H642      1.0  0.63450  0.42491  0.38098  1.0000
  S   S223      1.0  0.98944  0.42057  0.12851  1.0000
  C   C639      1.0  0.79624  0.42823  0.26347  1.0000
  H   H643      1.0  0.82597  0.42885  0.30476  1.0000
  H   H644      1.0  0.96634  0.42495  0.05759  1.0000
  H   H645      1.0  0.78291  0.37491  0.43166  1.0000
  C   C640      1.0  0.90371  0.41020  0.99906  1.0000
  C   C641      1.0  0.60455  0.41570  0.47056  1.0000
  H   H646      1.0  0.55816  0.42075  0.19242  1.0000
  Fe  Fe110     1.0  0.50094  0.39566  0.09487  1.0000
  C   C642      1.0  0.62746  0.42370  0.47157  1.0000
  H   H647      1.0  0.65856  0.43051  0.44876  1.0000
  C   C643      1.0  0.54092  0.42328  0.18337  1.0000
  C   C644      1.0  0.78887  0.38178  0.45087  1.0000
  H   H648      1.0  0.65996  0.43133  0.40031  1.0000
  H   H649      1.0  0.56828  0.45548  0.15692  1.0000
  H   H650      1.0  0.57530  0.32700  0.02030  1.0000
  H   H651      1.0  0.52344  0.40593  0.21627  1.0000
  H   H652      1.0  0.57754  0.40205  0.44488  1.0000
  H   H653      1.0  0.59473  0.41337  0.48912  1.0000
  C   C645      1.0  0.56781  0.39501  0.99675  1.0000
  C   C646      1.0  0.98899  0.47183  0.04681  1.0000
  H   H654      1.0  0.88626  0.39815  0.48511  1.0000
  Fe  Fe111     1.0  0.65018  0.32849  0.33327  1.0000
  C   C647      1.0  0.53537  0.33786  0.99701  1.0000
  C   C648      1.0  0.97933  0.48656  0.09906  1.0000
  H   H655      1.0  0.82877  0.33515  0.47499  1.0000
  C   C649      1.0  0.49340  0.33607  0.00236  1.0000
  Fe  Fe112     1.0  0.59334  0.48721  0.84207  1.0000
  S   S224      1.0  0.57578  0.45231  0.84269  1.0000
  S   S225      1.0  0.56950  0.51712  0.82540  1.0000
  Fe  Fe113     1.0  0.64081  0.46486  0.86104  1.0000
  S   S226      1.0  0.62447  0.42928  0.86425  1.0000
  S   S227      1.0  0.68037  0.45977  0.87047  1.0000
  Fe  Fe114     1.0  0.60863  0.43751  0.82344  1.0000
  S   S228      1.0  0.61350  0.40770  0.79266  1.0000
  Fe  Fe115     1.0  0.59317  0.44725  0.88340  1.0000
  S   S229      1.0  0.56727  0.43889  0.91765  1.0000
  S   S230      1.0  0.62539  0.47260  0.81980  1.0000
  S   S231      1.0  0.61019  0.48259  0.88318  1.0000
  Fe  Fe116     1.0  0.63324  0.36550  0.57404  1.0000
  H   H656      1.0  0.90992  0.42442  0.79501  1.0000
  S   S232      1.0  0.64129  0.38026  0.53209  1.0000
  Fe  Fe117     1.0  0.62199  0.37579  0.63459  1.0000
  N   N55       1.0  0.56073  0.36599  0.66177  1.0000
  S   S233      1.0  0.61026  0.40515  0.66334  1.0000
  H   H657      1.0  0.56368  0.39090  0.69358  1.0000
  H   H658      1.0  0.90929  0.46444  0.81402  1.0000
  C   C650      1.0  0.79357  0.47001  0.92789  1.0000
  S   S234      1.0  0.65457  0.37848  0.60928  1.0000
  S   S235      1.0  0.59982  0.36602  0.59843  1.0000
  H   H659      1.0  0.52035  0.63469  0.84543  1.0000
  S   S236      1.0  0.95325  0.60978  0.84002  1.0000
  Fe  Fe118     1.0  0.81964  0.48173  0.85389  1.0000
  S   S237      1.0  0.82374  0.44327  0.86219  1.0000
  S   S238      1.0  0.78323  0.49980  0.85060  1.0000
  Fe  Fe119     1.0  0.87357  0.48848  0.85104  1.0000
  S   S239      1.0  0.88024  0.44976  0.85923  1.0000
  S   S240      1.0  0.90841  0.50746  0.84369  1.0000
  Fe  Fe120     1.0  0.85110  0.44372  0.82923  1.0000
  S   S241      1.0  0.85371  0.41456  0.79747  1.0000
  Fe  Fe121     1.0  0.85252  0.45294  0.89138  1.0000
  S   S242      1.0  0.85036  0.43872  0.93501  1.0000
  S   S243      1.0  0.84581  0.48190  0.81938  1.0000
  S   S244      1.0  0.84699  0.49188  0.88476  1.0000
  Fe  Fe122     1.0  0.84373  0.39212  0.63656  1.0000
  S   S245      1.0  0.81312  0.36849  0.63916  1.0000
  S   S246      1.0  0.84769  0.42073  0.66860  1.0000
  Fe  Fe123     1.0  0.85578  0.37438  0.57834  1.0000
  S   S247      1.0  0.82651  0.34898  0.57829  1.0000
  S   S248      1.0  0.87483  0.38212  0.53881  1.0000
  Fe  Fe124     1.0  0.80566  0.37846  0.59622  1.0000
  S   S249      1.0  0.77095  0.38685  0.57723  1.0000
  C   C651      1.0  0.81510  0.40554  0.52601  1.0000
  S   S250      1.0  0.83404  0.40450  0.59454  1.0000
  S   S251      1.0  0.86875  0.36406  0.62045  1.0000
  H   H660      1.0  0.92994  0.41607  0.96857  1.0000
  H   H661      1.0  0.65410  0.43553  0.79473  1.0000
  C   C652      1.0  0.84858  0.35567  0.50314  1.0000
  C   C653      1.0  0.71692  0.33773  0.61123  1.0000
  C   C654      1.0  0.84872  0.41661  0.76195  1.0000
  C   C655      1.0  0.84881  0.39592  0.74646  1.0000
  C   C656      1.0  0.84759  0.39678  0.71794  1.0000
  C   C657      1.0  0.84646  0.41841  0.70451  1.0000
  C   C658      1.0  0.84564  0.43907  0.72002  1.0000
  C   C659      1.0  0.84660  0.43820  0.74854  1.0000
  H   H662      1.0  0.85042  0.37910  0.75658  1.0000
  H   H663      1.0  0.84828  0.38072  0.70636  1.0000
  H   H664      1.0  0.84464  0.45591  0.70988  1.0000
  H   H665      1.0  0.84645  0.45427  0.76011  1.0000
  H   H666      1.0  0.74045  0.49644  0.92254  1.0000
  C   C660      1.0  0.89553  0.42619  0.95355  1.0000
  C   C661      1.0  0.87149  0.42790  0.95918  1.0000
  C   C662      1.0  0.94719  0.60293  0.90847  1.0000
  Fe  Fe125     1.0  0.83710  0.34095  0.62105  1.0000
  H   H667      1.0  0.90186  0.43149  0.93391  1.0000
  C   C663      1.0  0.94389  0.56035  0.90420  1.0000
  C   C664      1.0  0.94102  0.58119  0.83994  1.0000
  C   C665      1.0  0.95472  0.56078  0.83608  1.0000
  C   C666      1.0  0.94429  0.53854  0.83672  1.0000
  C   C667      1.0  0.92011  0.53624  0.84170  1.0000
  C   C668      1.0  0.90639  0.55665  0.84550  1.0000
  C   C669      1.0  0.91676  0.57892  0.84442  1.0000
  H   H668      1.0  0.97336  0.56213  0.83253  1.0000
  H   H669      1.0  0.95514  0.52296  0.83367  1.0000
  H   H670      1.0  0.88777  0.55530  0.84918  1.0000
  H   H671      1.0  0.90590  0.59454  0.84722  1.0000
  H   H672      1.0  0.54494  0.50894  0.94856  1.0000
  C   C670      1.0  0.57798  0.33300  0.69877  1.0000
  C   C671      1.0  0.97800  0.53498  0.89866  1.0000
  C   C672      1.0  0.75081  0.36615  0.58799  1.0000
  C   C673      1.0  0.72757  0.36786  0.57911  1.0000
  C   C674      1.0  0.71066  0.35348  0.59057  1.0000
  C   C675      1.0  0.75363  0.48274  0.92608  1.0000
  C   C676      1.0  0.75743  0.34899  0.60701  1.0000
  H   H673      1.0  0.72244  0.38081  0.56403  1.0000
  H   H674      1.0  0.69268  0.35505  0.58382  1.0000
  C   C677      1.0  0.86489  0.37339  0.50627  1.0000
  C   C678      1.0  0.58738  0.39432  0.97938  1.0000
  S   S252      1.0  0.62957  0.33856  0.64723  1.0000
  H   H675      1.0  0.60251  0.38344  0.98467  1.0000
  C   C679      1.0  0.70866  0.47127  0.86385  1.0000
  C   C680      1.0  0.72867  0.45692  0.86895  1.0000
  C   C681      1.0  0.75152  0.46501  0.86410  1.0000
  C   C682      1.0  0.75476  0.48790  0.85479  1.0000
  C   C683      1.0  0.73477  0.50224  0.84964  1.0000
  C   C684      1.0  0.71188  0.49395  0.85388  1.0000
  H   H676      1.0  0.72646  0.43933  0.87665  1.0000
  H   H677      1.0  0.76664  0.45372  0.86820  1.0000
  H   H678      1.0  0.73700  0.52000  0.84246  1.0000
  H   H679      1.0  0.69678  0.50532  0.85000  1.0000
  C   C685      1.0  0.61398  0.40814  0.75665  1.0000
  C   C686      1.0  0.62216  0.38803  0.74278  1.0000
  C   C687      1.0  0.62196  0.38711  0.71425  1.0000
  C   C688      1.0  0.61316  0.40620  0.69920  1.0000
  C   C689      1.0  0.60521  0.42640  0.71305  1.0000
  C   C690      1.0  0.60576  0.42746  0.74157  1.0000
  H   H680      1.0  0.62857  0.37298  0.75421  1.0000
  H   H681      1.0  0.62815  0.37146  0.70395  1.0000
  H   H682      1.0  0.59836  0.44128  0.70165  1.0000
  H   H683      1.0  0.59931  0.44302  0.75188  1.0000
  C   C691      1.0  0.58768  0.40769  0.95526  1.0000
  C   C692      1.0  0.56825  0.42180  0.94801  1.0000
  C   C693      1.0  0.57426  0.35627  0.70657  1.0000
  C   C694      1.0  0.78424  0.51135  0.91790  1.0000
  H   H684      1.0  0.60291  0.40700  0.94224  1.0000
  C   C695      1.0  0.54504  0.49455  0.93351  1.0000
  C   C696      1.0  0.68475  0.47001  0.79195  1.0000
  C   C697      1.0  0.51820  0.57348  0.86079  1.0000
  C   C698      1.0  0.53654  0.56384  0.87680  1.0000
  C   C699      1.0  0.55211  0.54635  0.86658  1.0000
  C   C700      1.0  0.54996  0.53862  0.83988  1.0000
  C   C701      1.0  0.53182  0.54851  0.82376  1.0000
  H   H685      1.0  0.54620  0.37568  0.62315  1.0000
  H   H686      1.0  0.56606  0.53917  0.87919  1.0000
  H   H687      1.0  0.53004  0.54284  0.80302  1.0000
  C   C702      1.0  0.89917  0.47775  0.74804  1.0000
  N   N56       1.0  0.76033  0.40787  0.64815  1.0000
  C   C703      1.0  0.74060  0.41072  0.63260  1.0000
  C   C704      1.0  0.76112  0.39151  0.66849  1.0000
  C   C705      1.0  0.72089  0.39717  0.63737  1.0000
  C   C706      1.0  0.74182  0.37743  0.67357  1.0000
  C   C707      1.0  0.72157  0.38037  0.65793  1.0000
  C   C708      1.0  0.78060  0.42250  0.64269  1.0000
  H   H688      1.0  0.74025  0.42312  0.61590  1.0000
  H   H689      1.0  0.77684  0.38904  0.68069  1.0000
  H   H690      1.0  0.80176  0.41654  0.53673  1.0000
  H   H691      1.0  0.74267  0.36409  0.68925  1.0000
  H   H692      1.0  0.53870  0.47828  0.94324  1.0000
  H   H693      1.0  0.77576  0.44131  0.64541  1.0000
  C   C709      1.0  0.56570  0.37266  0.68765  1.0000
  H   H694      1.0  0.78673  0.41971  0.62159  1.0000
  H   H695      1.0  0.90152  0.49874  0.78421  1.0000
  C   C710      1.0  0.74045  0.33487  0.61879  1.0000
  H   H696      1.0  0.78650  0.52113  0.93704  1.0000
  H   H697      1.0  0.59897  0.35609  0.51563  1.0000
  H   H698      1.0  0.98583  0.51768  0.89564  1.0000
  H   H699      1.0  0.53868  0.56988  0.89733  1.0000
  H   H700      1.0  0.67100  0.47088  0.77599  1.0000
  C   C711      1.0  0.98172  0.57683  0.90311  1.0000
  H   H701      1.0  0.94247  0.52277  0.89945  1.0000
  C   C712      1.0  0.71576  0.41652  0.81965  1.0000
  C   C713      1.0  0.95372  0.53781  0.90103  1.0000
  N   N57       1.0  0.77698  0.48737  0.92366  1.0000
  C   C714      1.0  0.67519  0.40762  0.81178  1.0000
  H   H702      1.0  0.67859  0.48047  0.80961  1.0000
  N   N58       1.0  0.53043  0.50044  0.90992  1.0000
  H   H703      1.0  0.81212  0.47368  0.92650  1.0000
  H   H704      1.0  0.75783  0.42444  0.94050  1.0000
  C   C715      1.0  0.86375  0.42076  0.98494  1.0000
  H   H705      1.0  0.51139  0.64284  0.89335  1.0000
  N   N59       1.0  0.90414  0.43611  0.75444  1.0000
  C   C716      1.0  0.61010  0.35803  0.49811  1.0000
  C   C717      1.0  0.90038  0.45495  0.73763  1.0000
  C   C718      1.0  0.56429  0.34317  0.65396  1.0000
  H   H706      1.0  0.80023  0.43338  0.93689  1.0000
  H   H707      1.0  0.77545  0.34715  0.61344  1.0000
  C   C719      1.0  0.90602  0.41238  0.74323  1.0000
  H   H708      1.0  0.52442  0.48538  0.84425  1.0000
  H   H709      1.0  0.89774  0.45236  0.71611  1.0000
  H   H710      1.0  0.89567  0.49262  0.73478  1.0000
  H   H711      1.0  0.92496  0.56247  0.90527  1.0000
  H   H712      1.0  0.89604  0.41107  0.72397  1.0000
  H   H713      1.0  0.92468  0.40756  0.73943  1.0000
  H   H714      1.0  0.89842  0.39943  0.75743  1.0000
  H   H715      1.0  0.70545  0.39910  0.62460  1.0000
  C   C720      1.0  0.76317  0.44216  0.93602  1.0000
  H   H716      1.0  0.55037  0.34560  0.98724  1.0000
  H   H717      1.0  0.70664  0.36922  0.66119  1.0000
  Fe  Fe126     1.0  0.61012  0.32884  0.60960  1.0000
  H   H718      1.0  0.77113  0.52074  0.90485  1.0000
  C   C721      1.0  0.51255  0.51679  0.91197  1.0000
  H   H719      1.0  0.56660  0.39584  0.63733  1.0000
  H   H720      1.0  0.70041  0.38334  0.82938  1.0000
  H   H721      1.0  0.79565  0.41832  0.65639  1.0000
  C   C722      1.0  0.74637  0.46007  0.93223  1.0000
  C   C723      1.0  0.78694  0.44713  0.93392  1.0000
  H   H722      1.0  0.70074  0.47813  0.78366  1.0000
  C   C724      1.0  0.69746  0.40075  0.82097  1.0000
  H   H723      1.0  0.73307  0.41155  0.82715  1.0000
  H   H724      1.0  0.94406  0.60634  0.93024  1.0000
  H   H725      1.0  0.54835  0.47580  0.88461  1.0000
  C   C725      1.0  0.90729  0.43935  0.78159  1.0000
  H   H726      1.0  0.66068  0.39567  0.81293  1.0000
  C   C726      1.0  0.55224  0.38370  0.64230  1.0000
  H   H727      1.0  0.53339  0.43307  0.95990  1.0000
  C   C727      1.0  0.53429  0.48883  0.88615  1.0000
  H   H728      1.0  0.72553  0.45155  0.80933  1.0000
  N   N60       1.0  0.68948  0.44574  0.80058  1.0000
  C   C728      1.0  0.67151  0.43030  0.80157  1.0000
  C   C729      1.0  0.71141  0.43911  0.80939  1.0000
  H   H729      1.0  0.56360  0.49127  0.92735  1.0000
  C   C730      1.0  0.90664  0.46191  0.79254  1.0000
  H   H730      1.0  0.84196  0.34675  0.52072  1.0000
  H   H731      1.0  0.81967  0.39005  0.53878  1.0000
  C   C731      1.0  0.90239  0.48120  0.77570  1.0000
  H   H732      1.0  0.72780  0.45637  0.93340  1.0000
  H   H733      1.0  0.50939  0.52599  0.93080  1.0000
  C   C732      1.0  0.63224  0.36775  0.50101  1.0000
  C   C733      1.0  0.51587  0.56557  0.83419  1.0000
  C   C734      1.0  0.57292  0.32635  0.67233  1.0000
  C   C735      1.0  0.52053  0.49392  0.86336  1.0000
  H   H734      1.0  0.80097  0.51130  0.90640  1.0000
  N   N61       1.0  0.95786  0.57952  0.90483  1.0000
  H   H735      1.0  0.78060  0.37601  0.51852  1.0000
  Fe  Fe127     1.0  0.99165  0.62126  0.84180  1.0000
  Fe  Fe128     1.0  0.66031  0.34035  0.61913  1.0000
  H   H736      1.0  0.53734  0.39407  0.65096  1.0000
  H   H737      1.0  0.51052  0.35962  0.97482  1.0000
  H   H738      1.0  0.57851  0.36180  0.72695  1.0000
  S   S253      1.0  0.49910  0.59547  0.87510  1.0000
  C   C736      1.0  0.54859  0.42234  0.96528  1.0000
  H   H739      1.0  0.83148  0.41556  0.52373  1.0000
  C   C737      1.0  0.91145  0.41741  0.97334  1.0000
  H   H740      1.0  0.93039  0.60462  0.89708  1.0000
  H   H741      1.0  0.56075  0.33785  0.63334  1.0000
  C   C738      1.0  0.50252  0.51084  0.86512  1.0000
  H   H742      1.0  0.95862  0.61673  0.90015  1.0000
  C   C739      1.0  0.54837  0.40912  0.98952  1.0000
  C   C740      1.0  0.49839  0.52232  0.88958  1.0000
  C   C741      1.0  0.51281  0.34577  0.98976  1.0000
  S   S254      1.0  0.64151  0.32763  0.58258  1.0000
  H   H743      1.0  0.50204  0.57284  0.82149  1.0000
  H   H744      1.0  0.84524  0.42194  0.98964  1.0000
  C   C742      1.0  0.51525  0.65235  0.85161  1.0000
  C   C743      1.0  0.51012  0.65707  0.87873  1.0000
  N   N62       1.0  0.80588  0.39780  0.49997  1.0000
  C   C744      1.0  0.78797  0.38227  0.49966  1.0000
  C   C745      1.0  0.99214  0.55458  0.89983  1.0000
  H   H745      1.0  0.49226  0.51556  0.84734  1.0000
  H   H746      1.0  0.80350  0.98049  0.83132  1.0000
  H   H747      1.0  0.83456  0.96609  0.90881  1.0000
  S   S255      1.0  0.96861  0.92579  0.85805  1.0000
  C   C746      1.0  0.85588  0.95523  0.84581  1.0000
  H   H748      1.0  0.87011  0.94950  0.88580  1.0000
  C   C747      1.0  0.91040  0.97668  0.82561  1.0000
  C   C748      1.0  0.91714  0.97681  0.85282  1.0000
  C   C749      1.0  0.93492  0.96111  0.86224  1.0000
  C   C750      1.0  0.94627  0.94508  0.84468  1.0000
  C   C751      1.0  0.93957  0.94499  0.81746  1.0000
  C   C752      1.0  0.92170  0.96061  0.80807  1.0000
  H   H749      1.0  0.82373  0.95446  0.79251  1.0000
  H   H750      1.0  0.93987  0.96137  0.88336  1.0000
  H   H751      1.0  0.94804  0.93281  0.80366  1.0000
  H   H752      1.0  0.91661  0.96025  0.78700  1.0000
  H   H753      1.0  0.49458  0.97372  0.83194  1.0000
  C   C753      1.0  0.81645  0.97375  0.87144  1.0000
  H   H754      1.0  0.83801  0.98255  0.79365  1.0000
  C   C754      1.0  0.52519  0.92820  0.86044  1.0000
  C   C755      1.0  0.54672  0.93950  0.86455  1.0000
  C   C756      1.0  0.54962  0.96317  0.85715  1.0000
  C   C757      1.0  0.53052  0.97539  0.84553  1.0000
  C   C758      1.0  0.50618  0.94038  0.84858  1.0000
  H   H755      1.0  0.87155  0.94828  0.83599  1.0000
  H   H756      1.0  0.56135  0.92978  0.87343  1.0000
  C   C759      1.0  0.50906  0.96403  0.84116  1.0000
  C   C760      1.0  0.85515  0.95583  0.87406  1.0000
  S   S256      1.0  0.57749  0.97626  0.86253  1.0000
  C   C761      1.0  0.81793  0.97317  0.84322  1.0000
  H   H757      1.0  0.85529  0.95605  0.79362  1.0000
  H   H758      1.0  0.49591  0.71451  0.87429  1.0000
  H   H759      1.0  0.99111  0.79059  0.91771  1.0000
  H   H760      1.0  0.51672  0.66683  0.81135  1.0000
  H   H761      1.0  0.80105  0.98150  0.88115  1.0000
  H   H762      1.0  0.51458  0.68150  0.92739  1.0000
  C   C762      1.0  0.83861  0.96414  0.80117  1.0000
  H   H763      1.0  0.52347  0.91000  0.86612  1.0000
  N   N63       1.0  0.83747  0.96401  0.83078  1.0000
  C   C763      1.0  0.83526  0.96514  0.88692  1.0000
  H   H764      1.0  0.50428  0.70699  0.82611  1.0000
  C   C764      1.0  0.51319  0.67037  0.83252  1.0000
  N   N64       1.0  0.50327  0.67915  0.88663  1.0000
  C   C765      1.0  0.99059  0.75994  0.86231  1.0000
  H   H765      1.0  0.97279  0.76333  0.86908  1.0000
  C   C766      1.0  0.50146  0.69699  0.86810  1.0000
  C   C767      1.0  0.49827  0.68357  0.91526  1.0000
  C   C768      1.0  0.50623  0.69286  0.84077  1.0000
  H   H766      1.0  0.98768  0.72213  0.86490  1.0000
  H   H767      1.0  0.90860  0.98895  0.86663  1.0000
  H   H768      1.0  0.99001  0.95792  0.90345  1.0000
