data_image0
_chemical_formula_structural       HSCH2FeS2CHCFeCHCHS2C3HC2HFeS2H3CNC5HCNCH2C2HNC2SHCHCH2CS2HC3H6C2FeHCHSCHSH2CH4SCFeS2FeS2FeSFeS3HS2FeSFeS2FeS2FeSFeS3FeSFeS2FeS2FeSFeS3CFeHCNH3C6H4CH5C3FeC7H5C6H4C6H4C6H4C5NH3C4H3NC6H2CHCHCNC3H3NHCHCH2CFeCH5CHC4HC2H3CH6SH2SC2SHC2HCHC4NCHC2H4CHCNHCHC2HC2HSNC4H3SH2CHNCHC2HCHCH5C2H4CHCH2CH2FeH3CH4CHC3HSHCSFe2HCH2CSH2NCSCSHFeCSFeCSC2SH2C2HC4H2NC2HC3H4C3FeCHC2SH3CSH3SHNC2H4CH2CH3CH2C2H3SCFeSFeS2FeS2FeSFeS3FeS2FeS2FeSFeS4HCSHSHCFeSFeS2FeS2FeSFeS3C2H2C2HC4HSC6H4C5H3C7H2C7H4C6H4C2H4SH3C6H8CHC2HC2HCSCHCNH2NC2H4FeC3HSCNC2H5CHC2NC6H8NC6H9C2H2C2H3C4HCNS2CH4C2FeHFeC3FeHC3NCH2NHCFeCHCHCNH2C2NH2SH5FeH3C3H2CH4C2H3SCH2CH2CHNC2Fe2SFeS2FeS2FeSFeS3HSH3CFeS2FeS2FeSFeS3CSFeS2FeS2FeS2FeSFeS3CH4CH2CHC7H4C6H4C5H3C3HC4FeH3C6H4CFeHC2H2C6H7C5H4C2HC2NCH4CNCHCNH3CH4NC6H10CNHCHFeH2CHCHCHFeC3H2C3HC3H4C5HC2H4CSC2H2SC6HCSH3C2N2S2NH2CH3FeCSH2SHSH3C2SNH2C2H2FeCHC5HCSFeS3HSH2C2H2SNHCHNC2HSH2CHCSC2HCFeHCSHC2HCH2SFeH3C3H2SH2FeC4HC2HNHC4SFeS2FeS2FeSFeS3CSFeSFeS2FeS2FeSFeS4CFeSFeS2FeS2FeSFeS3C2H2CHC2HC6H6C2SC2HCHC7H5C2HCHC7H4C6H4C5H3SH2NC6H9C7HNC6H7NC6H8CHS2HC2H5CFeCHNCSNH2CH2SHFeH2FeH2CH3C4HC4SCH2NC2HCH2CHFeHFeC2H3CHCH4C2H3CH2C4HNCHC3NHCH4SHCNC4FeS2FeCS2HSCHFeH2FeHSCHC2HSHC2HSCHNH3NC3HC2HC4HCHFeCHC2HC2H2CSH4NH3CHS2CHCHCHCHNC2H2C2SCSCHSFeCSHSCH2SCH2CH2CNCH3C2HFeH4CHFeSCHC2FeC2H3CHC3HSH2SFeHFeC2HSCS2HSC2H2CHC2HCFeH2CFeSHFeS2FeS2FeSFeS3H2C2SHFeSCFeS2FeS2FeSFeS3FeSFeS2FeS2FeSFeS3H2C2HSC6H5C3H2NCH4C6H5CH2C6HCHC6H4C6H4C6HCHCFeSHS2HCH7C2NH2C4HCHC3SCH2C4N2C2H5NC6H4CH4CHNCNHFeH2CH2C2SCHCH2CSH4C2H2CHC2HNSHCFeHCHCSHSHCH4C3H5CHC3NSHC2FeNC3SHFeC2H2CSHSHSCSFeCFeC2H2C3HC2HCHCHC2SCH2CNCHC3HCFeCNH3C3H3SH3CHCHCH3SHCHCHCFeCS3FeS2FeS2FeSFeS3FeSFeS2FeS2FeSFeS3FeS2FeS2FeSFeS3C5HC2HC3H3C4H2C6H4CHCFeHC5H4C6H4C6H4C2HNC3H4C7H4CNC6H8C2HCHCFeH3CHNCFeCSH2C4HCH3CH2SNH2C2H3CH2CHCHC2H2CHCHC3H3SNCHCHC2HC2H2SH2SH3C2NH4C2H3CSC2H2C4SCFeHNCH3CHS2CH4C2H5CHC2HCSHCSCH2CFeSFeS2FeS2FeSFeS5FeSHFeS2FeS2FeSFeS3C2H2SCFeCFeS2FeS2FeSFeS3C4HSFeNFeHC6FeH2C6H5CH5C2HC6H4C6H4CHCH2CHCHC7H4CH5CH3CH2CHCHCHCSH2CHSHCHSCHNC6H2SCH4CHCHCH2FeC4HC2HCSC2H3C3HCHCNCH3CHSCH4CHNC3H4CHSNC4NCH4CH4SHFeHCHSFeHCSCHSHFeCHCH3CHC4H4CNH2CH3NH2CFeC3SHFeHC4H2FeS3H2C2H3C2SCH5C4H3C3SHCH2NCH5C3NHCHC2HCSCHCNH2C2HCSC2NCHFeH3CHC3NHFeS2FeS2FeSFeS3FeSFeS2FeS2FeSFeS5FeSCFeS2FeS2FeSFeS3HC2H2C3SHC6H4C4H2FeC3HCHC6H4C6H4C6H4CHC3H4CHCNH2C5NCH2NH2CH7NC6H9SHNC6H11NCH2CSCHNCHCHCHC2SHC4HCHCHC5NH5CH2CHSCHCHCHCHC2H3C2H3C2HNCHCH3C2HCHCH3CFeH4C3H2CH2SHCHSHCHC2HC2H2CSCFeSCH3CHSCSHSH2FeSCSH2CHC2HC3N2FeH2C2HC3FeHC2HSNC2H2C3FeCH2FeH2C2HCH3C2HSH2C4HC2
_chemical_formula_sum              "H1152 S384 C1152 Fe192 N96"
_cell_length_a       68.2536
_cell_length_b       68.6368
_cell_length_c       48.2575
_cell_angle_alpha    84.7608
_cell_angle_beta     84.9728
_cell_angle_gamma    87.5902

_space_group_name_H-M_alt    "P 1"
_space_group_IT_number       1

loop_
  _space_group_symop_operation_xyz
  'x, y, z'

loop_
  _atom_site_type_symbol
  _atom_site_label
  _atom_site_symmetry_multiplicity
  _atom_site_fract_x
  _atom_site_fract_y
  _atom_site_fract_z
  _atom_site_occupancy
  H   H1        1.0  0.32919  0.01997  0.38808  1.0000
  S   S1        1.0  0.19479  0.01900  0.07100  1.0000
  C   C1        1.0  0.36959  0.09940  0.50409  1.0000
  H   H2        1.0  0.03164  0.14808  0.09739  1.0000
  H   H3        1.0  0.05794  0.16071  0.02874  1.0000
  Fe  Fe1       1.0  0.19839  0.04775  0.04509  1.0000
  S   S2        1.0  0.19265  0.07704  0.06307  1.0000
  S   S3        1.0  0.48462  0.14588  0.51218  1.0000
  C   C2        1.0  0.36966  0.07881  0.50617  1.0000
  H   H4        1.0  0.35631  0.10774  0.49933  1.0000
  C   C3        1.0  0.38647  0.10924  0.50874  1.0000
  Fe  Fe2       1.0  0.35903  0.02536  0.52013  1.0000
  C   C4        1.0  0.05466  0.12416  0.06749  1.0000
  H   H5        1.0  0.46181  0.20407  0.47744  1.0000
  C   C5        1.0  0.32763  0.02164  0.36521  1.0000
  H   H6        1.0  0.18271  0.11740  0.07175  1.0000
  S   S4        1.0  0.14655  0.23528  0.04038  1.0000
  S   S5        1.0  0.43379  0.16734  0.49586  1.0000
  C   C6        1.0  0.17353  0.11307  0.05635  1.0000
  C   C7        1.0  0.25427  0.04230  0.10447  1.0000
  C   C8        1.0  0.25267  0.03882  0.15480  1.0000
  H   H7        1.0  0.22497  0.04705  0.17571  1.0000
  C   C9        1.0  0.20393  0.05850  0.13206  1.0000
  C   C10       1.0  0.23317  0.04607  0.15557  1.0000
  H   H8        1.0  0.03945  0.11989  0.06883  1.0000
  Fe  Fe3       1.0  0.08821  0.19069  0.04245  1.0000
  S   S6        1.0  0.05957  0.18913  0.06919  1.0000
  S   S7        1.0  0.11830  0.18276  0.05667  1.0000
  H   H9        1.0  0.05080  0.15832  0.11354  1.0000
  H   H10       1.0  0.19650  0.05723  0.15353  1.0000
  H   H11       1.0  0.47637  0.18156  0.47837  1.0000
  C   C11       1.0  0.50964  0.20133  0.49099  1.0000
  N   N1        1.0  0.22444  0.05117  0.13131  1.0000
  C   C12       1.0  0.40366  0.09839  0.51453  1.0000
  C   C13       1.0  0.09345  0.13535  0.06316  1.0000
  C   C14       1.0  0.03990  0.18028  0.05338  1.0000
  C   C15       1.0  0.02728  0.15806  0.02341  1.0000
  C   C16       1.0  0.04320  0.16609  0.03432  1.0000
  H   H12       1.0  0.33675  0.03384  0.35544  1.0000
  C   C17       1.0  0.47708  0.19776  0.47487  1.0000
  N   N2        1.0  0.06042  0.13713  0.08487  1.0000
  C   C18       1.0  0.07956  0.14268  0.08303  1.0000
  H   H13       1.0  0.31185  0.02548  0.36266  1.0000
  H   H14       1.0  0.20330  0.07413  0.12364  1.0000
  C   C19       1.0  0.23478  0.04956  0.10600  1.0000
  C   C20       1.0  0.16024  0.12687  0.04413  1.0000
  H   H15       1.0  0.08410  0.15314  0.09658  1.0000
  N   N3        1.0  0.48975  0.20492  0.49450  1.0000
  C   C21       1.0  0.04603  0.14450  0.10617  1.0000
  C   C22       1.0  0.17520  0.09382  0.04842  1.0000
  S   S8        1.0  0.38702  0.04216  0.51777  1.0000
  H   H16       1.0  0.10709  0.24452  0.06452  1.0000
  C   C23       1.0  0.48168  0.21448  0.51666  1.0000
  H   H17       1.0  0.15933  0.14176  0.04995  1.0000
  C   C24       1.0  0.13451  0.25751  0.04894  1.0000
  H   H18       1.0  0.25926  0.03395  0.17405  1.0000
  H   H19       1.0  0.22781  0.05356  0.08684  1.0000
  C   C25       1.0  0.26321  0.03683  0.12905  1.0000
  S   S9        1.0  0.42565  0.22296  0.50401  1.0000
  S   S10       1.0  0.32996  0.03581  0.50469  1.0000
  H   H20       1.0  0.48292  0.20176  0.45299  1.0000
  C   C26       1.0  0.11494  0.25796  0.06031  1.0000
  C   C27       1.0  0.14853  0.12142  0.02395  1.0000
  C   C28       1.0  0.42942  0.26145  0.51252  1.0000
  H   H21       1.0  0.35652  0.07137  0.50294  1.0000
  H   H22       1.0  0.42614  0.26451  0.49099  1.0000
  H   H23       1.0  0.46593  0.21721  0.51956  1.0000
  H   H24       1.0  0.10861  0.13980  0.06154  1.0000
  H   H25       1.0  0.09828  0.11685  0.02933  1.0000
  H   H26       1.0  0.26211  0.04014  0.08436  1.0000
  C   C29       1.0  0.08765  0.12238  0.04507  1.0000
  C   C30       1.0  0.38673  0.06796  0.51258  1.0000
  Fe  Fe4       1.0  0.12704  0.21114  0.03189  1.0000
  H   H27       1.0  0.27802  0.03039  0.12815  1.0000
  C   C31       1.0  0.06813  0.11672  0.04719  1.0000
  H   H28       1.0  0.19545  0.05003  0.11886  1.0000
  S   S11       1.0  0.38519  0.13498  0.50880  1.0000
  C   C32       1.0  0.16326  0.08838  0.02854  1.0000
  H   H29       1.0  0.51596  0.19318  0.47395  1.0000
  S   S12       1.0  0.22942  0.04120  0.02807  1.0000
  H   H30       1.0  0.04400  0.13341  0.12431  1.0000
  H   H31       1.0  0.06344  0.10675  0.03307  1.0000
  C   C33       1.0  0.40380  0.07782  0.51628  1.0000
  H   H32       1.0  0.41680  0.10582  0.51783  1.0000
  H   H33       1.0  0.41709  0.06950  0.52104  1.0000
  H   H34       1.0  0.16421  0.07359  0.02249  1.0000
  H   H35       1.0  0.46219  0.23163  0.86375  1.0000
  S   S13       1.0  0.18528  0.03738  0.00857  1.0000
  C   C34       1.0  0.43046  0.24200  0.52427  1.0000
  Fe  Fe5       1.0  0.27605  0.07757  0.79977  1.0000
  S   S14       1.0  0.26284  0.10786  0.79287  1.0000
  S   S15       1.0  0.28118  0.06561  0.84470  1.0000
  Fe  Fe6       1.0  0.28420  0.07446  0.73535  1.0000
  S   S16       1.0  0.27077  0.10459  0.72495  1.0000
  S   S17       1.0  0.30097  0.05475  0.70428  1.0000
  Fe  Fe7       1.0  0.28767  0.11357  0.75968  1.0000
  S   S18       1.0  0.30274  0.14263  0.75861  1.0000
  Fe  Fe8       1.0  0.24722  0.09608  0.75926  1.0000
  S   S19       1.0  0.21386  0.09977  0.76338  1.0000
  S   S20       1.0  0.30217  0.08411  0.76864  1.0000
  S   S21       1.0  0.25942  0.06516  0.76755  1.0000
  H   H36       1.0  0.26072  0.04252  0.94240  1.0000
  S   S22       1.0  0.13528  0.19697  0.99207  1.0000
  S   S23       1.0  0.29558  0.03899  0.57649  1.0000
  Fe  Fe9       1.0  0.42416  0.16414  0.57579  1.0000
  S   S24       1.0  0.41463  0.16072  0.62150  1.0000
  Fe  Fe10      1.0  0.45491  0.18918  0.76163  1.0000
  S   S25       1.0  0.44747  0.22132  0.76138  1.0000
  S   S26       1.0  0.48495  0.17408  0.75648  1.0000
  Fe  Fe11      1.0  0.41111  0.17757  0.76743  1.0000
  S   S27       1.0  0.40005  0.20889  0.76818  1.0000
  S   S28       1.0  0.39451  0.14924  0.76930  1.0000
  Fe  Fe12      1.0  0.42392  0.21531  0.73374  1.0000
  S   S29       1.0  0.41977  0.23241  0.69252  1.0000
  Fe  Fe13      1.0  0.42449  0.21228  0.79578  1.0000
  S   S30       1.0  0.42148  0.22484  0.83746  1.0000
  S   S31       1.0  0.43337  0.18386  0.73108  1.0000
  S   S32       1.0  0.43359  0.18033  0.79806  1.0000
  Fe  Fe14      1.0  0.10405  0.20426  0.98377  1.0000
  S   S33       1.0  0.09506  0.21883  0.94343  1.0000
  Fe  Fe15      1.0  0.08770  0.17066  0.76681  1.0000
  S   S34       1.0  0.08786  0.19121  0.80010  1.0000
  S   S35       1.0  0.06066  0.15323  0.76483  1.0000
  Fe  Fe16      1.0  0.13081  0.17755  0.74621  1.0000
  S   S36       1.0  0.13394  0.19966  0.77695  1.0000
  S   S37       1.0  0.15787  0.16978  0.71811  1.0000
  Fe  Fe17      1.0  0.11778  0.17801  0.80719  1.0000
  S   S38       1.0  0.12965  0.16731  0.84785  1.0000
  Fe  Fe18      1.0  0.10382  0.21094  0.76664  1.0000
  S   S39       1.0  0.09151  0.24196  0.76047  1.0000
  S   S40       1.0  0.11619  0.15536  0.77716  1.0000
  S   S41       1.0  0.10202  0.19093  0.73256  1.0000
  C   C35       1.0  0.03884  0.16590  0.75563  1.0000
  Fe  Fe19      1.0  0.21611  0.02901  0.99242  1.0000
  H   H37       1.0  0.10379  0.25118  0.97876  1.0000
  C   C36       1.0  0.03942  0.18330  0.73810  1.0000
  N   N4        1.0  0.37748  0.21752  0.59930  1.0000
  H   H38       1.0  0.05340  0.18967  0.73098  1.0000
  H   H39       1.0  0.05716  0.20380  0.00446  1.0000
  H   H40       1.0  0.13149  0.24371  0.77686  1.0000
  C   C37       1.0  0.10465  0.20462  0.91676  1.0000
  C   C38       1.0  0.10225  0.21097  0.88885  1.0000
  C   C39       1.0  0.11000  0.19956  0.86754  1.0000
  C   C40       1.0  0.12008  0.18180  0.87419  1.0000
  C   C41       1.0  0.12248  0.17549  0.90211  1.0000
  C   C42       1.0  0.11470  0.18685  0.92339  1.0000
  H   H41       1.0  0.09456  0.22475  0.88367  1.0000
  H   H42       1.0  0.10838  0.20466  0.84599  1.0000
  H   H43       1.0  0.13022  0.16175  0.90729  1.0000
  H   H44       1.0  0.11650  0.18179  0.94490  1.0000
  C   C43       1.0  0.50643  0.18587  0.76278  1.0000
  H   H45       1.0  0.48209  0.15735  0.66764  1.0000
  H   H46       1.0  0.05183  0.14158  0.70987  1.0000
  H   H47       1.0  0.49184  0.21323  0.77197  1.0000
  H   H48       1.0  0.05928  0.14249  0.67298  1.0000
  H   H49       1.0  0.17533  0.14156  0.97630  1.0000
  C   C44       1.0  0.47743  0.15843  0.69011  1.0000
  C   C45       1.0  0.42570  0.24948  0.84188  1.0000
  C   C46       1.0  0.38060  0.22573  0.62327  1.0000
  Fe  Fe20      1.0  0.45417  0.15595  0.52821  1.0000
  C   C47       1.0  0.45605  0.13987  0.72569  1.0000
  C   C48       1.0  0.41443  0.18200  0.63903  1.0000
  C   C49       1.0  0.42472  0.19850  0.62766  1.0000
  C   C50       1.0  0.42569  0.21460  0.64350  1.0000
  C   C51       1.0  0.41626  0.21414  0.67054  1.0000
  C   C52       1.0  0.40509  0.19810  0.68109  1.0000
  C   C53       1.0  0.40422  0.18207  0.66542  1.0000
  H   H50       1.0  0.43256  0.19855  0.60721  1.0000
  H   H51       1.0  0.43440  0.22697  0.63532  1.0000
  H   H52       1.0  0.39752  0.19780  0.70179  1.0000
  H   H53       1.0  0.39593  0.16952  0.67413  1.0000
  H   H54       1.0  0.02988  0.14687  0.00898  1.0000
  C   C54       1.0  0.30033  0.05326  0.66760  1.0000
  C   C55       1.0  0.31593  0.04329  0.65312  1.0000
  C   C56       1.0  0.31507  0.03947  0.62498  1.0000
  C   C57       1.0  0.29846  0.04544  0.61092  1.0000
  C   C58       1.0  0.28314  0.05598  0.62507  1.0000
  C   C59       1.0  0.28407  0.05994  0.65318  1.0000
  H   H55       1.0  0.32858  0.03803  0.66402  1.0000
  H   H56       1.0  0.16507  0.09491  0.92629  1.0000
  H   H57       1.0  0.27023  0.06076  0.61444  1.0000
  H   H58       1.0  0.27190  0.06755  0.66396  1.0000
  C   C60       1.0  0.32855  0.14445  0.75900  1.0000
  C   C61       1.0  0.34132  0.12800  0.75809  1.0000
  C   C62       1.0  0.36159  0.12984  0.76037  1.0000
  C   C63       1.0  0.36929  0.14810  0.76364  1.0000
  C   C64       1.0  0.35661  0.16463  0.76391  1.0000
  C   C65       1.0  0.33633  0.16279  0.76160  1.0000
  H   H59       1.0  0.33556  0.11383  0.75597  1.0000
  H   H60       1.0  0.37128  0.11697  0.76007  1.0000
  H   H61       1.0  0.36234  0.17877  0.76638  1.0000
  H   H62       1.0  0.32658  0.17562  0.76217  1.0000
  C   C66       1.0  0.17351  0.15009  0.72996  1.0000
  C   C67       1.0  0.16644  0.13556  0.75010  1.0000
  C   C68       1.0  0.17891  0.11993  0.75918  1.0000
  C   C69       1.0  0.19876  0.11891  0.74890  1.0000
  C   C70       1.0  0.20594  0.13337  0.72865  1.0000
  C   C71       1.0  0.19325  0.14879  0.71896  1.0000
  H   H63       1.0  0.15132  0.13615  0.75854  1.0000
  H   H64       1.0  0.17323  0.10873  0.77468  1.0000
  H   H65       1.0  0.22120  0.13264  0.72046  1.0000
  H   H66       1.0  0.19882  0.15987  0.70318  1.0000
  C   C72       1.0  0.23571  0.04594  0.91794  1.0000
  C   C73       1.0  0.22959  0.05154  0.89114  1.0000
  C   C74       1.0  0.24320  0.05780  0.86865  1.0000
  C   C75       1.0  0.26324  0.05841  0.87258  1.0000
  C   C76       1.0  0.26934  0.05295  0.89945  1.0000
  N   N5        1.0  0.08276  0.14421  0.69863  1.0000
  H   H67       1.0  0.04698  0.25337  0.76634  1.0000
  H   H68       1.0  0.23824  0.06185  0.84815  1.0000
  H   H69       1.0  0.14860  0.24492  0.97775  1.0000
  C   C77       1.0  0.31278  0.10784  0.83059  1.0000
  C   C78       1.0  0.35240  0.11609  0.82601  1.0000
  C   C79       1.0  0.32688  0.09247  0.83022  1.0000
  C   C80       1.0  0.34682  0.09666  0.82773  1.0000
  H   H70       1.0  0.29732  0.10441  0.83248  1.0000
  H   H71       1.0  0.32228  0.07742  0.83161  1.0000
  H   H72       1.0  0.35789  0.08488  0.82694  1.0000
  N   N6        1.0  0.35290  0.08177  0.57150  1.0000
  C   C81       1.0  0.35561  0.10143  0.57119  1.0000
  C   C82       1.0  0.36780  0.06856  0.57774  1.0000
  C   C83       1.0  0.37374  0.10835  0.57672  1.0000
  C   C84       1.0  0.38611  0.07497  0.58338  1.0000
  C   C85       1.0  0.38908  0.09500  0.58276  1.0000
  C   C86       1.0  0.33385  0.07501  0.56507  1.0000
  H   H73       1.0  0.34395  0.11191  0.56566  1.0000
  H   H74       1.0  0.36589  0.05299  0.57728  1.0000
  C   C87       1.0  0.50425  0.15484  0.52793  1.0000
  H   H75       1.0  0.06486  0.19187  0.95193  1.0000
  C   C88       1.0  0.14153  0.25348  0.96037  1.0000
  H   H76       1.0  0.38017  0.22076  0.55465  1.0000
  C   C89       1.0  0.50111  0.16296  0.55353  1.0000
  N   N7        1.0  0.45941  0.14777  0.69867  1.0000
  C   C90       1.0  0.08756  0.12903  0.71753  1.0000
  C   C91       1.0  0.10724  0.12462  0.72242  1.0000
  C   C92       1.0  0.06217  0.14830  0.69289  1.0000
  H   H77       1.0  0.07612  0.12054  0.72945  1.0000
  H   H78       1.0  0.11097  0.11283  0.73781  1.0000
  H   H79       1.0  0.05873  0.16431  0.69161  1.0000
  N   N8        1.0  0.31838  0.12687  0.82822  1.0000
  H   H80       1.0  0.36786  0.11962  0.82350  1.0000
  C   C93       1.0  0.20260  0.14115  0.80459  1.0000
  H   H81       1.0  0.15315  0.25955  0.94478  1.0000
  C   C94       1.0  0.12201  0.13574  0.70767  1.0000
  H   H82       1.0  0.13734  0.13257  0.71126  1.0000
  H   H83       1.0  0.15529  0.13545  0.81979  1.0000
  C   C95       1.0  0.33789  0.13111  0.82639  1.0000
  Fe  Fe21      1.0  0.31789  0.02290  0.54748  1.0000
  C   C96       1.0  0.11700  0.15119  0.68851  1.0000
  H   H84       1.0  0.41635  0.13779  0.67400  1.0000
  H   H85       1.0  0.28990  0.13865  0.81979  1.0000
  H   H86       1.0  0.29955  0.14632  0.85077  1.0000
  H   H87       1.0  0.16747  0.14129  0.84943  1.0000
  H   H88       1.0  0.37786  0.21754  0.64347  1.0000
  C   C97       1.0  0.16981  0.13536  0.82869  1.0000
  H   H89       1.0  0.30867  0.15607  0.81599  1.0000
  C   C98       1.0  0.04068  0.17763  0.93774  1.0000
  C   C99       1.0  0.09718  0.15519  0.68411  1.0000
  C   C100      1.0  0.12437  0.25803  0.77757  1.0000
  C   C101      1.0  0.30338  0.14277  0.82895  1.0000
  H   H90       1.0  0.14097  0.09779  0.00081  1.0000
  C   C102      1.0  0.03534  0.24305  0.77181  1.0000
  C   C103      1.0  0.42552  0.25475  0.86922  1.0000
  H   H91       1.0  0.48418  0.24478  0.85272  1.0000
  H   H92       1.0  0.09338  0.16727  0.66924  1.0000
  H   H93       1.0  0.12846  0.16014  0.67746  1.0000
  C   C104      1.0  0.51430  0.19462  0.84115  1.0000
  H   H94       1.0  0.40971  0.12414  0.72325  1.0000
  H   H95       1.0  0.48705  0.22781  0.55400  1.0000
  H   H96       1.0  0.34238  0.14619  0.82428  1.0000
  H   H97       1.0  0.39812  0.06446  0.58706  1.0000
  H   H98       1.0  0.02237  0.20542  0.71508  1.0000
  H   H99       1.0  0.32702  0.03140  0.61453  1.0000
  S   S42       1.0  0.43139  0.13728  0.55315  1.0000
  H   H100      1.0  0.21863  0.17916  0.75936  1.0000
  H   H101      1.0  0.48663  0.16304  0.56448  1.0000
  S   S43       1.0  0.21770  0.03775  0.94517  1.0000
  C   C105      1.0  0.44537  0.14711  0.68023  1.0000
  C   C106      1.0  0.47426  0.19969  0.83559  1.0000
  S   S44       1.0  0.44895  0.18157  0.55401  1.0000
  H   H102      1.0  0.02842  0.19611  0.79876  1.0000
  C   C107      1.0  0.43473  0.23811  0.55209  1.0000
  C   C108      1.0  0.17351  0.10103  0.94123  1.0000
  H   H103      1.0  0.46780  0.23950  0.82736  1.0000
  C   C109      1.0  0.48372  0.18169  0.83072  1.0000
  H   H104      1.0  0.47488  0.17411  0.69392  1.0000
  C   C110      1.0  0.18905  0.09011  0.95283  1.0000
  C   C111      1.0  0.18955  0.17707  0.78056  1.0000
  C   C112      1.0  0.37045  0.19752  0.60111  1.0000
  C   C113      1.0  0.19472  0.11590  0.98050  1.0000
  N   N9        1.0  0.03760  0.19973  0.97388  1.0000
  C   C114      1.0  0.38783  0.24459  0.62211  1.0000
  H   H105      1.0  0.45862  0.20164  0.83320  1.0000
  C   C115      1.0  0.10970  0.26530  0.98100  1.0000
  C   C116      1.0  0.50441  0.21249  0.84562  1.0000
  H   H106      1.0  0.35966  0.19471  0.61953  1.0000
  H   H107      1.0  0.19260  0.07545  0.94662  1.0000
  H   H108      1.0  0.42229  0.24396  0.88665  1.0000
  H   H109      1.0  0.16195  0.17044  0.80366  1.0000
  C   C117      1.0  0.25569  0.04683  0.92202  1.0000
  H   H110      1.0  0.03598  0.22009  0.00537  1.0000
  C   C118      1.0  0.21506  0.08571  0.98504  1.0000
  N   N10       1.0  0.48464  0.21482  0.84276  1.0000
  H   H111      1.0  0.23042  0.14699  0.78102  1.0000
  C   C119      1.0  0.50387  0.17919  0.83347  1.0000
  H   H112      1.0  0.51153  0.16557  0.82869  1.0000
  C   C120      1.0  0.10463  0.26079  0.77203  1.0000
  C   C121      1.0  0.43820  0.13114  0.73486  1.0000
  H   H113      1.0  0.38304  0.18687  0.60318  1.0000
  C   C122      1.0  0.16869  0.11974  0.94947  1.0000
  C   C123      1.0  0.42386  0.13033  0.71616  1.0000
  H   H114      1.0  0.46690  0.14089  0.74056  1.0000
  S   S45       1.0  0.09300  0.17570  0.00321  1.0000
  N   N11       1.0  0.18351  0.14752  0.81024  1.0000
  C   C124      1.0  0.42751  0.13815  0.68861  1.0000
  C   C125      1.0  0.20892  0.17053  0.77422  1.0000
  C   C126      1.0  0.04908  0.19005  0.95450  1.0000
  C   C127      1.0  0.21558  0.15253  0.78647  1.0000
  H   H115      1.0  0.36308  0.19478  0.58225  1.0000
  H   H116      1.0  0.28479  0.05329  0.90278  1.0000
  H   H117      1.0  0.33446  0.05916  0.56190  1.0000
  S   S46       1.0  0.40174  0.17658  0.54740  1.0000
  H   H118      1.0  0.32924  0.08292  0.54544  1.0000
  H   H119      1.0  0.05538  0.22383  0.97773  1.0000
  C   C128      1.0  0.50568  0.20498  0.77080  1.0000
  H   H120      1.0  0.17523  0.11986  0.83125  1.0000
  N   N12       1.0  0.19952  0.09768  0.97201  1.0000
  C   C129      1.0  0.43739  0.25365  0.56826  1.0000
  H   H121      1.0  0.20770  0.12680  0.81299  1.0000
  C   C130      1.0  0.38856  0.24660  0.57188  1.0000
  C   C131      1.0  0.17945  0.12730  0.96905  1.0000
  H   H122      1.0  0.15634  0.12823  0.94132  1.0000
  C   C132      1.0  0.42991  0.26356  0.81941  1.0000
  H   H123      1.0  0.44018  0.25058  0.58998  1.0000
  C   C133      1.0  0.47431  0.23363  0.84689  1.0000
  H   H124      1.0  0.37615  0.12396  0.57510  1.0000
  H   H125      1.0  0.43008  0.25956  0.79823  1.0000
  H   H126      1.0  0.13297  0.24337  0.94969  1.0000
  H   H127      1.0  0.51279  0.22456  0.85071  1.0000
  H   H128      1.0  0.43517  0.12568  0.75657  1.0000
  C   C134      1.0  0.39167  0.25513  0.59622  1.0000
  C   C135      1.0  0.17703  0.16538  0.79896  1.0000
  H   H129      1.0  0.44773  0.15383  0.65900  1.0000
  H   H130      1.0  0.18406  0.19084  0.77073  1.0000
  H   H131      1.0  0.48981  0.15254  0.70230  1.0000
  H   H132      1.0  0.05505  0.21999  0.78695  1.0000
  C   C136      1.0  0.04691  0.21254  0.99120  1.0000
  H   H133      1.0  0.43540  0.22320  0.56142  1.0000
  C   C137      1.0  0.38179  0.22752  0.57377  1.0000
  H   H134      1.0  0.40341  0.10023  0.58606  1.0000
  H   H135      1.0  0.32246  0.07750  0.58242  1.0000
  C   C138      1.0  0.03990  0.22425  0.78350  1.0000
  H   H136      1.0  0.21421  0.05087  0.88759  1.0000
  H   H137      1.0  0.47560  0.16997  0.82394  1.0000
  Fe  Fe22      1.0  0.12379  0.16935  0.01557  1.0000
  H   H138      1.0  0.20877  0.07790  0.00475  1.0000
  H   H139      1.0  0.39079  0.25077  0.64118  1.0000
  H   H140      1.0  0.39201  0.25449  0.55160  1.0000
  C   C139      1.0  0.51391  0.21706  0.53268  1.0000
  H   H141      1.0  0.20236  0.12151  0.99673  1.0000
  H   H142      1.0  0.22712  0.09489  0.98989  1.0000
  H   H143      1.0  0.22173  0.07474  0.97105  1.0000
  H   H144      1.0  0.11587  0.26764  0.70720  1.0000
  C   C140      1.0  0.02496  0.21095  0.79031  1.0000
  H   H145      1.0  0.51430  0.17712  0.58500  1.0000
  C   C141      1.0  0.49360  0.22061  0.53616  1.0000
  C   C142      1.0  0.02185  0.19217  0.72906  1.0000
  C   C143      1.0  0.51684  0.17073  0.56525  1.0000
  H   H146      1.0  0.04988  0.17005  0.92235  1.0000
  S   S47       1.0  0.13306  0.13838  0.00572  1.0000
  H   H147      1.0  0.25727  0.01902  0.65560  1.0000
  C   C144      1.0  0.14997  0.10210  0.01644  1.0000
  S   S48       1.0  0.09646  0.21997  0.02176  1.0000
  Fe  Fe23      1.0  0.41049  0.15079  0.52299  1.0000
  Fe  Fe24      1.0  0.42709  0.19181  0.52341  1.0000
  H   H148      1.0  0.26340  0.51697  0.22476  1.0000
  C   C145      1.0  0.25777  0.50618  0.29510  1.0000
  H   H149      1.0  0.42246  0.37942  0.46552  1.0000
  H   H150      1.0  0.14330  0.30630  0.04764  1.0000
  C   C146      1.0  0.04536  0.36985  0.04430  1.0000
  S   S49       1.0  0.49524  0.35798  0.49937  1.0000
  H   H151      1.0  0.42970  0.43991  0.47370  1.0000
  H   H152      1.0  0.13758  0.42610  0.11927  1.0000
  N   N13       1.0  0.10207  0.43603  0.07482  1.0000
  C   C147      1.0  0.04494  0.38762  0.02764  1.0000
  S   S50       1.0  0.21661  0.49888  0.05522  1.0000
  C   C148      1.0  0.12944  0.45494  0.10133  1.0000
  S   S51       1.0  0.38678  0.47264  0.51689  1.0000
  H   H153      1.0  0.22828  0.42985  0.02630  1.0000
  Fe  Fe25      1.0  0.11330  0.34399  0.04868  1.0000
  C   C149      1.0  0.43168  0.39128  0.46920  1.0000
  S   S52       1.0  0.10344  0.31533  0.07121  1.0000
  Fe  Fe26      1.0  0.13520  0.38251  0.04326  1.0000
  C   C150      1.0  0.26716  0.51440  0.24622  1.0000
  S   S53       1.0  0.15626  0.40083  0.06297  1.0000
  C   C151      1.0  0.46297  0.40199  0.48073  1.0000
  C   C152      1.0  0.12770  0.43471  0.10615  1.0000
  S   S54       1.0  0.10563  0.37366  0.06409  1.0000
  H   H154      1.0  0.45713  0.37203  0.47556  1.0000
  H   H155      1.0  0.09489  0.46421  0.05505  1.0000
  C   C153      1.0  0.02765  0.36112  0.05492  1.0000
  C   C154      1.0  0.37225  0.43523  0.52139  1.0000
  H   H156      1.0  0.47802  0.39869  0.48581  1.0000
  C   C155      1.0  0.27710  0.50913  0.30095  1.0000
  C   C156      1.0  0.14628  0.43621  0.03458  1.0000
  C   C157      1.0  0.11577  0.29328  0.06258  1.0000
  C   C158      1.0  0.13532  0.29289  0.05107  1.0000
  H   H157      1.0  0.51626  0.31944  0.46503  1.0000
  H   H158      1.0  0.23780  0.50700  0.26268  1.0000
  N   N14       1.0  0.42419  0.41011  0.46865  1.0000
  C   C159      1.0  0.11740  0.46564  0.08311  1.0000
  C   C160      1.0  0.10375  0.45588  0.06986  1.0000
  H   H159      1.0  0.32280  0.51556  0.43262  1.0000
  C   C161      1.0  0.17430  0.45675  0.05845  1.0000
  C   C162      1.0  0.17282  0.43639  0.06462  1.0000
  C   C163      1.0  0.15872  0.42607  0.05288  1.0000
  H   H160      1.0  0.05930  0.36292  0.04931  1.0000
  H   H161      1.0  0.07601  0.43551  0.05308  1.0000
  H   H162      1.0  0.18502  0.46460  0.06791  1.0000
  H   H163      1.0  0.18247  0.42864  0.07885  1.0000
  C   C164      1.0  0.43569  0.42499  0.47392  1.0000
  C   C165      1.0  0.14754  0.45660  0.02877  1.0000
  C   C166      1.0  0.45517  0.42114  0.48032  1.0000
  Fe  Fe27      1.0  0.18771  0.51061  0.04080  1.0000
  C   C167      1.0  0.31121  0.51796  0.28626  1.0000
  H   H164      1.0  0.51600  0.31892  0.51618  1.0000
  C   C168      1.0  0.45120  0.38697  0.47504  1.0000
  C   C169      1.0  0.40409  0.41446  0.46084  1.0000
  S   S55       1.0  0.14393  0.35190  0.03216  1.0000
  H   H165      1.0  0.15990  0.27477  0.03600  1.0000
  H   H166      1.0  0.39776  0.42799  0.46971  1.0000
  H   H167      1.0  0.40401  0.41639  0.43777  1.0000
  C   C170      1.0  0.11395  0.42542  0.09248  1.0000
  S   S56       1.0  0.16144  0.49268  0.03447  1.0000
  H   H168      1.0  0.11925  0.48127  0.07837  1.0000
  H   H169      1.0  0.11336  0.40958  0.09537  1.0000
  H   H170      1.0  0.46413  0.43290  0.48505  1.0000
  S   S57       1.0  0.44001  0.33979  0.51886  1.0000
  H   H171      1.0  0.43074  0.29198  0.51972  1.0000
  N   N15       1.0  0.29113  0.51440  0.27985  1.0000
  C   C171      1.0  0.16143  0.46696  0.04084  1.0000
  C   C172      1.0  0.51468  0.36415  0.51837  1.0000
  H   H172      1.0  0.39421  0.40242  0.46923  1.0000
  H   H173      1.0  0.14061  0.46223  0.11086  1.0000
  H   H174      1.0  0.31450  0.51060  0.30692  1.0000
  H   H175      1.0  0.24664  0.50236  0.31195  1.0000
  C   C173      1.0  0.28631  0.51732  0.25282  1.0000
  H   H176      1.0  0.32221  0.51247  0.27021  1.0000
  H   H177      1.0  0.31275  0.51358  0.38464  1.0000
  C   C174      1.0  0.25281  0.50882  0.26752  1.0000
  H   H178      1.0  0.09662  0.42060  0.04035  1.0000
  H   H179      1.0  0.28071  0.50757  0.32253  1.0000
  H   H180      1.0  0.35844  0.44190  0.51535  1.0000
  C   C175      1.0  0.08862  0.42585  0.05945  1.0000
  H   H181      1.0  0.08225  0.41304  0.07241  1.0000
  H   H182      1.0  0.13531  0.42846  0.02554  1.0000
  C   C176      1.0  0.14471  0.27502  0.04451  1.0000
  C   C177      1.0  0.10569  0.27574  0.06732  1.0000
  H   H183      1.0  0.09064  0.27590  0.07648  1.0000
  H   H184      1.0  0.36306  0.40567  0.51952  1.0000
  H   H185      1.0  0.02808  0.34751  0.06810  1.0000
  S   S58       1.0  0.46997  0.33528  0.56900  1.0000
  C   C178      1.0  0.13842  0.41424  0.83838  1.0000
  Fe  Fe28      1.0  0.45247  0.35988  0.58740  1.0000
  S   S59       1.0  0.46338  0.37078  0.62540  1.0000
  Fe  Fe29      1.0  0.42790  0.34869  0.76914  1.0000
  S   S60       1.0  0.44070  0.37822  0.76787  1.0000
  S   S61       1.0  0.41141  0.34123  0.73391  1.0000
  Fe  Fe30      1.0  0.44088  0.33582  0.82571  1.0000
  S   S62       1.0  0.45469  0.36454  0.83013  1.0000
  S   S63       1.0  0.43943  0.31156  0.86018  1.0000
  Fe  Fe31      1.0  0.42743  0.37811  0.81193  1.0000
  S   S64       1.0  0.41157  0.40615  0.82382  1.0000
  Fe  Fe32      1.0  0.46675  0.36212  0.78566  1.0000
  S   S65       1.0  0.49694  0.36782  0.76389  1.0000
  S   S66       1.0  0.41266  0.34958  0.81179  1.0000
  S   S67       1.0  0.45490  0.33234  0.78276  1.0000
  Fe  Fe33      1.0  0.25824  0.43504  0.79387  1.0000
  S   S68       1.0  0.25836  0.46791  0.78504  1.0000
  S   S69       1.0  0.23745  0.41086  0.78866  1.0000
  Fe  Fe34      1.0  0.29802  0.43341  0.81851  1.0000
  S   S70       1.0  0.30101  0.46602  0.81241  1.0000
  S   S71       1.0  0.31829  0.40888  0.83489  1.0000
  Fe  Fe35      1.0  0.26889  0.46784  0.82847  1.0000
  S   S72       1.0  0.25343  0.48993  0.85709  1.0000
  Fe  Fe36      1.0  0.29046  0.46370  0.76962  1.0000
  S   S73       1.0  0.31081  0.47831  0.73373  1.0000
  S   S74       1.0  0.26686  0.43534  0.83765  1.0000
  S   S75       1.0  0.28938  0.43094  0.77534  1.0000
  S   S76       1.0  0.10007  0.35128  0.00802  1.0000
  H   H186      1.0  0.42268  0.41098  0.53893  1.0000
  C   C179      1.0  0.18854  0.38617  0.87287  1.0000
  S   S77       1.0  0.45252  0.37916  0.54748  1.0000
  H   H187      1.0  0.13422  0.32467  0.71865  1.0000
  S   S78       1.0  0.39719  0.38040  0.52680  1.0000
  H   H188      1.0  0.45359  0.31232  0.71480  1.0000
  C   C180      1.0  0.05928  0.36664  0.96006  1.0000
  Fe  Fe37      1.0  0.13013  0.36118  0.99250  1.0000
  S   S79       1.0  0.14289  0.35087  0.95194  1.0000
  Fe  Fe38      1.0  0.13047  0.38684  0.76967  1.0000
  S   S80       1.0  0.13438  0.36741  0.80885  1.0000
  S   S81       1.0  0.14913  0.41312  0.75619  1.0000
  Fe  Fe39      1.0  0.09266  0.36703  0.75918  1.0000
  S   S82       1.0  0.09340  0.34650  0.79784  1.0000
  S   S83       1.0  0.06768  0.36408  0.73243  1.0000
  Fe  Fe40      1.0  0.10183  0.37260  0.81793  1.0000
  S   S84       1.0  0.08746  0.38095  0.85888  1.0000
  Fe  Fe41      1.0  0.12554  0.34302  0.78468  1.0000
  S   S85       1.0  0.14097  0.31320  0.78512  1.0000
  S   S86       1.0  0.09833  0.39366  0.78042  1.0000
  S   S87       1.0  0.12447  0.36211  0.74438  1.0000
  C   C181      1.0  0.04453  0.37229  0.77941  1.0000
  C   C182      1.0  0.04512  0.36555  0.75287  1.0000
  H   H189      1.0  0.02789  0.35631  0.72136  1.0000
  H   H190      1.0  0.05801  0.37515  0.78825  1.0000
  C   C183      1.0  0.04154  0.37350  0.91809  1.0000
  C   C184      1.0  0.45427  0.31136  0.67036  1.0000
  H   H191      1.0  0.42509  0.28335  0.63801  1.0000
  C   C185      1.0  0.12634  0.29291  0.78277  1.0000
  C   C186      1.0  0.10640  0.29544  0.77827  1.0000
  C   C187      1.0  0.04967  0.41772  0.75148  1.0000
  C   C188      1.0  0.44755  0.30564  0.69804  1.0000
  H   H192      1.0  0.09944  0.30983  0.77771  1.0000
  S   S88       1.0  0.25293  0.50194  0.98787  1.0000
  C   C189      1.0  0.12624  0.35774  0.92705  1.0000
  C   C190      1.0  0.11169  0.37225  0.93216  1.0000
  C   C191      1.0  0.09937  0.37897  0.91137  1.0000
  C   C192      1.0  0.10139  0.37096  0.88564  1.0000
  C   C193      1.0  0.11540  0.35590  0.88090  1.0000
  C   C194      1.0  0.12795  0.34939  0.90156  1.0000
  H   H193      1.0  0.11031  0.37877  0.95179  1.0000
  H   H194      1.0  0.08871  0.39079  0.91492  1.0000
  H   H195      1.0  0.11668  0.34935  0.86125  1.0000
  H   H196      1.0  0.13908  0.33803  0.89765  1.0000
  C   C195      1.0  0.25291  0.49202  0.89390  1.0000
  C   C196      1.0  0.26641  0.48192  0.91070  1.0000
  C   C197      1.0  0.26611  0.48505  0.93934  1.0000
  C   C198      1.0  0.25219  0.49807  0.95176  1.0000
  C   C199      1.0  0.44610  0.30337  0.64865  1.0000
  H   H197      1.0  0.15151  0.28988  0.96757  1.0000
  H   H198      1.0  0.27734  0.47200  0.90156  1.0000
  H   H199      1.0  0.27689  0.47743  0.95191  1.0000
  C   C200      1.0  0.51105  0.36729  0.54659  1.0000
  C   C201      1.0  0.30947  0.48411  0.69702  1.0000
  C   C202      1.0  0.29238  0.48182  0.68374  1.0000
  C   C203      1.0  0.29188  0.48737  0.65484  1.0000
  C   C204      1.0  0.30844  0.49512  0.63868  1.0000
  C   C205      1.0  0.39322  0.40581  0.52950  1.0000
  C   C206      1.0  0.32606  0.49175  0.68084  1.0000
  H   H200      1.0  0.27947  0.47598  0.69575  1.0000
  H   H201      1.0  0.27851  0.48568  0.64491  1.0000
  C   C207      1.0  0.43389  0.28289  0.82455  1.0000
  C   C208      1.0  0.21318  0.41210  0.77845  1.0000
  C   C209      1.0  0.20376  0.42976  0.76954  1.0000
  C   C210      1.0  0.18422  0.42986  0.76213  1.0000
  C   C211      1.0  0.17392  0.41240  0.76411  1.0000
  C   C212      1.0  0.18334  0.39480  0.77315  1.0000
  C   C213      1.0  0.20294  0.39465  0.78002  1.0000
  H   H202      1.0  0.21154  0.44327  0.76821  1.0000
  H   H203      1.0  0.17700  0.44353  0.75511  1.0000
  H   H204      1.0  0.17559  0.38126  0.77466  1.0000
  H   H205      1.0  0.21016  0.38092  0.78683  1.0000
  C   C214      1.0  0.38562  0.40711  0.82596  1.0000
  C   C215      1.0  0.37509  0.38998  0.82741  1.0000
  C   C216      1.0  0.35448  0.39084  0.83048  1.0000
  C   C217      1.0  0.34415  0.40888  0.83124  1.0000
  C   C218      1.0  0.35459  0.42612  0.82950  1.0000
  C   C219      1.0  0.37531  0.42520  0.82711  1.0000
  H   H206      1.0  0.38277  0.37599  0.82695  1.0000
  H   H207      1.0  0.34646  0.37746  0.83201  1.0000
  H   H208      1.0  0.34670  0.44008  0.83056  1.0000
  H   H209      1.0  0.38337  0.43852  0.82628  1.0000
  C   C220      1.0  0.43397  0.28794  0.85211  1.0000
  C   C221      1.0  0.43146  0.28969  0.65479  1.0000
  H   H210      1.0  0.17599  0.44082  0.98331  1.0000
  H   H211      1.0  0.43710  0.29377  0.80730  1.0000
  H   H212      1.0  0.47433  0.41241  0.70124  1.0000
  H   H213      1.0  0.08028  0.28167  0.76892  1.0000
  S   S89       1.0  0.36258  0.50733  0.56876  1.0000
  H   H214      1.0  0.50111  0.37939  0.82025  1.0000
  H   H215      1.0  0.49622  0.36715  0.55640  1.0000
  H   H216      1.0  0.04830  0.41526  0.77467  1.0000
  C   C222      1.0  0.42547  0.34988  0.70372  1.0000
  C   C223      1.0  0.41724  0.35230  0.67809  1.0000
  C   C224      1.0  0.42872  0.35923  0.65399  1.0000
  C   C225      1.0  0.44848  0.36333  0.65546  1.0000
  C   C226      1.0  0.45667  0.36091  0.68114  1.0000
  C   C227      1.0  0.44516  0.35427  0.70526  1.0000
  H   H217      1.0  0.40198  0.34905  0.67689  1.0000
  H   H218      1.0  0.42214  0.36175  0.63446  1.0000
  H   H219      1.0  0.47206  0.36347  0.68227  1.0000
  H   H220      1.0  0.45177  0.35197  0.72486  1.0000
  H   H221      1.0  0.22768  0.51800  0.94412  1.0000
  H   H222      1.0  0.02262  0.36703  0.98484  1.0000
  H   H223      1.0  0.10017  0.33803  0.71427  1.0000
  H   H224      1.0  0.16765  0.37173  0.90339  1.0000
  C   C228      1.0  0.32561  0.49713  0.65189  1.0000
  H   H225      1.0  0.45101  0.30786  0.62708  1.0000
  C   C229      1.0  0.09556  0.27943  0.77310  1.0000
  C   C230      1.0  0.17417  0.40901  0.83868  1.0000
  H   H226      1.0  0.14088  0.41671  0.81525  1.0000
  C   C231      1.0  0.18145  0.47884  0.96789  1.0000
  C   C232      1.0  0.13628  0.28693  0.97441  1.0000
  H   H227      1.0  0.17609  0.41963  0.82070  1.0000
  C   C233      1.0  0.02640  0.37644  0.79401  1.0000
  S   S90       1.0  0.42338  0.34694  0.58334  1.0000
  C   C234      1.0  0.13518  0.27407  0.78303  1.0000
  H   H228      1.0  0.20547  0.40311  0.83994  1.0000
  C   C235      1.0  0.50949  0.38939  0.64054  1.0000
  N   N16       1.0  0.35627  0.45573  0.60010  1.0000
  H   H229      1.0  0.35204  0.46187  0.55689  1.0000
  H   H230      1.0  0.19739  0.41800  0.01074  1.0000
  N   N17       1.0  0.03105  0.41418  0.74005  1.0000
  C   C236      1.0  0.31561  0.45308  0.60830  1.0000
  C   C237      1.0  0.42506  0.28431  0.68268  1.0000
  H   H231      1.0  0.04512  0.40307  0.70321  1.0000
  H   H232      1.0  0.33934  0.49373  0.69081  1.0000
  H   H233      1.0  0.38433  0.46072  0.61426  1.0000
  H   H234      1.0  0.42984  0.27754  0.89559  1.0000
  Fe  Fe42      1.0  0.44093  0.32359  0.56153  1.0000
  C   C238      1.0  0.12453  0.30156  0.98666  1.0000
  C   C239      1.0  0.40854  0.41759  0.53442  1.0000
  C   C240      1.0  0.16968  0.38217  0.88513  1.0000
  H   H235      1.0  0.18103  0.49363  0.97571  1.0000
  S   S91       1.0  0.12384  0.39232  0.00192  1.0000
  C   C241      1.0  0.34750  0.45157  0.62648  1.0000
  N   N18       1.0  0.04087  0.36979  0.94651  1.0000
  C   C242      1.0  0.32705  0.45025  0.63099  1.0000
  C   C243      1.0  0.37777  0.45640  0.59556  1.0000
  H   H236      1.0  0.05679  0.35992  0.98188  1.0000
  H   H237      1.0  0.29967  0.45298  0.61159  1.0000
  H   H238      1.0  0.35626  0.44957  0.64427  1.0000
  H   H239      1.0  0.12522  0.40510  0.84289  1.0000
  H   H240      1.0  0.13061  0.31560  0.98918  1.0000
  C   C244      1.0  0.21126  0.47181  0.99215  1.0000
  H   H241      1.0  0.06627  0.38090  0.96084  1.0000
  C   C245      1.0  0.10520  0.29764  0.99678  1.0000
  C   C246      1.0  0.49537  0.39536  0.66111  1.0000
  N   N19       1.0  0.35314  0.41539  0.76202  1.0000
  C   C247      1.0  0.34120  0.39970  0.76414  1.0000
  C   C248      1.0  0.37315  0.41270  0.75796  1.0000
  C   C249      1.0  0.34924  0.38071  0.76229  1.0000
  C   C250      1.0  0.38168  0.39391  0.75601  1.0000
  C   C251      1.0  0.36962  0.37784  0.75813  1.0000
  C   C252      1.0  0.34426  0.43516  0.76338  1.0000
  H   H242      1.0  0.32536  0.40179  0.76799  1.0000
  H   H243      1.0  0.38270  0.42504  0.75681  1.0000
  H   H244      1.0  0.33972  0.36831  0.76444  1.0000
  H   H245      1.0  0.39756  0.39175  0.75329  1.0000
  H   H246      1.0  0.47589  0.38765  0.71753  1.0000
  H   H247      1.0  0.35516  0.44593  0.76738  1.0000
  H   H248      1.0  0.33767  0.44012  0.74357  1.0000
  H   H249      1.0  0.33250  0.43533  0.78082  1.0000
  N   N20       1.0  0.39478  0.34700  0.88999  1.0000
  C   C253      1.0  0.41271  0.35550  0.88676  1.0000
  C   C254      1.0  0.37782  0.35831  0.89268  1.0000
  C   C255      1.0  0.41401  0.37580  0.88651  1.0000
  C   C256      1.0  0.37859  0.37864  0.89290  1.0000
  C   C257      1.0  0.39682  0.38740  0.88971  1.0000
  C   C258      1.0  0.39381  0.32578  0.88895  1.0000
  H   H250      1.0  0.42615  0.34661  0.88394  1.0000
  H   H251      1.0  0.36356  0.35171  0.89434  1.0000
  H   H252      1.0  0.42820  0.38259  0.88304  1.0000
  H   H253      1.0  0.36514  0.38766  0.89439  1.0000
  H   H254      1.0  0.39763  0.40322  0.88858  1.0000
  H   H255      1.0  0.37949  0.32012  0.89834  1.0000
  H   H256      1.0  0.39606  0.32207  0.86691  1.0000
  H   H257      1.0  0.40555  0.31793  0.90065  1.0000
  H   H258      1.0  0.20135  0.37878  0.88139  1.0000
  C   C259      1.0  0.34515  0.45837  0.57773  1.0000
  C   C260      1.0  0.18947  0.44607  0.98986  1.0000
  H   H259      1.0  0.05556  0.37367  0.90553  1.0000
  H   H260      1.0  0.16599  0.47405  0.97019  1.0000
  C   C261      1.0  0.09768  0.27942  0.99391  1.0000
  C   C262      1.0  0.12281  0.31500  0.71463  1.0000
  H   H261      1.0  0.15587  0.28977  0.69467  1.0000
  H   H262      1.0  0.18703  0.48002  0.94550  1.0000
  H   H263      1.0  0.13522  0.42854  0.84714  1.0000
  C   C263      1.0  0.02750  0.36166  0.74181  1.0000
  C   C264      1.0  0.23840  0.50781  0.93509  1.0000
  C   C265      1.0  0.10362  0.32262  0.71231  1.0000
  C   C266      1.0  0.14727  0.28785  0.71527  1.0000
  H   H264      1.0  0.02636  0.41020  0.00846  1.0000
  C   C267      1.0  0.08876  0.31017  0.70814  1.0000
  N   N21       1.0  0.43325  0.29213  0.70388  1.0000
  S   S92       1.0  0.30692  0.50147  0.60213  1.0000
  S   S93       1.0  0.43672  0.29207  0.57873  1.0000
  C   C268      1.0  0.42979  0.27379  0.87430  1.0000
  H   H265      1.0  0.49096  0.40612  0.72777  1.0000
  H   H266      1.0  0.48068  0.39962  0.65533  1.0000
  H   H267      1.0  0.39755  0.26969  0.59490  1.0000
  H   H268      1.0  0.38226  0.46743  0.57806  1.0000
  C   C269      1.0  0.51813  0.38921  0.69560  1.0000
  C   C270      1.0  0.03125  0.40696  0.71451  1.0000
  Fe  Fe43      1.0  0.32996  0.51164  0.56651  1.0000
  H   H269      1.0  0.31582  0.46004  0.56386  1.0000
  Fe  Fe44      1.0  0.46782  0.35345  0.52849  1.0000
  C   C271      1.0  0.48449  0.40071  0.70965  1.0000
  C   C272      1.0  0.22381  0.45918  0.00737  1.0000
  C   C273      1.0  0.15336  0.39168  0.87359  1.0000
  Fe  Fe45      1.0  0.42470  0.36436  0.54153  1.0000
  H   H270      1.0  0.33847  0.50307  0.63986  1.0000
  C   C274      1.0  0.43209  0.27700  0.52871  1.0000
  C   C275      1.0  0.40596  0.43808  0.53178  1.0000
  C   C276      1.0  0.32467  0.45714  0.58148  1.0000
  N   N22       1.0  0.15572  0.40451  0.85024  1.0000
  C   C277      1.0  0.43578  0.27312  0.55673  1.0000
  H   H271      1.0  0.22841  0.51291  0.89369  1.0000
  H   H272      1.0  0.06969  0.35678  0.94846  1.0000
  N   N23       1.0  0.19421  0.46527  0.98400  1.0000
  H   H273      1.0  0.21518  0.48692  0.98702  1.0000
  C   C278      1.0  0.19086  0.39980  0.84963  1.0000
  Fe  Fe46      1.0  0.36282  0.49578  0.52668  1.0000
  C   C279      1.0  0.51551  0.37844  0.80909  1.0000
  H   H274      1.0  0.13879  0.38871  0.88336  1.0000
  C   C280      1.0  0.09327  0.29032  0.70584  1.0000
  H   H275      1.0  0.38402  0.44186  0.59028  1.0000
  C   C281      1.0  0.23889  0.50493  0.90638  1.0000
  N   N24       1.0  0.12704  0.29547  0.71290  1.0000
  H   H276      1.0  0.37610  0.36319  0.75681  1.0000
  H   H277      1.0  0.32002  0.44774  0.65201  1.0000
  C   C282      1.0  0.11264  0.28319  0.70810  1.0000
  C   C283      1.0  0.51744  0.37267  0.78184  1.0000
  N   N25       1.0  0.49982  0.39533  0.68820  1.0000
  H   H278      1.0  0.07375  0.31593  0.70711  1.0000
  H   H279      1.0  0.43736  0.28818  0.74748  1.0000
  S   S94       1.0  0.06689  0.39886  0.01404  1.0000
  H   H280      1.0  0.29052  0.50608  0.82866  1.0000
  H   H281      1.0  0.50562  0.38920  0.61923  1.0000
  H   H282      1.0  0.46550  0.32219  0.66572  1.0000
  H   H283      1.0  0.05416  0.43295  0.74515  1.0000
  H   H284      1.0  0.14756  0.27209  0.72305  1.0000
  Fe  Fe47      1.0  0.22963  0.51700  0.01691  1.0000
  H   H285      1.0  0.06157  0.40738  0.74403  1.0000
  H   H286      1.0  0.15454  0.29563  0.73065  1.0000
  H   H287      1.0  0.30113  0.51440  0.76874  1.0000
  C   C284      1.0  0.42583  0.28684  0.73292  1.0000
  C   C285      1.0  0.20159  0.43305  0.00524  1.0000
  C   C286      1.0  0.38792  0.44700  0.52493  1.0000
  H   H288      1.0  0.41352  0.27383  0.68728  1.0000
  H   H289      1.0  0.09625  0.30848  0.00762  1.0000
  C   C287      1.0  0.28520  0.51619  0.77042  1.0000
  H   H290      1.0  0.02606  0.38249  0.81399  1.0000
  H   H291      1.0  0.13750  0.46443  0.01519  1.0000
  H   H292      1.0  0.28325  0.51201  0.72692  1.0000
  H   H293      1.0  0.41312  0.29673  0.73877  1.0000
  C   C288      1.0  0.27515  0.51469  0.74667  1.0000
  C   C289      1.0  0.21883  0.43972  0.01413  1.0000
  H   H294      1.0  0.41820  0.44710  0.53434  1.0000
  H   H295      1.0  0.23726  0.46458  0.01389  1.0000
  H   H296      1.0  0.42111  0.27140  0.73580  1.0000
  S   S95       1.0  0.32981  0.49833  0.52508  1.0000
  C   C290      1.0  0.25465  0.51617  0.74873  1.0000
  H   H297      1.0  0.24672  0.51461  0.73057  1.0000
  H   H298      1.0  0.08281  0.27611  0.00223  1.0000
  C   C291      1.0  0.02320  0.36986  0.96232  1.0000
  H   H299      1.0  0.08178  0.28036  0.70322  1.0000
  H   H300      1.0  0.15058  0.27198  0.78663  1.0000
  C   C292      1.0  0.02418  0.37716  0.90475  1.0000
  H   H301      1.0  0.02476  0.38001  0.88218  1.0000
  N   N26       1.0  0.12876  0.26910  0.97162  1.0000
  C   C293      1.0  0.02677  0.39646  0.02134  1.0000
  C   C294      1.0  0.37494  0.41469  0.52356  1.0000
  Fe  Fe48      1.0  0.09486  0.38136  0.02176  1.0000
  Fe  Fe49      1.0  0.44439  0.66855  0.49527  1.0000
  S   S96       1.0  0.45400  0.65482  0.45572  1.0000
  Fe  Fe50      1.0  0.41454  0.68077  0.32037  1.0000
  S   S97       1.0  0.42408  0.65124  0.30726  1.0000
  S   S98       1.0  0.39944  0.68680  0.36170  1.0000
  Fe  Fe51      1.0  0.43010  0.70211  0.26645  1.0000
  S   S99       1.0  0.44075  0.67424  0.24764  1.0000
  S   S100      1.0  0.43256  0.73242  0.24401  1.0000
  Fe  Fe52      1.0  0.41192  0.66203  0.26681  1.0000
  S   S101      1.0  0.39484  0.63975  0.24787  1.0000
  Fe  Fe53      1.0  0.45193  0.66564  0.28958  1.0000
  S   S102      1.0  0.48091  0.65070  0.29944  1.0000
  S   S103      1.0  0.40024  0.69073  0.28139  1.0000
  S   S104      1.0  0.44346  0.69419  0.30689  1.0000
  H   H302      1.0  0.35616  0.57104  0.48896  1.0000
  S   S105      1.0  0.32070  0.54828  0.46883  1.0000
  H   H303      1.0  0.05895  0.72292  0.32572  1.0000
  H   H304      1.0  0.22500  0.58560  0.05803  1.0000
  H   H305      1.0  0.13128  0.59443  0.06733  1.0000
  C   C295      1.0  0.03181  0.66329  0.31907  1.0000
  Fe  Fe54      1.0  0.28662  0.60442  0.28227  1.0000
  S   S106      1.0  0.30068  0.57511  0.27458  1.0000
  S   S107      1.0  0.30358  0.63183  0.28514  1.0000
  Fe  Fe55      1.0  0.24560  0.58815  0.29297  1.0000
  S   S108      1.0  0.25717  0.55738  0.28724  1.0000
  S   S109      1.0  0.21227  0.59123  0.30034  1.0000
  Fe  Fe56      1.0  0.28179  0.56411  0.31304  1.0000
  S   S110      1.0  0.29527  0.54136  0.34467  1.0000
  Fe  Fe57      1.0  0.27481  0.57099  0.24946  1.0000
  S   S111      1.0  0.27989  0.55807  0.20686  1.0000
  S   S112      1.0  0.26866  0.59365  0.32178  1.0000
  S   S113      1.0  0.26234  0.60151  0.25416  1.0000
  C   C296      1.0  0.52059  0.67820  0.24327  1.0000
  S   S114      1.0  0.08380  0.67830  0.06537  1.0000
  Fe  Fe58      1.0  0.10123  0.70394  0.07289  1.0000
  S   S115      1.0  0.09910  0.71893  0.11231  1.0000
  S   S116      1.0  0.13009  0.69170  0.05534  1.0000
  Fe  Fe59      1.0  0.08711  0.66809  0.31243  1.0000
  S   S117      1.0  0.07760  0.68463  0.27366  1.0000
  S   S118      1.0  0.06570  0.65633  0.34749  1.0000
  Fe  Fe60      1.0  0.13093  0.67434  0.29544  1.0000
  S   S119      1.0  0.12466  0.69191  0.25534  1.0000
  S   S120      1.0  0.16235  0.67083  0.30732  1.0000
  Fe  Fe61      1.0  0.09997  0.70626  0.28088  1.0000
  S   S121      1.0  0.08851  0.73757  0.28020  1.0000
  Fe  Fe62      1.0  0.10298  0.66862  0.25239  1.0000
  S   S122      1.0  0.10011  0.65436  0.21326  1.0000
  S   S123      1.0  0.10791  0.69074  0.32141  1.0000
  S   S124      1.0  0.11089  0.65001  0.29063  1.0000
  C   C297      1.0  0.04004  0.65941  0.34477  1.0000
  H   H306      1.0  0.06113  0.69989  0.11622  1.0000
  H   H307      1.0  0.04731  0.72857  0.27827  1.0000
  H   H308      1.0  0.04125  0.66404  0.29985  1.0000
  H   H309      1.0  0.44844  0.76220  0.32786  1.0000
  C   C298      1.0  0.50691  0.62231  0.24402  1.0000
  H   H310      1.0  0.38425  0.72799  0.33536  1.0000
  H   H311      1.0  0.11715  0.75099  0.33140  1.0000
  C   C299      1.0  0.32693  0.59836  0.33256  1.0000
  H   H312      1.0  0.13067  0.73786  0.26299  1.0000
  C   C300      1.0  0.12507  0.75278  0.26399  1.0000
  C   C301      1.0  0.09872  0.70111  0.14059  1.0000
  C   C302      1.0  0.09722  0.70660  0.16790  1.0000
  C   C303      1.0  0.09706  0.69222  0.19048  1.0000
  C   C304      1.0  0.09816  0.67240  0.18566  1.0000
  C   C305      1.0  0.09905  0.66695  0.15840  1.0000
  C   C306      1.0  0.09974  0.68129  0.13588  1.0000
  H   H313      1.0  0.09636  0.72195  0.17163  1.0000
  H   H314      1.0  0.09617  0.69651  0.21156  1.0000
  H   H315      1.0  0.09977  0.65162  0.15464  1.0000
  H   H316      1.0  0.10135  0.67690  0.11493  1.0000
  C   C307      1.0  0.19940  0.61413  0.29771  1.0000
  C   C308      1.0  0.20836  0.63144  0.30197  1.0000
  C   C309      1.0  0.19693  0.64892  0.30396  1.0000
  C   C310      1.0  0.17661  0.64931  0.30109  1.0000
  C   C311      1.0  0.16783  0.63218  0.29561  1.0000
  C   C312      1.0  0.17915  0.61462  0.29426  1.0000
  H   H317      1.0  0.22392  0.63121  0.30484  1.0000
  H   H318      1.0  0.20384  0.66212  0.30820  1.0000
  H   H319      1.0  0.15220  0.63226  0.29345  1.0000
  H   H320      1.0  0.17212  0.60126  0.29104  1.0000
  C   C313      1.0  0.39096  0.75092  0.28288  1.0000
  C   C314      1.0  0.51160  0.67813  0.39574  1.0000
  C   C315      1.0  0.24267  0.54916  0.19247  1.0000
  C   C316      1.0  0.26273  0.55086  0.18410  1.0000
  C   C317      1.0  0.33567  0.63030  0.34628  1.0000
  H   H321      1.0  0.37317  0.62972  0.49668  1.0000
  H   H322      1.0  0.23711  0.55267  0.21319  1.0000
  H   H323      1.0  0.18244  0.60903  0.38857  1.0000
  C   C318      1.0  0.36886  0.64166  0.33778  1.0000
  C   C319      1.0  0.25007  0.58930  0.08071  1.0000
  C   C320      1.0  0.31390  0.54588  0.43425  1.0000
  H   H324      1.0  0.39147  0.56089  0.48142  1.0000
  C   C321      1.0  0.22979  0.54256  0.17418  1.0000
  C   C322      1.0  0.30234  0.54368  0.37912  1.0000
  C   C323      1.0  0.29987  0.56125  0.39185  1.0000
  C   C324      1.0  0.30561  0.56231  0.41915  1.0000
  Fe  Fe63      1.0  0.07914  0.69463  0.02407  1.0000
  H   H325      1.0  0.41430  0.63110  0.46654  1.0000
  H   H326      1.0  0.29333  0.57399  0.38084  1.0000
  H   H327      1.0  0.30343  0.57595  0.42879  1.0000
  C   C325      1.0  0.32868  0.63408  0.27316  1.0000
  C   C326      1.0  0.33835  0.65085  0.27843  1.0000
  C   C327      1.0  0.35856  0.65280  0.27061  1.0000
  C   C328      1.0  0.36927  0.63805  0.25715  1.0000
  C   C329      1.0  0.35954  0.62140  0.25145  1.0000
  C   C330      1.0  0.33934  0.61935  0.25955  1.0000
  H   H328      1.0  0.33018  0.66235  0.28881  1.0000
  H   H329      1.0  0.36582  0.66574  0.27491  1.0000
  H   H330      1.0  0.36769  0.61000  0.24084  1.0000
  H   H331      1.0  0.33202  0.60647  0.25511  1.0000
  C   C331      1.0  0.43843  0.75196  0.26288  1.0000
  Fe  Fe64      1.0  0.11244  0.66694  0.04446  1.0000
  H   H332      1.0  0.44334  0.73425  0.30087  1.0000
  C   C332      1.0  0.50285  0.65988  0.28228  1.0000
  C   C333      1.0  0.23660  0.53797  0.14703  1.0000
  H   H333      1.0  0.48889  0.67847  0.25079  1.0000
  H   H334      1.0  0.52048  0.68768  0.22409  1.0000
  C   C334      1.0  0.43958  0.66438  0.42906  1.0000
  C   C335      1.0  0.42702  0.68074  0.43273  1.0000
  C   C336      1.0  0.41444  0.68743  0.41220  1.0000
  C   C337      1.0  0.41501  0.67826  0.38745  1.0000
  C   C338      1.0  0.42826  0.66248  0.38319  1.0000
  C   C339      1.0  0.44039  0.65540  0.40411  1.0000
  H   H335      1.0  0.42711  0.68844  0.45119  1.0000
  H   H336      1.0  0.40454  0.69991  0.41531  1.0000
  H   H337      1.0  0.42885  0.65536  0.36412  1.0000
  H   H338      1.0  0.45022  0.64284  0.40107  1.0000
  H   H339      1.0  0.47134  0.67528  0.35969  1.0000
  H   H340      1.0  0.49502  0.68772  0.32118  1.0000
  H   H341      1.0  0.15721  0.73929  0.04869  1.0000
  C   C340      1.0  0.36239  0.60119  0.49287  1.0000
  C   C341      1.0  0.38732  0.57609  0.48398  1.0000
  C   C342      1.0  0.36751  0.58176  0.48847  1.0000
  C   C343      1.0  0.48631  0.67811  0.36382  1.0000
  C   C344      1.0  0.24382  0.58731  0.13085  1.0000
  H   H342      1.0  0.28507  0.54728  0.15029  1.0000
  H   H343      1.0  0.26010  0.59120  0.06201  1.0000
  H   H344      1.0  0.15353  0.76549  0.25380  1.0000
  H   H345      1.0  0.05655  0.67661  0.15874  1.0000
  C   C345      1.0  0.04780  0.71143  0.32997  1.0000
  C   C346      1.0  0.19682  0.57920  0.09990  1.0000
  H   H346      1.0  0.03380  0.70651  0.08545  1.0000
  C   C347      1.0  0.14669  0.60686  0.35776  1.0000
  C   C348      1.0  0.15990  0.58997  0.04560  1.0000
  N   N27       1.0  0.39663  0.60897  0.48856  1.0000
  C   C349      1.0  0.25662  0.53992  0.13851  1.0000
  H   H347      1.0  0.32878  0.58632  0.34927  1.0000
  H   H348      1.0  0.32046  0.63288  0.35399  1.0000
  H   H349      1.0  0.38932  0.62238  0.31598  1.0000
  H   H350      1.0  0.24905  0.58739  0.15146  1.0000
  C   C350      1.0  0.02981  0.69017  0.02313  1.0000
  N   N28       1.0  0.39559  0.75244  0.30960  1.0000
  C   C351      1.0  0.25691  0.58989  0.10704  1.0000
  H   H351      1.0  0.04403  0.70948  0.35290  1.0000
  C   C352      1.0  0.31074  0.52728  0.39412  1.0000
  N   N29       1.0  0.16022  0.62005  0.36261  1.0000
  H   H352      1.0  0.49301  0.67333  0.51783  1.0000
  H   H353      1.0  0.27235  0.59211  0.10908  1.0000
  H   H354      1.0  0.52098  0.64294  0.31065  1.0000
  C   C353      1.0  0.02658  0.67070  0.15170  1.0000
  H   H355      1.0  0.41713  0.58530  0.48106  1.0000
  H   H356      1.0  0.29717  0.52232  0.23618  1.0000
  H   H357      1.0  0.13086  0.66098  0.36411  1.0000
  H   H358      1.0  0.19375  0.57775  0.07798  1.0000
  N   N30       1.0  0.14492  0.65731  0.16296  1.0000
  C   C354      1.0  0.14678  0.66285  0.13490  1.0000
  C   C355      1.0  0.14001  0.63860  0.17251  1.0000
  C   C356      1.0  0.14321  0.64964  0.11562  1.0000
  C   C357      1.0  0.13622  0.62506  0.15381  1.0000
  C   C358      1.0  0.13779  0.63068  0.12520  1.0000
  C   C359      1.0  0.14855  0.67150  0.18274  1.0000
  H   H359      1.0  0.15052  0.67771  0.12731  1.0000
  H   H360      1.0  0.13828  0.63426  0.19477  1.0000
  H   H361      1.0  0.14425  0.65412  0.09338  1.0000
  H   H362      1.0  0.13168  0.61046  0.16151  1.0000
  H   H363      1.0  0.13454  0.62047  0.11043  1.0000
  H   H364      1.0  0.16461  0.67309  0.18345  1.0000
  H   H365      1.0  0.14149  0.68597  0.17663  1.0000
  H   H366      1.0  0.14205  0.66690  0.20418  1.0000
  H   H367      1.0  0.31155  0.60440  0.33489  1.0000
  H   H368      1.0  0.18725  0.59136  0.10761  1.0000
  C   C360      1.0  0.18063  0.61344  0.36622  1.0000
  N   N31       1.0  0.49852  0.63440  0.22387  1.0000
  H   H369      1.0  0.15116  0.59170  0.35546  1.0000
  C   C361      1.0  0.12699  0.61281  0.35524  1.0000
  H   H370      1.0  0.32877  0.59232  0.31187  1.0000
  Fe  Fe65      1.0  0.20229  0.55251  0.02943  1.0000
  H   H371      1.0  0.34489  0.65806  0.35769  1.0000
  H   H372      1.0  0.04696  0.66708  0.04376  1.0000
  C   C362      1.0  0.23019  0.58601  0.07860  1.0000
  H   H373      1.0  0.08300  0.76352  0.34082  1.0000
  C   C363      1.0  0.03178  0.69676  0.10445  1.0000
  H   H374      1.0  0.36810  0.71230  0.51329  1.0000
  C   C364      1.0  0.40177  0.58996  0.48401  1.0000
  H   H375      1.0  0.03376  0.65503  0.38933  1.0000
  Fe  Fe66      1.0  0.21714  0.52626  0.07829  1.0000
  C   C365      1.0  0.49225  0.67467  0.39083  1.0000
  C   C366      1.0  0.41191  0.62347  0.48783  1.0000
  C   C367      1.0  0.37439  0.62452  0.32521  1.0000
  H   H376      1.0  0.47045  0.63649  0.24683  1.0000
  H   H377      1.0  0.19288  0.56520  0.11222  1.0000
  C   C368      1.0  0.15227  0.75384  0.05400  1.0000
  C   C369      1.0  0.12116  0.63232  0.35795  1.0000
  C   C370      1.0  0.47704  0.63692  0.22486  1.0000
  H   H378      1.0  0.40791  0.72365  0.31687  1.0000
  C   C371      1.0  0.13584  0.75634  0.07299  1.0000
  C   C372      1.0  0.26959  0.54613  0.15703  1.0000
  C   C373      1.0  0.15462  0.63920  0.36532  1.0000
  H   H379      1.0  0.26216  0.53641  0.11780  1.0000
  H   H380      1.0  0.21416  0.58102  0.14661  1.0000
  H   H381      1.0  0.11632  0.60242  0.35100  1.0000
  H   H382      1.0  0.36466  0.59738  0.31330  1.0000
  C   C374      1.0  0.22409  0.58376  0.12798  1.0000
  C   C375      1.0  0.46898  0.74854  0.50862  1.0000
  C   C376      1.0  0.13799  0.76843  0.25887  1.0000
  C   C377      1.0  0.15682  0.63008  0.02816  1.0000
  C   C378      1.0  0.31648  0.52834  0.42143  1.0000
  H   H383      1.0  0.21437  0.54107  0.18111  1.0000
  C   C379      1.0  0.04717  0.69289  0.12157  1.0000
  C   C380      1.0  0.39859  0.73458  0.32807  1.0000
  H   H384      1.0  0.18506  0.60083  0.35381  1.0000
  H   H385      1.0  0.39011  0.73665  0.27513  1.0000
  H   H386      1.0  0.12842  0.74349  0.08274  1.0000
  H   H387      1.0  0.50343  0.65347  0.18663  1.0000
  C   C381      1.0  0.34938  0.64461  0.34837  1.0000
  S   S125      1.0  0.36733  0.52526  0.50314  1.0000
  C   C382      1.0  0.44261  0.74885  0.29082  1.0000
  C   C383      1.0  0.13506  0.64564  0.36286  1.0000
  H   H388      1.0  0.46568  0.73981  0.49207  1.0000
  H   H389      1.0  0.48189  0.66928  0.40793  1.0000
  S   S126      1.0  0.18675  0.53632  0.06668  1.0000
  C   C384      1.0  0.44553  0.76477  0.30612  1.0000
  C   C385      1.0  0.37723  0.61471  0.49277  1.0000
  C   C386      1.0  0.36033  0.61048  0.32359  1.0000
  C   C387      1.0  0.10498  0.75655  0.27073  1.0000
  C   C388      1.0  0.04460  0.67982  0.14540  1.0000
  C   C389      1.0  0.49985  0.68507  0.34206  1.0000
  H   H390      1.0  0.10595  0.63718  0.35583  1.0000
  C   C390      1.0  0.03235  0.67327  0.04108  1.0000
  S   S127      1.0  0.41301  0.73465  0.50477  1.0000
  H   H391      1.0  0.16082  0.57449  0.05215  1.0000
  H   H392      1.0  0.49778  0.61519  0.26126  1.0000
  H   H393      1.0  0.42613  0.61655  0.49382  1.0000
  C   C391      1.0  0.14314  0.60131  0.05415  1.0000
  C   C392      1.0  0.14145  0.62138  0.04536  1.0000
  N   N32       1.0  0.21755  0.58305  0.10211  1.0000
  N   N33       1.0  0.03039  0.71675  0.31477  1.0000
  S   S128      1.0  0.21934  0.53005  0.12496  1.0000
  S   S129      1.0  0.12010  0.63494  0.05712  1.0000
  N   N34       1.0  0.34125  0.61351  0.33397  1.0000
  H   H394      1.0  0.02477  0.66026  0.16997  1.0000
  H   H395      1.0  0.19101  0.62522  0.35866  1.0000
  C   C393      1.0  0.50272  0.67297  0.25833  1.0000
  H   H396      1.0  0.37955  0.65280  0.33884  1.0000
  H   H397      1.0  0.16540  0.64980  0.36844  1.0000
  H   H398      1.0  0.47077  0.62514  0.21440  1.0000
  Fe  Fe67      1.0  0.33445  0.52904  0.50447  1.0000
  C   C394      1.0  0.02758  0.65808  0.36942  1.0000
  S   S130      1.0  0.23276  0.54329  0.04134  1.0000
  H   H399      1.0  0.47256  0.65136  0.21453  1.0000
  H   H400      1.0  0.17403  0.76858  0.02533  1.0000
  S   S131      1.0  0.45624  0.69672  0.50513  1.0000
  H   H401      1.0  0.31294  0.53390  0.28705  1.0000
  S   S132      1.0  0.09402  0.72136  0.03366  1.0000
  H   H402      1.0  0.15035  0.75736  0.31533  1.0000
  H   H403      1.0  0.38530  0.76636  0.24325  1.0000
  H   H404      1.0  0.05456  0.69745  0.32333  1.0000
  C   C395      1.0  0.03271  0.72543  0.28806  1.0000
  C   C396      1.0  0.17523  0.59863  0.02826  1.0000
  S   S133      1.0  0.41295  0.67781  0.50535  1.0000
  N   N35       1.0  0.51885  0.68827  0.34701  1.0000
  H   H405      1.0  0.40629  0.73737  0.34659  1.0000
  H   H406      1.0  0.10558  0.76313  0.10741  1.0000
  C   C397      1.0  0.38821  0.76771  0.26471  1.0000
  C   C398      1.0  0.11447  0.76644  0.33398  1.0000
  H   H407      1.0  0.40770  0.63449  0.50298  1.0000
  H   H408      1.0  0.34704  0.60562  0.49686  1.0000
  Fe  Fe68      1.0  0.42514  0.70477  0.51918  1.0000
  C   C399      1.0  0.51004  0.64376  0.20249  1.0000
  H   H409      1.0  0.51635  0.67551  0.41669  1.0000
  C   C400      1.0  0.52083  0.65301  0.29205  1.0000
  C   C401      1.0  0.46504  0.76871  0.50631  1.0000
  C   C402      1.0  0.42469  0.75060  0.55077  1.0000
  C   C403      1.0  0.09507  0.72003  0.95018  1.0000
  C   C404      1.0  0.37270  0.73058  0.54609  1.0000
  H   H410      1.0  0.35912  0.62003  0.56921  1.0000
  C   C405      1.0  0.14144  0.75091  0.98386  1.0000
  S   S134      1.0  0.39080  0.64681  0.56673  1.0000
  Fe  Fe69      1.0  0.45732  0.68201  0.54836  1.0000
  S   S135      1.0  0.48339  0.68841  0.57138  1.0000
  S   S136      1.0  0.42665  0.69197  0.56335  1.0000
  S   S137      1.0  0.20062  0.52783  0.00206  1.0000
  H   H411      1.0  0.24687  0.52289  0.81765  1.0000
  S   S138      1.0  0.33232  0.54255  0.54586  1.0000
  H   H412      1.0  0.42162  0.58249  0.54989  1.0000
  H   H413      1.0  0.12011  0.74637  0.92643  1.0000
  C   C406      1.0  0.50587  0.68596  0.55091  1.0000
  C   C407      1.0  0.07844  0.74920  0.96867  1.0000
  H   H414      1.0  0.35855  0.58446  0.56274  1.0000
  H   H415      1.0  0.06735  0.73994  0.98004  1.0000
  S   S139      1.0  0.05027  0.70211  0.00558  1.0000
  N   N36       1.0  0.09375  0.74117  0.95276  1.0000
  H   H416      1.0  0.48556  0.74373  0.57314  1.0000
  C   C408      1.0  0.40827  0.61081  0.55699  1.0000
  H   H417      1.0  0.43343  0.76372  0.58655  1.0000
  N   N37       1.0  0.37672  0.73114  0.57329  1.0000
  C   C409      1.0  0.15535  0.76075  0.96537  1.0000
  C   C410      1.0  0.39003  0.58109  0.55570  1.0000
  H   H418      1.0  0.47967  0.72390  0.53480  1.0000
  S   S140      1.0  0.44815  0.65270  0.53731  1.0000
  H   H419      1.0  0.37018  0.68135  0.54426  1.0000
  H   H420      1.0  0.38103  0.71459  0.61206  1.0000
  C   C411      1.0  0.37240  0.59176  0.56107  1.0000
  H   H421      1.0  0.42812  0.73581  0.55907  1.0000
  C   C412      1.0  0.25495  0.52088  0.79765  1.0000
  S   S141      1.0  0.10620  0.68132  0.00208  1.0000
  C   C413      1.0  0.37173  0.69536  0.55249  1.0000
  C   C414      1.0  0.37545  0.69606  0.58033  1.0000
  H   H422      1.0  0.38261  0.76174  0.56761  1.0000
  C   C415      1.0  0.10771  0.75282  0.93844  1.0000
  Fe  Fe70      1.0  0.41724  0.66390  0.54820  1.0000
  H   H423      1.0  0.37679  0.68255  0.59376  1.0000
  C   C416      1.0  0.48008  0.75097  0.55426  1.0000
  S   S142      1.0  0.14221  0.72513  0.98558  1.0000
  H   H424      1.0  0.09178  0.71697  0.92891  1.0000
  C   C417      1.0  0.39071  0.62149  0.56254  1.0000
  C   C418      1.0  0.37277  0.61189  0.56472  1.0000
  H   H425      1.0  0.16620  0.75252  0.95301  1.0000
  C   C419      1.0  0.12738  0.76177  0.99969  1.0000
  H   H426      1.0  0.42218  0.61796  0.55568  1.0000
  H   H427      1.0  0.11011  0.71412  0.95406  1.0000
  S   S143      1.0  0.39070  0.55585  0.55099  1.0000
  Fe  Fe71      1.0  0.36505  0.53705  0.54511  1.0000
  H   H428      1.0  0.39125  0.74905  0.59833  1.0000
  H   H429      1.0  0.08452  0.71198  0.96551  1.0000
  H   H430      1.0  0.18541  0.62557  0.00626  1.0000
  C   C420      1.0  0.37896  0.74999  0.58453  1.0000
  C   C421      1.0  0.40792  0.59070  0.55380  1.0000
  C   C422      1.0  0.37792  0.71419  0.59046  1.0000
  H   H431      1.0  0.36513  0.75440  0.59657  1.0000
  H   H432      1.0  0.27671  0.52783  0.83688  1.0000
  S   S144      1.0  0.19678  0.58501  0.01729  1.0000
  H   H433      1.0  0.11653  0.75437  0.01397  1.0000
  H   H434      1.0  0.29919  0.52986  0.81461  1.0000
  Fe  Fe72      1.0  0.12133  0.70717  0.01502  1.0000
  C   C423      1.0  0.47666  0.73960  0.53266  1.0000
  C   C424      1.0  0.42768  0.76641  0.56631  1.0000
  C   C425      1.0  0.28595  0.52096  0.82000  1.0000
  C   C426      1.0  0.17363  0.61874  0.01970  1.0000
  H   H435      1.0  0.15572  0.64550  0.02123  1.0000
  C   C427      1.0  0.50636  0.67822  0.52507  1.0000
  C   C428      1.0  0.37039  0.71269  0.53520  1.0000
  H   H436      1.0  0.37202  0.74394  0.53227  1.0000
  N   N38       1.0  0.27509  0.51957  0.79538  1.0000
  H   H437      1.0  0.22847  0.51993  0.77645  1.0000
  C   C429      1.0  0.41727  0.75403  0.52459  1.0000
  C   C430      1.0  0.24443  0.51921  0.77440  1.0000
  C   C431      1.0  0.10701  0.80602  0.33899  1.0000
  C   C432      1.0  0.37512  0.93864  0.49285  1.0000
  S   S145      1.0  0.49550  0.85378  0.49160  1.0000
  Fe  Fe73      1.0  0.26592  0.97424  0.24399  1.0000
  S   S146      1.0  0.28104  0.94499  0.23839  1.0000
  S   S147      1.0  0.24646  0.99087  0.21235  1.0000
  Fe  Fe74      1.0  0.27481  0.97193  0.30710  1.0000
  S   S148      1.0  0.28909  0.94188  0.30545  1.0000
  S   S149      1.0  0.27255  0.99045  0.34482  1.0000
  Fe  Fe75      1.0  0.30408  0.95419  0.26471  1.0000
  S   S150      1.0  0.33747  0.95198  0.25766  1.0000
  Fe  Fe76      1.0  0.26448  0.93539  0.27948  1.0000
  S   S151      1.0  0.24893  0.90687  0.27857  1.0000
  S   S152      1.0  0.29046  0.98464  0.26687  1.0000
  S   S153      1.0  0.24876  0.96431  0.28456  1.0000
  C   C433      1.0  0.32522  0.99901  0.32924  1.0000
  S   S154      1.0  0.44430  0.88061  0.49902  1.0000
  Fe  Fe77      1.0  0.42293  0.85769  0.49396  1.0000
  S   S155      1.0  0.40530  0.85862  0.45662  1.0000
  Fe  Fe78      1.0  0.41658  0.86693  0.26968  1.0000
  S   S156      1.0  0.42120  0.85442  0.31324  1.0000
  S   S157      1.0  0.38556  0.87089  0.25647  1.0000
  Fe  Fe79      1.0  0.46070  0.86663  0.25233  1.0000
  S   S158      1.0  0.46884  0.85422  0.29434  1.0000
  S   S159      1.0  0.48229  0.87347  0.21492  1.0000
  Fe  Fe80      1.0  0.44376  0.83424  0.29347  1.0000
  S   S160      1.0  0.44604  0.80357  0.31431  1.0000
  Fe  Fe81      1.0  0.44562  0.87543  0.31038  1.0000
  S   S161      1.0  0.45241  0.89221  0.34573  1.0000
  S   S162      1.0  0.43729  0.84484  0.24978  1.0000
  S   S163      1.0  0.43937  0.88972  0.26834  1.0000
  S   S164      1.0  0.10060  0.87763  0.04757  1.0000
  C   C434      1.0  0.47006  0.83896  0.42807  1.0000
  Fe  Fe82      1.0  0.10832  0.84591  0.05901  1.0000
  S   S165      1.0  0.10572  0.82950  0.10147  1.0000
  Fe  Fe83      1.0  0.13400  0.83736  0.26200  1.0000
  S   S166      1.0  0.12902  0.84858  0.30434  1.0000
  S   S167      1.0  0.14760  0.80706  0.25753  1.0000
  Fe  Fe84      1.0  0.11458  0.87355  0.23388  1.0000
  S   S168      1.0  0.10705  0.88710  0.27406  1.0000
  S   S169      1.0  0.10493  0.88865  0.19396  1.0000
  Fe  Fe85      1.0  0.13819  0.87762  0.28269  1.0000
  S   S170      1.0  0.15600  0.90019  0.30016  1.0000
  Fe  Fe86      1.0  0.09866  0.85689  0.29164  1.0000
  S   S171      1.0  0.07174  0.84477  0.31684  1.0000
  S   S172      1.0  0.14605  0.86569  0.24117  1.0000
  S   S173      1.0  0.10334  0.84436  0.25041  1.0000
  C   C435      1.0  0.13094  0.78780  0.26106  1.0000
  C   C436      1.0  0.11085  0.79140  0.26768  1.0000
  H   H438      1.0  0.18586  0.92433  0.03762  1.0000
  H   H439      1.0  0.10527  0.80604  0.27038  1.0000
  C   C437      1.0  0.04913  0.85687  0.31037  1.0000
  H   H440      1.0  0.05259  0.90620  0.22727  1.0000
  C   C438      1.0  0.04816  0.87699  0.30267  1.0000
  C   C439      1.0  0.04644  0.85710  0.23486  1.0000
  H   H441      1.0  0.06142  0.88528  0.30045  1.0000
  C   C440      1.0  0.10370  0.84542  0.12803  1.0000
  C   C441      1.0  0.09579  0.86444  0.12332  1.0000
  C   C442      1.0  0.09569  0.87756  0.14395  1.0000
  C   C443      1.0  0.10349  0.87165  0.16934  1.0000
  C   C444      1.0  0.11101  0.85249  0.17429  1.0000
  C   C445      1.0  0.11095  0.83933  0.15375  1.0000
  H   H442      1.0  0.08948  0.86898  0.10397  1.0000
  H   H443      1.0  0.08969  0.89231  0.14014  1.0000
  H   H444      1.0  0.11754  0.84794  0.19351  1.0000
  H   H445      1.0  0.11711  0.82463  0.15749  1.0000
  H   H446      1.0  0.10001  0.78601  0.08782  1.0000
  H   H447      1.0  0.08241  0.77893  0.27737  1.0000
  C   C446      1.0  0.33963  0.94440  0.48996  1.0000
  C   C447      1.0  0.13800  0.93599  0.02735  1.0000
  S   S174      1.0  0.13889  0.84744  0.03852  1.0000
  C   C448      1.0  0.44069  0.78713  0.26543  1.0000
  C   C449      1.0  0.44429  0.78396  0.29361  1.0000
  H   H448      1.0  0.30305  0.96304  0.36684  1.0000
  C   C450      1.0  0.51899  0.88225  0.19221  1.0000
  H   H449      1.0  0.43975  0.80185  0.25554  1.0000
  C   C451      1.0  0.39230  0.92681  0.49047  1.0000
  C   C452      1.0  0.41750  0.86986  0.42615  1.0000
  C   C453      1.0  0.43643  0.87677  0.42654  1.0000
  C   C454      1.0  0.44656  0.88476  0.40197  1.0000
  C   C455      1.0  0.43809  0.88522  0.37662  1.0000
  C   C456      1.0  0.41898  0.87871  0.37613  1.0000
  C   C457      1.0  0.40862  0.87116  0.40095  1.0000
  H   H450      1.0  0.44375  0.87523  0.44539  1.0000
  H   H451      1.0  0.46137  0.88972  0.40240  1.0000
  H   H452      1.0  0.41211  0.87967  0.35671  1.0000
  H   H453      1.0  0.39390  0.86600  0.40050  1.0000
  H   H454      1.0  0.37582  0.95294  0.50056  1.0000
  C   C458      1.0  0.28553  0.98887  0.37563  1.0000
  C   C459      1.0  0.13825  0.79090  0.06602  1.0000
  H   H455      1.0  0.50212  0.90243  0.49223  1.0000
  C   C460      1.0  0.31125  0.97484  0.40423  1.0000
  H   H456      1.0  0.15811  0.78195  0.30891  1.0000
  C   C461      1.0  0.28179  0.00331  0.39459  1.0000
  C   C462      1.0  0.35019  0.92901  0.26052  1.0000
  C   C463      1.0  0.37054  0.92832  0.26328  1.0000
  C   C464      1.0  0.38136  0.91039  0.26382  1.0000
  C   C465      1.0  0.37197  0.89306  0.26088  1.0000
  C   C466      1.0  0.35158  0.89372  0.25850  1.0000
  C   C467      1.0  0.34068  0.91160  0.25861  1.0000
  H   H457      1.0  0.37799  0.94174  0.26480  1.0000
  H   H458      1.0  0.39706  0.91007  0.26562  1.0000
  H   H459      1.0  0.34420  0.88040  0.25614  1.0000
  H   H460      1.0  0.32501  0.91196  0.25646  1.0000
  C   C468      1.0  0.22315  0.90497  0.28538  1.0000
  C   C469      1.0  0.21393  0.88891  0.27665  1.0000
  C   C470      1.0  0.19340  0.88705  0.28137  1.0000
  C   C471      1.0  0.18197  0.90108  0.29538  1.0000
  C   C472      1.0  0.19124  0.91697  0.30450  1.0000
  C   C473      1.0  0.21170  0.91905  0.29923  1.0000
  H   H461      1.0  0.22273  0.87788  0.26610  1.0000
  H   H462      1.0  0.18645  0.87475  0.27429  1.0000
  H   H463      1.0  0.18251  0.92786  0.31541  1.0000
  H   H464      1.0  0.21864  0.93135  0.30633  1.0000
  C   C474      1.0  0.24698  0.99364  0.11620  1.0000
  C   C475      1.0  0.26348  0.98588  0.12962  1.0000
  C   C476      1.0  0.26333  0.98409  0.15906  1.0000
  C   C477      1.0  0.24666  0.99013  0.17549  1.0000
  C   C478      1.0  0.22995  0.99732  0.16211  1.0000
  H   H465      1.0  0.05366  0.87583  0.04783  1.0000
  H   H466      1.0  0.27632  0.97856  0.16895  1.0000
  H   H467      1.0  0.03246  0.83076  0.31983  1.0000
  S   S175      1.0  0.24869  0.99752  0.07899  1.0000
  H   H468      1.0  0.34287  0.96017  0.48604  1.0000
  H   H469      1.0  0.16150  0.80184  0.03604  1.0000
  N   N39       1.0  0.13930  0.89428  0.11375  1.0000
  C   C479      1.0  0.14407  0.87752  0.10098  1.0000
  C   C480      1.0  0.14304  0.89543  0.14093  1.0000
  C   C481      1.0  0.15229  0.86114  0.11571  1.0000
  C   C482      1.0  0.15140  0.87937  0.15623  1.0000
  C   C483      1.0  0.15594  0.86209  0.14354  1.0000
  C   C484      1.0  0.13062  0.91134  0.09813  1.0000
  H   H470      1.0  0.14123  0.87664  0.07944  1.0000
  H   H471      1.0  0.13891  0.90856  0.15126  1.0000
  H   H472      1.0  0.15538  0.84769  0.10571  1.0000
  H   H473      1.0  0.15355  0.88009  0.17811  1.0000
  H   H474      1.0  0.16179  0.84932  0.15548  1.0000
  H   H475      1.0  0.14210  0.92220  0.09141  1.0000
  H   H476      1.0  0.12428  0.90721  0.07912  1.0000
  H   H477      1.0  0.11849  0.91822  0.11118  1.0000
  H   H478      1.0  0.12535  0.96540  0.02518  1.0000
  C   C485      1.0  0.17259  0.93326  0.03496  1.0000
  C   C486      1.0  0.39453  0.78755  0.30151  1.0000
  C   C487      1.0  0.30797  0.98966  0.42266  1.0000
  C   C488      1.0  0.02470  0.89209  0.23007  1.0000
  C   C489      1.0  0.34828  0.99159  0.36312  1.0000
  C   C490      1.0  0.29289  0.00372  0.41795  1.0000
  C   C491      1.0  0.14995  0.77165  0.32455  1.0000
  H   H479      1.0  0.18683  0.96041  0.03846  1.0000
  N   N40       1.0  0.21048  0.94059  0.23017  1.0000
  C   C492      1.0  0.20398  0.95684  0.24319  1.0000
  C   C493      1.0  0.19789  0.92601  0.22753  1.0000
  C   C494      1.0  0.18453  0.95846  0.25484  1.0000
  C   C495      1.0  0.17826  0.92732  0.23849  1.0000
  C   C496      1.0  0.17164  0.94354  0.25254  1.0000
  C   C497      1.0  0.23088  0.93894  0.21817  1.0000
  H   H480      1.0  0.21394  0.96848  0.24508  1.0000
  H   H481      1.0  0.20318  0.91297  0.21773  1.0000
  H   H482      1.0  0.16851  0.91534  0.23756  1.0000
  H   H483      1.0  0.15674  0.94414  0.26244  1.0000
  H   H484      1.0  0.23168  0.94267  0.19523  1.0000
  H   H485      1.0  0.24035  0.94902  0.22719  1.0000
  H   H486      1.0  0.23715  0.92390  0.22295  1.0000
  N   N41       1.0  0.39793  0.90250  0.19610  1.0000
  C   C498      1.0  0.40518  0.92017  0.20041  1.0000
  C   C499      1.0  0.41030  0.88639  0.19394  1.0000
  C   C500      1.0  0.42531  0.92200  0.20281  1.0000
  C   C501      1.0  0.43052  0.88773  0.19602  1.0000
  C   C502      1.0  0.43804  0.90568  0.20037  1.0000
  C   C503      1.0  0.37699  0.90105  0.19219  1.0000
  H   H487      1.0  0.39534  0.93289  0.20246  1.0000
  H   H488      1.0  0.40449  0.87229  0.19114  1.0000
  H   H489      1.0  0.43098  0.93592  0.20678  1.0000
  H   H490      1.0  0.44032  0.87490  0.19470  1.0000
  H   H491      1.0  0.45368  0.90677  0.20247  1.0000
  H   H492      1.0  0.36787  0.91226  0.20322  1.0000
  H   H493      1.0  0.37464  0.90302  0.16964  1.0000
  H   H494      1.0  0.37151  0.88657  0.20115  1.0000
  C   C504      1.0  0.17318  0.95370  0.03549  1.0000
  H   H495      1.0  0.15764  0.76995  0.34400  1.0000
  S   S176      1.0  0.44426  0.83279  0.50290  1.0000
  S   S177      1.0  0.32439  0.99080  0.44933  1.0000
  H   H496      1.0  0.48653  0.85533  0.36185  1.0000
  C   C505      1.0  0.45217  0.83164  0.42220  1.0000
  C   C506      1.0  0.15618  0.96539  0.03185  1.0000
  H   H497      1.0  0.02174  0.87718  0.07663  1.0000
  H   H498      1.0  0.50829  0.86952  0.26142  1.0000
  H   H499      1.0  0.13266  0.80544  0.07025  1.0000
  H   H500      1.0  0.45519  0.84141  0.35256  1.0000
  H   H501      1.0  0.44222  0.82567  0.43933  1.0000
  C   C507      1.0  0.13857  0.95644  0.02801  1.0000
  Fe  Fe87      1.0  0.46461  0.85568  0.51181  1.0000
  C   C508      1.0  0.48257  0.84745  0.40629  1.0000
  H   H502      1.0  0.41745  0.82436  0.40804  1.0000
  N   N42       1.0  0.12968  0.77905  0.33049  1.0000
  C   C509      1.0  0.09789  0.77591  0.27197  1.0000
  S   S178      1.0  0.15656  0.99123  0.03037  1.0000
  N   N43       1.0  0.33368  0.00352  0.35242  1.0000
  H   H503      1.0  0.07639  0.79927  0.34511  1.0000
  H   H504      1.0  0.39658  0.80179  0.30876  1.0000
  C   C510      1.0  0.42823  0.82503  0.38933  1.0000
  H   H505      1.0  0.02596  0.82633  0.23003  1.0000
  H   H506      1.0  0.43078  0.81022  0.38184  1.0000
  S   S179      1.0  0.35841  0.99628  0.50246  1.0000
  H   H507      1.0  0.51200  0.88490  0.17287  1.0000
  Fe  Fe88      1.0  0.22505  0.01157  0.05202  1.0000
  H   H508      1.0  0.40694  0.77595  0.49389  1.0000
  H   H509      1.0  0.32424  0.97829  0.29837  1.0000
  Fe  Fe89      1.0  0.32803  0.00540  0.48987  1.0000
  H   H510      1.0  0.51308  0.83718  0.20471  1.0000
  H   H511      1.0  0.21723  0.00491  0.12282  1.0000
  C   C511      1.0  0.51474  0.85246  0.51367  1.0000
  H   H512      1.0  0.37273  0.88709  0.46770  1.0000
  H   H513      1.0  0.32275  0.96378  0.40767  1.0000
  H   H514      1.0  0.38845  0.79927  0.26008  1.0000
  C   C512      1.0  0.15471  0.78895  0.04691  1.0000
  C   C513      1.0  0.16174  0.77028  0.04091  1.0000
  C   C514      1.0  0.33113  0.98200  0.31645  1.0000
  C   C515      1.0  0.45936  0.84057  0.37379  1.0000
  H   H515      1.0  0.17962  0.97101  0.26606  1.0000
  C   C516      1.0  0.03179  0.84631  0.31363  1.0000
  C   C517      1.0  0.39144  0.90821  0.48125  1.0000
  C   C518      1.0  0.09507  0.77344  0.33942  1.0000
  C   C519      1.0  0.41284  0.77325  0.51404  1.0000
  S   S180      1.0  0.15552  0.89867  0.02925  1.0000
  C   C520      1.0  0.02197  0.87526  0.05459  1.0000
  H   H516      1.0  0.11565  0.78543  0.11605  1.0000
  H   H517      1.0  0.31339  0.00824  0.32097  1.0000
  N   N44       1.0  0.44695  0.83276  0.39534  1.0000
  C   C521      1.0  0.35450  0.97441  0.35083  1.0000
  C   C522      1.0  0.30009  0.97438  0.38097  1.0000
  H   H518      1.0  0.36583  0.96480  0.35961  1.0000
  C   C523      1.0  0.04518  0.89240  0.22920  1.0000
  H   H519      1.0  0.35032  0.95633  0.31749  1.0000
  H   H520      1.0  0.42139  0.83476  0.37289  1.0000
  C   C524      1.0  0.09136  0.79341  0.34170  1.0000
  H   H521      1.0  0.34264  0.90845  0.47273  1.0000
  Fe  Fe90      1.0  0.18451  0.00773  0.03247  1.0000
  H   H522      1.0  0.07201  0.87494  0.23167  1.0000
  Fe  Fe91      1.0  0.13058  0.87855  0.02410  1.0000
  C   C525      1.0  0.23007  0.99904  0.13271  1.0000
  C   C526      1.0  0.50764  0.87694  0.21709  1.0000
  H   H523      1.0  0.13827  0.80855  0.33046  1.0000
  H   H524      1.0  0.40609  0.93189  0.49629  1.0000
  H   H525      1.0  0.10416  0.82155  0.34075  1.0000
  C   C527      1.0  0.05613  0.87481  0.23170  1.0000
  H   H526      1.0  0.49620  0.85368  0.41072  1.0000
  C   C528      1.0  0.51693  0.87354  0.24204  1.0000
  H   H527      1.0  0.50885  0.82606  0.25296  1.0000
  H   H528      1.0  0.05509  0.84353  0.23754  1.0000
  H   H529      1.0  0.27663  0.98158  0.11713  1.0000
  H   H530      1.0  0.43464  0.77370  0.22846  1.0000
  C   C529      1.0  0.39718  0.77045  0.31912  1.0000
  C   C530      1.0  0.47723  0.84826  0.37893  1.0000
  H   H531      1.0  0.02915  0.90221  0.29343  1.0000
  H   H532      1.0  0.40460  0.89882  0.47937  1.0000
  H   H533      1.0  0.40115  0.77171  0.34013  1.0000
  C   C531      1.0  0.04005  0.87451  0.03834  1.0000
  H   H534      1.0  0.47399  0.83854  0.44942  1.0000
  H   H535      1.0  0.21694  0.00199  0.17457  1.0000
  C   C532      1.0  0.12620  0.79857  0.33329  1.0000
  C   C533      1.0  0.37350  0.90162  0.47470  1.0000
  C   C534      1.0  0.34582  0.96963  0.32732  1.0000
  C   C535      1.0  0.39005  0.78613  0.27413  1.0000
  H   H536      1.0  0.33287  0.94172  0.51171  1.0000
  N   N45       1.0  0.02639  0.85692  0.23489  1.0000
  C   C536      1.0  0.11174  0.77734  0.09848  1.0000
  H   H537      1.0  0.35484  0.99508  0.38169  1.0000
  C   C537      1.0  0.35658  0.91379  0.47749  1.0000
  C   C538      1.0  0.02987  0.88656  0.29882  1.0000
  C   C539      1.0  0.15508  0.92434  0.03066  1.0000
  N   N46       1.0  0.35761  0.93212  0.48617  1.0000
  H   H538      1.0  0.45850  0.77569  0.48810  1.0000
  C   C540      1.0  0.50296  0.90264  0.51455  1.0000
  H   H539      1.0  0.27046  0.01452  0.39088  1.0000
  H   H540      1.0  0.41289  0.80387  0.52088  1.0000
  H   H541      1.0  0.32878  0.94155  0.47506  1.0000
  H   H542      1.0  0.29009  0.01521  0.43187  1.0000
  S   S181      1.0  0.09592  0.83436  0.02255  1.0000
  H   H543      1.0  0.12443  0.92928  0.02403  1.0000
  C   C541      1.0  0.43780  0.77116  0.25010  1.0000
  N   N47       1.0  0.12906  0.77472  0.07879  1.0000
  C   C542      1.0  0.16610  0.97111  0.96374  1.0000
  C   C543      1.0  0.28096  0.00292  0.63418  1.0000
  C   C544      1.0  0.36999  0.94218  0.56121  1.0000
  C   C545      1.0  0.19426  0.94867  0.96329  1.0000
  Fe  Fe92      1.0  0.43209  0.87869  0.54359  1.0000
  S   S182      1.0  0.34683  0.95464  0.56336  1.0000
  S   S183      1.0  0.42962  0.90866  0.55960  1.0000
  Fe  Fe93      1.0  0.43234  0.83412  0.54740  1.0000
  C   C546      1.0  0.30818  0.99290  0.66019  1.0000
  S   S184      1.0  0.42935  0.80535  0.57388  1.0000
  S   S185      1.0  0.14260  0.81778  0.97335  1.0000
  H   H544      1.0  0.20779  0.99576  0.94869  1.0000
  S   S186      1.0  0.45442  0.85545  0.55717  1.0000
  C   C547      1.0  0.38752  0.95231  0.55824  1.0000
  H   H545      1.0  0.15931  0.00912  0.97336  1.0000
  Fe  Fe94      1.0  0.34357  0.98563  0.54374  1.0000
  H   H546      1.0  0.32521  0.98343  0.61257  1.0000
  H   H547      1.0  0.15030  0.97359  0.96729  1.0000
  Fe  Fe95      1.0  0.12589  0.83866  0.00089  1.0000
  H   H548      1.0  0.38704  0.96814  0.55705  1.0000
  S   S187      1.0  0.11998  0.86980  0.98429  1.0000
  C   C548      1.0  0.12749  0.78244  0.99703  1.0000
  H   H549      1.0  0.38950  0.89543  0.56292  1.0000
  C   C549      1.0  0.48549  0.90377  0.53193  1.0000
  C   C550      1.0  0.40574  0.94189  0.55777  1.0000
  H   H550      1.0  0.09047  0.79712  0.95810  1.0000
  S   S188      1.0  0.06262  0.87416  0.98820  1.0000
  H   H551      1.0  0.49610  0.85465  0.55169  1.0000
  C   C551      1.0  0.15539  0.78119  0.96262  1.0000
  C   C552      1.0  0.20650  0.96453  0.95678  1.0000
  H   H552      1.0  0.48188  0.79789  0.56772  1.0000
  S   S189      1.0  0.21454  0.99850  0.01455  1.0000
  C   C553      1.0  0.17392  0.95193  0.96649  1.0000
  H   H553      1.0  0.27369  0.01773  0.69978  1.0000
  N   N48       1.0  0.17819  0.98659  0.95763  1.0000
  H   H554      1.0  0.20049  0.93388  0.96614  1.0000
  H   H555      1.0  0.30273  0.97164  0.60802  1.0000
  H   H556      1.0  0.35732  0.91372  0.56510  1.0000
  N   N49       1.0  0.29925  0.99413  0.63573  1.0000
  C   C554      1.0  0.16947  0.00648  0.95467  1.0000
  C   C555      1.0  0.42378  0.78569  0.55536  1.0000
  C   C556      1.0  0.09115  0.78144  0.95625  1.0000
  H   H557      1.0  0.06501  0.77574  0.98377  1.0000
  C   C557      1.0  0.30911  0.98585  0.61101  1.0000
  C   C558      1.0  0.19815  0.98351  0.95375  1.0000
  H   H558      1.0  0.49170  0.77650  0.58665  1.0000
  C   C559      1.0  0.37082  0.92164  0.56278  1.0000
  C   C560      1.0  0.38904  0.91125  0.56146  1.0000
  C   C561      1.0  0.40656  0.92133  0.55942  1.0000
  C   C562      1.0  0.50463  0.90238  0.57178  1.0000
  H   H559      1.0  0.27408  0.00428  0.61460  1.0000
  C   C563      1.0  0.27135  0.01126  0.65729  1.0000
  H   H560      1.0  0.41924  0.94978  0.55621  1.0000
  Fe  Fe96      1.0  0.09056  0.86618  0.00899  1.0000
  C   C564      1.0  0.29901  0.00117  0.68367  1.0000
  H   H561      1.0  0.18084  0.01776  0.95283  1.0000
  C   C565      1.0  0.51102  0.85373  0.54243  1.0000
  C   C566      1.0  0.14159  0.79214  0.97842  1.0000
  H   H562      1.0  0.11799  0.78228  0.92917  1.0000
  C   C567      1.0  0.48635  0.90353  0.56071  1.0000
  C   C568      1.0  0.47903  0.78235  0.57511  1.0000
  H   H563      1.0  0.47280  0.90424  0.57430  1.0000
  H   H564      1.0  0.32269  0.98598  0.66143  1.0000
  C   C569      1.0  0.28052  0.01047  0.68211  1.0000
  S   S190      1.0  0.40891  0.85735  0.53788  1.0000
  H   H565      1.0  0.16626  0.78859  0.94813  1.0000
  H   H566      1.0  0.30730  0.99608  0.59213  1.0000
  H   H567      1.0  0.30644  0.00104  0.70267  1.0000
  H   H568      1.0  0.22235  0.96219  0.95433  1.0000
  N   N50       1.0  0.47634  0.77078  0.55172  1.0000
  H   H569      1.0  0.16122  0.00847  0.93574  1.0000
  H   H570      1.0  0.16429  0.93971  0.97195  1.0000
  H   H571      1.0  0.02295  0.86987  0.97528  1.0000
  C   C570      1.0  0.10658  0.77312  0.93987  1.0000
  H   H572      1.0  0.46545  0.78213  0.58965  1.0000
  S   S191      1.0  0.31318  0.99370  0.53126  1.0000
  S   S192      1.0  0.34705  0.01367  0.56302  1.0000
  C   C571      1.0  0.04041  0.87291  0.00962  1.0000
  H   H573      1.0  0.50546  0.90204  0.59416  1.0000
  C   C572      1.0  0.02269  0.87122  0.99748  1.0000
  H   H574      1.0  0.11669  0.79085  0.00917  1.0000
  C   C573      1.0  0.41625  0.78906  0.52926  1.0000
  H   H575      1.0  0.46512  0.79524  0.52667  1.0000
  C   C574      1.0  0.46884  0.77967  0.52819  1.0000
  H   H576      1.0  0.47132  0.90481  0.52324  1.0000
  N   N51       1.0  0.52083  0.90149  0.52558  1.0000
  C   C575      1.0  0.07698  0.76944  0.97079  1.0000
  C   C576      1.0  0.91750  0.26193  0.03947  1.0000
  H   H577      1.0  0.94041  0.26260  0.10883  1.0000
  H   H578      1.0  0.91835  0.12734  0.03807  1.0000
  C   C577      1.0  0.79505  0.02377  0.12457  1.0000
  C   C578      1.0  0.93757  0.26018  0.04334  1.0000
  S   S193      1.0  0.62880  0.13712  0.48581  1.0000
  C   C579      1.0  0.00468  0.17915  0.04943  1.0000
  S   S194      1.0  0.61071  0.23396  0.46614  1.0000
  C   C580      1.0  0.88476  0.09253  0.03248  1.0000
  H   H579      1.0  0.53779  0.20448  0.50723  1.0000
  S   S195      1.0  0.59104  0.18232  0.49598  1.0000
  Fe  Fe97      1.0  0.60979  0.20820  0.49874  1.0000
  C   C581      1.0  0.85355  0.07333  0.09827  1.0000
  S   S196      1.0  0.94799  0.23789  0.05743  1.0000
  H   H580      1.0  0.56229  0.12458  0.51555  1.0000
  S   S197      1.0  0.79280  0.03501  0.09010  1.0000
  C   C582      1.0  0.77626  0.02557  0.32782  1.0000
  H   H581      1.0  0.76367  0.02419  0.13504  1.0000
  H   H582      1.0  0.80490  0.08095  0.08937  1.0000
  S   S198      1.0  0.94109  0.17941  0.05745  1.0000
  C   C583      1.0  0.00801  0.16459  0.03092  1.0000
  H   H583      1.0  0.61904  0.26617  0.42722  1.0000
  H   H584      1.0  0.88984  0.08567  0.09198  1.0000
  C   C584      1.0  0.02061  0.18676  0.06098  1.0000
  H   H585      1.0  0.98981  0.18429  0.05525  1.0000
  H   H586      1.0  0.61385  0.07383  0.48807  1.0000
  C   C585      1.0  0.65785  0.08552  0.50492  1.0000
  N   N52       1.0  0.85904  0.09233  0.09756  1.0000
  C   C586      1.0  0.77792  0.02014  0.14247  1.0000
  H   H587      1.0  0.84979  0.12248  0.09353  1.0000
  H   H588      1.0  0.52571  0.14799  0.49444  1.0000
  H   H589      1.0  0.88351  0.11116  0.09182  1.0000
  C   C587      1.0  0.87942  0.09646  0.10178  1.0000
  C   C588      1.0  0.86916  0.12502  0.03276  1.0000
  H   H590      1.0  0.58554  0.13572  0.50395  1.0000
  Fe  Fe98      1.0  0.81618  0.03597  0.05291  1.0000
  H   H591      1.0  0.82963  0.05401  0.09629  1.0000
  H   H592      1.0  0.85596  0.13432  0.03246  1.0000
  H   H593      1.0  0.76555  0.02998  0.34423  1.0000
  H   H594      1.0  0.68234  0.12914  0.51321  1.0000
  C   C589      1.0  0.82577  0.10360  0.09107  1.0000
  H   H595      1.0  0.91611  0.09152  0.03563  1.0000
  Fe  Fe99      1.0  0.61759  0.16372  0.50767  1.0000
  S   S199      1.0  0.63697  0.18943  0.50548  1.0000
  C   C590      1.0  0.84541  0.10740  0.09428  1.0000
  H   H596      1.0  0.78136  0.02378  0.25728  1.0000
  C   C591      1.0  0.88730  0.13326  0.03564  1.0000
  C   C592      1.0  0.83398  0.06904  0.09569  1.0000
  Fe  Fe100     1.0  0.91625  0.17486  0.03086  1.0000
  C   C593      1.0  0.90299  0.10088  0.03438  1.0000
  C   C594      1.0  0.65070  0.10274  0.49048  1.0000
  H   H597      1.0  0.81509  0.11557  0.08785  1.0000
  H   H598      1.0  0.65345  0.10491  0.46800  1.0000
  H   H599      1.0  0.66600  0.07447  0.49357  1.0000
  C   C595      1.0  0.63957  0.11691  0.50488  1.0000
  H   H600      1.0  0.86439  0.06137  0.10041  1.0000
  C   C596      1.0  0.82005  0.08426  0.09189  1.0000
  C   C597      1.0  0.86790  0.10475  0.03090  1.0000
  C   C598      1.0  0.61268  0.25895  0.47132  1.0000
  H   H601      1.0  0.88135  0.09585  0.12443  1.0000
  S   S200      1.0  0.71335  0.05075  0.51660  1.0000
  H   H602      1.0  0.01795  0.19771  0.07578  1.0000
  H   H603      1.0  0.55340  0.16245  0.51479  1.0000
  S   S201      1.0  0.82583  0.06284  0.02530  1.0000
  Fe  Fe101     1.0  0.94043  0.21067  0.03794  1.0000
  H   H604      1.0  0.82669  0.02111  0.12123  1.0000
  Fe  Fe102     1.0  0.71511  0.02336  0.49324  1.0000
  C   C599      1.0  0.59651  0.09857  0.50245  1.0000
  C   C600      1.0  0.52203  0.20763  0.50975  1.0000
  H   H605      1.0  0.63612  0.23233  0.51481  1.0000
  S   S202      1.0  0.88796  0.15832  0.04111  1.0000
  C   C601      1.0  0.65187  0.23554  0.51527  1.0000
  S   S203      1.0  0.71937  0.02287  0.44541  1.0000
  S   S204      1.0  0.88347  0.06673  0.03547  1.0000
  H   H606      1.0  0.90857  0.24913  0.04287  1.0000
  S   S205      1.0  0.84693  0.02490  0.05819  1.0000
  C   C602      1.0  0.60606  0.08017  0.50585  1.0000
  C   C603      1.0  0.52325  0.15426  0.51428  1.0000
  H   H607      1.0  0.59694  0.10633  0.48177  1.0000
  H   H608      1.0  0.75712  0.03428  0.29515  1.0000
  C   C604      1.0  0.77141  0.02808  0.30010  1.0000
  H   H609      1.0  0.60633  0.25671  0.51608  1.0000
  C   C605      1.0  0.90430  0.12117  0.03578  1.0000
  C   C606      1.0  0.61003  0.26644  0.49762  1.0000
  H   H610      1.0  0.81088  0.02554  0.36598  1.0000
  C   C607      1.0  0.57757  0.12635  0.52097  1.0000
  Fe  Fe103     1.0  0.85650  0.05023  0.02787  1.0000
  H   H611      1.0  0.85379  0.09850  0.02935  1.0000
  H   H612      1.0  0.65869  0.23640  0.49343  1.0000
  C   C608      1.0  0.78498  0.02219  0.27888  1.0000
  Fe  Fe104     1.0  0.82496  0.04472  0.98847  1.0000
  S   S206      1.0  0.81666  0.06269  0.94812  1.0000
  H   H613      1.0  0.87752  0.25772  0.77689  1.0000
  Fe  Fe105     1.0  0.76129  0.07683  0.73624  1.0000
  S   S207      1.0  0.77458  0.10640  0.72677  1.0000
  S   S208      1.0  0.74426  0.06055  0.70648  1.0000
  Fe  Fe106     1.0  0.76868  0.07643  0.79982  1.0000
  S   S209      1.0  0.78084  0.10655  0.79410  1.0000
  S   S210      1.0  0.76911  0.05606  0.84036  1.0000
  Fe  Fe107     1.0  0.75651  0.11436  0.76583  1.0000
  S   S211      1.0  0.73983  0.14355  0.75933  1.0000
  Fe  Fe108     1.0  0.79768  0.09595  0.75601  1.0000
  S   S212      1.0  0.83107  0.09675  0.75464  1.0000
  S   S213      1.0  0.74262  0.08514  0.77474  1.0000
  S   S214      1.0  0.78598  0.06545  0.76215  1.0000
  H   H614      1.0  0.64466  0.15049  0.75916  1.0000
  H   H615      1.0  0.53013  0.19306  0.84230  1.0000
  C   C609      1.0  0.64283  0.09661  0.54825  1.0000
  C   C610      1.0  0.65098  0.25374  0.55666  1.0000
  S   S215      1.0  0.60964  0.16308  0.55378  1.0000
  H   H616      1.0  0.01366  0.16531  0.92846  1.0000
  Fe  Fe109     1.0  0.62718  0.19022  0.55074  1.0000
  S   S216      1.0  0.64944  0.19714  0.57950  1.0000
  C   C611      1.0  0.60625  0.07042  0.53249  1.0000
  Fe  Fe110     1.0  0.63371  0.18552  0.78385  1.0000
  S   S217      1.0  0.64485  0.19399  0.73970  1.0000
  S   S218      1.0  0.65448  0.16818  0.81168  1.0000
  Fe  Fe111     1.0  0.59167  0.20160  0.77406  1.0000
  S   S219      1.0  0.60011  0.21017  0.72876  1.0000
  S   S220      1.0  0.56131  0.21191  0.79094  1.0000
  Fe  Fe112     1.0  0.61698  0.18142  0.72959  1.0000
  S   S221      1.0  0.61930  0.15910  0.69843  1.0000
  Fe  Fe113     1.0  0.62698  0.22183  0.74412  1.0000
  S   S222      1.0  0.63797  0.25097  0.72484  1.0000
  S   S223      1.0  0.60628  0.17162  0.77362  1.0000
  S   S224      1.0  0.61801  0.21461  0.78957  1.0000
  Fe  Fe114     1.0  0.93541  0.19858  0.98046  1.0000
  S   S225      1.0  0.93142  0.21259  0.93758  1.0000
  Fe  Fe115     1.0  0.90960  0.17777  0.75617  1.0000
  S   S226      1.0  0.90466  0.18488  0.80062  1.0000
  S   S227      1.0  0.88207  0.17320  0.73463  1.0000
  Fe  Fe116     1.0  0.95315  0.18827  0.75214  1.0000
  S   S228      1.0  0.95134  0.19615  0.79615  1.0000
  S   S229      1.0  0.98183  0.19570  0.72694  1.0000
  Fe  Fe117     1.0  0.93372  0.16926  0.80591  1.0000
  S   S230      1.0  0.93878  0.15199  0.84653  1.0000
  Fe  Fe118     1.0  0.92264  0.21116  0.78735  1.0000
  S   S231      1.0  0.91347  0.23957  0.80538  1.0000
  S   S232      1.0  0.93767  0.15972  0.76225  1.0000
  S   S233      1.0  0.92551  0.20560  0.74226  1.0000
  H   H617      1.0  0.79479  0.03060  0.92959  1.0000
  H   H618      1.0  0.93707  0.24582  0.75245  1.0000
  C   C612      1.0  0.00302  0.16705  0.75654  1.0000
  C   C613      1.0  0.00361  0.18409  0.73830  1.0000
  H   H619      1.0  0.98902  0.16073  0.76378  1.0000
  S   S234      1.0  0.65966  0.05980  0.55221  1.0000
  C   C614      1.0  0.93550  0.19608  0.91196  1.0000
  C   C615      1.0  0.92941  0.20153  0.88543  1.0000
  C   C616      1.0  0.93093  0.18808  0.86526  1.0000
  C   C617      1.0  0.93861  0.16911  0.87138  1.0000
  C   C618      1.0  0.94523  0.16376  0.89773  1.0000
  C   C619      1.0  0.94379  0.17732  0.91798  1.0000
  H   H620      1.0  0.92289  0.21594  0.88059  1.0000
  H   H621      1.0  0.92550  0.19235  0.84530  1.0000
  H   H622      1.0  0.95135  0.14917  0.90249  1.0000
  H   H623      1.0  0.94914  0.17325  0.93811  1.0000
  H   H624      1.0  0.52336  0.22116  0.54801  1.0000
  C   C620      1.0  0.54080  0.20243  0.77751  1.0000
  C   C621      1.0  0.54169  0.18365  0.76836  1.0000
  C   C622      1.0  0.85162  0.08842  0.85271  1.0000
  H   H625      1.0  0.55546  0.17523  0.76771  1.0000
  H   H626      1.0  0.67654  0.22566  0.75188  1.0000
  N   N53       1.0  0.69438  0.10103  0.57106  1.0000
  C   C623      1.0  0.98082  0.24061  0.76823  1.0000
  H   H627      1.0  0.67322  0.26052  0.83748  1.0000
  H   H628      1.0  0.72015  0.13179  0.70185  1.0000
  H   H629      1.0  0.63125  0.25239  0.78495  1.0000
  H   H630      1.0  0.58009  0.10418  0.56904  1.0000
  C   C624      1.0  0.64241  0.18611  0.61282  1.0000
  C   C625      1.0  0.64314  0.19654  0.63627  1.0000
  C   C626      1.0  0.63601  0.18829  0.66269  1.0000
  C   C627      1.0  0.62862  0.16943  0.66570  1.0000
  C   C628      1.0  0.62862  0.15872  0.64240  1.0000
  C   C629      1.0  0.63536  0.16713  0.61593  1.0000
  H   H631      1.0  0.64853  0.21125  0.63389  1.0000
  H   H632      1.0  0.63593  0.19668  0.68058  1.0000
  H   H633      1.0  0.62292  0.14414  0.64473  1.0000
  H   H634      1.0  0.63506  0.15893  0.59795  1.0000
  H   H635      1.0  0.64821  0.24016  0.56961  1.0000
  C   C630      1.0  0.02041  0.17505  0.94107  1.0000
  H   H636      1.0  0.63944  0.09413  0.57059  1.0000
  H   H637      1.0  0.80780  0.07202  0.80999  1.0000
  C   C631      1.0  0.74492  0.05926  0.66956  1.0000
  C   C632      1.0  0.72901  0.05101  0.65856  1.0000
  C   C633      1.0  0.72974  0.04737  0.63012  1.0000
  C   C634      1.0  0.74653  0.05179  0.61220  1.0000
  C   C635      1.0  0.76216  0.06066  0.62293  1.0000
  C   C636      1.0  0.76136  0.06445  0.65136  1.0000
  H   H638      1.0  0.84462  0.04830  0.89877  1.0000
  C   C637      1.0  0.67000  0.22333  0.79638  1.0000
  H   H639      1.0  0.71623  0.04689  0.67238  1.0000
  C   C638      1.0  0.84441  0.11859  0.75109  1.0000
  C   C639      1.0  0.86386  0.11787  0.75877  1.0000
  C   C640      1.0  0.87532  0.13466  0.75486  1.0000
  C   C641      1.0  0.86758  0.15224  0.74255  1.0000
  C   C642      1.0  0.84807  0.15301  0.73514  1.0000
  C   C643      1.0  0.83644  0.13634  0.73971  1.0000
  H   H640      1.0  0.87021  0.10417  0.76735  1.0000
  H   H641      1.0  0.89037  0.13383  0.76043  1.0000
  H   H642      1.0  0.84197  0.16650  0.72551  1.0000
  H   H643      1.0  0.82153  0.13706  0.73359  1.0000
  C   C644      1.0  0.71617  0.14977  0.77460  1.0000
  C   C645      1.0  0.70702  0.13868  0.79753  1.0000
  C   C646      1.0  0.68812  0.14444  0.80885  1.0000
  C   C647      1.0  0.67812  0.16105  0.79698  1.0000
  C   C648      1.0  0.68726  0.17193  0.77387  1.0000
  C   C649      1.0  0.70622  0.16642  0.76295  1.0000
  H   H644      1.0  0.71462  0.12587  0.80678  1.0000
  H   H645      1.0  0.68125  0.13602  0.82689  1.0000
  H   H646      1.0  0.68005  0.18490  0.76477  1.0000
  H   H647      1.0  0.71325  0.17510  0.74529  1.0000
  C   C650      1.0  0.78176  0.05844  0.87072  1.0000
  C   C651      1.0  0.78332  0.04223  0.89067  1.0000
  C   C652      1.0  0.79358  0.04328  0.91470  1.0000
  C   C653      1.0  0.80231  0.06067  0.91928  1.0000
  C   C654      1.0  0.80054  0.07695  0.89949  1.0000
  C   C655      1.0  0.79045  0.07584  0.87535  1.0000
  H   H648      1.0  0.83926  0.09283  0.81302  1.0000
  C   C656      1.0  0.53895  0.16229  0.52585  1.0000
  H   H649      1.0  0.71161  0.10845  0.74284  1.0000
  C   C657      1.0  0.88113  0.25319  0.75603  1.0000
  Fe  Fe119     1.0  0.58461  0.18365  0.54217  1.0000
  S   S235      1.0  0.60143  0.21089  0.54398  1.0000
  H   H650      1.0  0.66600  0.20813  0.79761  1.0000
  S   S236      1.0  0.93598  0.16651  0.99406  1.0000
  S   S237      1.0  0.74938  0.04505  0.57710  1.0000
  H   H651      1.0  0.52526  0.16062  0.75482  1.0000
  C   C658      1.0  0.88997  0.26648  0.73545  1.0000
  H   H652      1.0  0.99310  0.18271  0.96405  1.0000
  H   H653      1.0  0.97848  0.25670  0.76398  1.0000
  H   H654      1.0  0.63725  0.12985  0.74247  1.0000
  H   H655      1.0  0.77522  0.06421  0.60934  1.0000
  H   H656      1.0  0.69471  0.15611  0.68481  1.0000
  H   H657      1.0  0.68607  0.10722  0.61310  1.0000
  H   H658      1.0  0.58122  0.24758  0.76978  1.0000
  C   C659      1.0  0.89174  0.24154  0.70312  1.0000
  C   C660      1.0  0.67582  0.12995  0.58370  1.0000
  N   N54       1.0  0.87785  0.23450  0.75031  1.0000
  H   H659      1.0  0.82551  0.03921  0.86100  1.0000
  H   H660      1.0  0.86104  0.08012  0.89385  1.0000
  C   C661      1.0  0.86863  0.22090  0.77235  1.0000
  C   C662      1.0  0.00882  0.18495  0.96090  1.0000
  C   C663      1.0  0.63599  0.11395  0.53389  1.0000
  C   C664      1.0  0.58455  0.26231  0.76094  1.0000
  H   H661      1.0  0.85856  0.10247  0.85033  1.0000
  C   C665      1.0  0.69113  0.14575  0.70268  1.0000
  H   H662      1.0  0.87050  0.20546  0.76703  1.0000
  C   C666      1.0  0.00558  0.21666  0.78519  1.0000
  C   C667      1.0  0.67486  0.13625  0.55552  1.0000
  C   C668      1.0  0.88263  0.22872  0.72409  1.0000
  S   S238      1.0  0.98840  0.15456  0.01660  1.0000
  C   C669      1.0  0.66900  0.23311  0.82057  1.0000
  H   H663      1.0  0.97694  0.23345  0.74978  1.0000
  H   H664      1.0  0.68044  0.25699  0.72483  1.0000
  C   C670      1.0  0.68772  0.26263  0.74211  1.0000
  C   C671      1.0  0.67604  0.23331  0.77066  1.0000
  C   C672      1.0  0.68028  0.26218  0.79282  1.0000
  C   C673      1.0  0.63446  0.26683  0.77552  1.0000
  N   N55       1.0  0.68093  0.25254  0.76913  1.0000
  N   N56       1.0  0.66805  0.13376  0.74021  1.0000
  C   C674      1.0  0.65352  0.08224  0.53377  1.0000
  C   C675      1.0  0.81953  0.06050  0.81285  1.0000
  H   H665      1.0  0.71757  0.04055  0.62234  1.0000
  H   H666      1.0  0.66708  0.14992  0.54947  1.0000
  H   H667      1.0  0.01238  0.26290  0.75774  1.0000
  H   H668      1.0  0.66417  0.22549  0.84056  1.0000
  H   H669      1.0  0.99414  0.20603  0.78969  1.0000
  N   N57       1.0  0.89947  0.14481  0.94532  1.0000
  C   C676      1.0  0.89969  0.14561  0.91684  1.0000
  C   C677      1.0  0.89386  0.16097  0.95909  1.0000
  C   C678      1.0  0.89428  0.16296  0.90143  1.0000
  C   C679      1.0  0.88884  0.17868  0.94428  1.0000
  C   C680      1.0  0.88902  0.17963  0.91527  1.0000
  C   C681      1.0  0.90490  0.12655  0.96150  1.0000
  H   H670      1.0  0.90448  0.13299  0.90570  1.0000
  H   H671      1.0  0.89356  0.16031  0.98165  1.0000
  H   H672      1.0  0.89502  0.16367  0.87878  1.0000
  H   H673      1.0  0.88524  0.19166  0.95522  1.0000
  C   C682      1.0  0.85315  0.07586  0.87693  1.0000
  H   H674      1.0  0.91169  0.11542  0.94795  1.0000
  H   H675      1.0  0.91582  0.12937  0.97634  1.0000
  H   H676      1.0  0.89165  0.12032  0.97360  1.0000
  H   H677      1.0  0.87556  0.22170  0.79222  1.0000
  C   C683      1.0  0.92209  0.26081  0.78593  1.0000
  H   H678      1.0  0.00857  0.20458  0.99304  1.0000
  N   N58       1.0  0.83156  0.06538  0.83472  1.0000
  C   C684      1.0  0.70052  0.11888  0.73514  1.0000
  N   N59       1.0  0.58759  0.10712  0.52504  1.0000
  H   H679      1.0  0.59000  0.25401  0.71909  1.0000
  Fe  Fe120     1.0  0.68475  0.03966  0.53710  1.0000
  H   H680      1.0  0.78931  0.08850  0.86040  1.0000
  H   H681      1.0  0.82870  0.05975  0.79275  1.0000
  C   C685      1.0  0.67239  0.14630  0.71698  1.0000
  H   H682      1.0  0.93242  0.24644  0.89795  1.0000
  H   H683      1.0  0.69354  0.07029  0.58053  1.0000
  C   C686      1.0  0.92953  0.26189  0.90026  1.0000
  C   C687      1.0  0.89552  0.26052  0.70896  1.0000
  S   S239      1.0  0.81234  0.01899  0.01604  1.0000
  C   C688      1.0  0.67416  0.25267  0.81885  1.0000
  H   H684      1.0  0.77401  0.02210  0.69406  1.0000
  C   C689      1.0  0.64847  0.13507  0.75516  1.0000
  H   H685      1.0  0.80720  0.09049  0.90273  1.0000
  H   H686      1.0  0.66889  0.13878  0.59965  1.0000
  C   C690      1.0  0.84070  0.08290  0.83167  1.0000
  S   S240      1.0  0.85636  0.03292  0.99046  1.0000
  H   H687      1.0  0.71038  0.08231  0.59979  1.0000
  H   H688      1.0  0.64780  0.12654  0.77591  1.0000
  H   H689      1.0  0.71676  0.07883  0.56394  1.0000
  H   H690      1.0  0.02007  0.14431  0.77826  1.0000
  C   C691      1.0  0.83323  0.05284  0.85819  1.0000
  C   C692      1.0  0.70419  0.08221  0.57924  1.0000
  H   H691      1.0  0.89606  0.23666  0.68264  1.0000
  H   H692      1.0  0.85265  0.22452  0.77560  1.0000
  C   C693      1.0  0.93315  0.25985  0.76024  1.0000
  H   H693      1.0  0.62735  0.12465  0.54519  1.0000
  C   C694      1.0  0.68174  0.12001  0.74918  1.0000
  C   C695      1.0  0.01770  0.19730  0.97726  1.0000
  H   H694      1.0  0.97046  0.23586  0.78644  1.0000
  N   N60       1.0  0.00118  0.23519  0.77394  1.0000
  S   S241      1.0  0.55457  0.18211  0.56545  1.0000
  H   H695      1.0  0.77660  0.02871  0.88743  1.0000
  C   C696      1.0  0.84406  0.05788  0.87963  1.0000
  Fe  Fe121     1.0  0.72683  0.03235  0.55171  1.0000
  H   H696      1.0  0.92914  0.25835  0.94496  1.0000
  C   C697      1.0  0.68560  0.11214  0.59115  1.0000
  H   H697      1.0  0.66140  0.15700  0.70968  1.0000
  C   C698      1.0  0.02062  0.15780  0.76476  1.0000
  S   S242      1.0  0.69821  0.02227  0.57287  1.0000
  H   H698      1.0  0.67844  0.11018  0.76775  1.0000
  S   S243      1.0  0.91377  0.20680  0.01523  1.0000
  H   H699      1.0  0.88563  0.19339  0.90345  1.0000
  C   C699      1.0  0.70531  0.13202  0.71201  1.0000
  H   H700      1.0  0.69937  0.09770  0.52745  1.0000
  H   H701      1.0  0.81206  0.04640  0.81824  1.0000
  H   H702      1.0  0.87984  0.21396  0.71941  1.0000
  H   H703      1.0  0.77375  0.07075  0.65939  1.0000
  C   C700      1.0  0.68356  0.12466  0.53518  1.0000
  C   C701      1.0  0.69318  0.10691  0.54337  1.0000
  C   C702      1.0  0.53572  0.17060  0.55132  1.0000
  H   H704      1.0  0.57699  0.13435  0.54009  1.0000
  H   H705      1.0  0.52208  0.22779  0.78514  1.0000
  H   H706      1.0  0.70390  0.26047  0.73822  1.0000
  H   H707      1.0  0.78921  0.02161  0.64533  1.0000
  H   H708      1.0  0.59705  0.07167  0.57615  1.0000
  C   C703      1.0  0.52283  0.21321  0.77823  1.0000
  H   H709      1.0  0.61426  0.05648  0.53556  1.0000
  C   C704      1.0  0.59674  0.07905  0.55533  1.0000
  C   C705      1.0  0.01578  0.24831  0.76706  1.0000
  C   C706      1.0  0.52453  0.17538  0.76114  1.0000
  N   N61       1.0  0.65347  0.25382  0.52820  1.0000
  S   S244      1.0  0.96189  0.20462  0.00171  1.0000
  H   H710      1.0  0.65926  0.22315  0.52725  1.0000
  C   C707      1.0  0.58733  0.09748  0.55118  1.0000
  C   C708      1.0  0.58935  0.26607  0.73223  1.0000
  Fe  Fe122     1.0  0.96063  0.17335  0.01904  1.0000
  N   N62       1.0  0.96721  0.30336  0.09609  1.0000
  C   C709      1.0  0.90867  0.28046  0.03295  1.0000
  C   C710      1.0  0.92832  0.29200  0.10189  1.0000
  C   C711      1.0  0.53007  0.31883  0.47468  1.0000
  S   S245      1.0  0.61976  0.32474  0.47630  1.0000
  H   H711      1.0  0.97484  0.27292  0.10351  1.0000
  Fe  Fe123     1.0  0.62052  0.34062  0.51498  1.0000
  C   C712      1.0  0.00908  0.38756  0.03159  1.0000
  C   C713      1.0  0.61211  0.28669  0.49987  1.0000
  H   H712      1.0  0.57871  0.31840  0.50978  1.0000
  H   H713      1.0  0.96454  0.27562  0.04179  1.0000
  C   C714      1.0  0.72974  0.45898  0.47894  1.0000
  S   S246      1.0  0.89715  0.41157  0.05759  1.0000
  H   H714      1.0  0.68022  0.45955  0.47659  1.0000
  S   S247      1.0  0.98752  0.35860  0.06219  1.0000
  H   H715      1.0  0.68458  0.50265  0.43292  1.0000
  S   S248      1.0  0.92996  0.36291  0.06271  1.0000
  C   C715      1.0  0.69509  0.46483  0.47376  1.0000
  S   S249      1.0  0.61289  0.37298  0.51564  1.0000
  Fe  Fe124     1.0  0.92089  0.39122  0.03899  1.0000
  C   C716      1.0  0.87916  0.44802  0.05773  1.0000
  Fe  Fe125     1.0  0.96009  0.36815  0.04095  1.0000
  C   C717      1.0  0.53003  0.31854  0.50371  1.0000
  C   C718      1.0  0.94015  0.29547  0.03237  1.0000
  H   H716      1.0  0.57961  0.31863  0.45863  1.0000
  H   H717      1.0  0.53693  0.36270  0.48394  1.0000
  C   C719      1.0  0.73316  0.47812  0.46771  1.0000
  C   C720      1.0  0.87779  0.46843  0.05136  1.0000
  C   C721      1.0  0.61687  0.29931  0.47582  1.0000
  H   H718      1.0  0.95571  0.33241  0.08766  1.0000
  C   C722      1.0  0.89646  0.43728  0.05008  1.0000
  C   C723      1.0  0.96309  0.28399  0.10202  1.0000
  H   H719      1.0  0.63489  0.46019  0.51686  1.0000
  C   C724      1.0  0.89389  0.47830  0.03769  1.0000
  H   H720      1.0  0.61016  0.29245  0.52009  1.0000
  C   C725      1.0  0.56555  0.31859  0.47110  1.0000
  H   H721      1.0  0.86438  0.47653  0.05731  1.0000
  C   C726      1.0  0.71059  0.45225  0.48198  1.0000
  C   C727      1.0  0.61918  0.29171  0.44981  1.0000
  S   S250      1.0  0.90781  0.32040  0.02457  1.0000
  C   C728      1.0  0.91985  0.29732  0.03011  1.0000
  H   H722      1.0  0.86672  0.44050  0.06857  1.0000
  H   H723      1.0  0.91320  0.28749  0.10299  1.0000
  C   C729      1.0  0.91125  0.46759  0.03023  1.0000
  N   N63       1.0  0.69855  0.48365  0.46305  1.0000
  C   C730      1.0  0.61709  0.27176  0.44759  1.0000
  H   H724      1.0  0.62271  0.30131  0.43113  1.0000
  C   C731      1.0  0.94359  0.27805  0.10525  1.0000
  C   C732      1.0  0.93267  0.31169  0.09574  1.0000
  C   C733      1.0  0.71729  0.49033  0.45990  1.0000
  H   H725      1.0  0.92090  0.32254  0.09222  1.0000
  C   C734      1.0  0.56495  0.31849  0.50015  1.0000
  Fe  Fe126     1.0  0.92440  0.34825  0.02459  1.0000
  C   C735      1.0  0.95233  0.31714  0.09292  1.0000
  N   N64       1.0  0.54732  0.31877  0.51603  1.0000
  H   H726      1.0  0.56465  0.36826  0.51226  1.0000
  H   H727      1.0  0.70765  0.43748  0.49107  1.0000
  H   H728      1.0  0.65727  0.27121  0.48920  1.0000
  C   C736      1.0  0.54798  0.31886  0.45831  1.0000
  C   C737      1.0  0.00947  0.36992  0.04858  1.0000
  C   C738      1.0  0.53402  0.36491  0.50585  1.0000
  H   H729      1.0  0.74794  0.48368  0.46558  1.0000
  H   H730      1.0  0.54826  0.31920  0.43576  1.0000
  H   H731      1.0  0.74188  0.44946  0.48555  1.0000
  S   S251      1.0  0.83323  0.51424  0.04826  1.0000
  H   H732      1.0  0.66784  0.48970  0.45850  1.0000
  H   H733      1.0  0.99821  0.29785  0.09908  1.0000
  H   H734      1.0  0.65905  0.30230  0.51082  1.0000
  C   C739      1.0  0.65627  0.27100  0.51181  1.0000
  H   H735      1.0  0.89298  0.28179  0.03103  1.0000
  C   C740      1.0  0.91249  0.44712  0.03617  1.0000
  H   H736      1.0  0.99145  0.31337  0.06882  1.0000
  C   C741      1.0  0.68222  0.49700  0.45522  1.0000
  H   H737      1.0  0.98965  0.32267  0.10263  1.0000
  H   H738      1.0  0.68105  0.50945  0.46854  1.0000
  H   H739      1.0  0.72004  0.50527  0.45160  1.0000
  S   S252      1.0  0.89278  0.50389  0.02901  1.0000
  H   H740      1.0  0.92593  0.43901  0.03033  1.0000
  C   C742      1.0  0.54972  0.36800  0.52186  1.0000
  H   H741      1.0  0.99515  0.39453  0.02672  1.0000
  C   C743      1.0  0.98766  0.30947  0.09148  1.0000
  H   H742      1.0  0.94893  0.30836  0.02985  1.0000
  C   C744      1.0  0.94897  0.27693  0.03905  1.0000
  Fe  Fe127     1.0  0.62763  0.33512  0.57555  1.0000
  C   C745      1.0  0.91686  0.27906  0.79571  1.0000
  S   S253      1.0  0.63566  0.31473  0.61198  1.0000
  S   S254      1.0  0.60109  0.33115  0.55303  1.0000
  S   S255      1.0  0.62013  0.36645  0.58220  1.0000
  Fe  Fe128     1.0  0.63197  0.34885  0.78482  1.0000
  S   S256      1.0  0.63103  0.37615  0.80765  1.0000
  S   S257      1.0  0.64326  0.31951  0.80245  1.0000
  Fe  Fe129     1.0  0.60962  0.36821  0.73792  1.0000
  S   S258      1.0  0.60732  0.39707  0.75598  1.0000
  S   S259      1.0  0.59266  0.36561  0.70091  1.0000
  Fe  Fe130     1.0  0.63889  0.39128  0.76495  1.0000
  S   S260      1.0  0.65971  0.41587  0.75097  1.0000
  Fe  Fe131     1.0  0.59960  0.37941  0.79638  1.0000
  S   S261      1.0  0.57234  0.38813  0.82286  1.0000
  S   S262      1.0  0.64193  0.36371  0.74284  1.0000
  S   S263      1.0  0.60005  0.35081  0.77765  1.0000
  Fe  Fe132     1.0  0.94389  0.38026  0.98580  1.0000
  S   S264      1.0  0.95363  0.38830  0.94085  1.0000
  Fe  Fe133     1.0  0.92069  0.35495  0.81533  1.0000
  S   S265      1.0  0.93071  0.38558  0.80560  1.0000
  S   S266      1.0  0.90661  0.34607  0.85800  1.0000
  Fe  Fe134     1.0  0.93546  0.34317  0.75859  1.0000
  S   S267      1.0  0.94697  0.37303  0.74382  1.0000
  S   S268      1.0  0.93960  0.31707  0.73334  1.0000
  Fe  Fe135     1.0  0.95823  0.37167  0.78632  1.0000
  S   S269      1.0  0.98664  0.38215  0.79910  1.0000
  Fe  Fe136     1.0  0.91827  0.38421  0.76457  1.0000
  S   S270      1.0  0.90172  0.41207  0.75019  1.0000
  S   S271      1.0  0.94911  0.34104  0.79937  1.0000
  S   S272      1.0  0.90584  0.35443  0.77582  1.0000
  Fe  Fe137     1.0  0.75115  0.45703  0.80996  1.0000
  S   S273      1.0  0.75845  0.48905  0.80576  1.0000
  S   S274      1.0  0.72209  0.44419  0.82761  1.0000
  Fe  Fe138     1.0  0.79202  0.44421  0.78760  1.0000
  S   S275      1.0  0.80235  0.47489  0.78095  1.0000
  S   S276      1.0  0.80928  0.41638  0.77864  1.0000
  Fe  Fe139     1.0  0.78713  0.47897  0.82376  1.0000
  S   S277      1.0  0.80625  0.49428  0.85192  1.0000
  Fe  Fe140     1.0  0.77303  0.48235  0.76365  1.0000
  S   S278      1.0  0.77136  0.50311  0.72399  1.0000
  S   S279      1.0  0.77862  0.44750  0.83108  1.0000
  S   S280      1.0  0.76396  0.45117  0.76705  1.0000
  C   C746      1.0  0.85409  0.43913  0.00074  1.0000
  C   C747      1.0  0.76142  0.51195  0.67013  1.0000
  C   C748      1.0  0.62830  0.41200  0.86476  1.0000
  C   C749      1.0  0.53235  0.38323  0.82178  1.0000
  C   C750      1.0  0.67933  0.45103  0.54293  1.0000
  H   H743      1.0  0.59495  0.30306  0.68285  1.0000
  C   C751      1.0  0.80578  0.49672  0.88857  1.0000
  C   C752      1.0  0.66254  0.42054  0.54023  1.0000
  H   H744      1.0  0.62463  0.39171  0.68566  1.0000
  C   C753      1.0  0.87743  0.38779  0.83047  1.0000
  C   C754      1.0  0.66355  0.46184  0.53194  1.0000
  C   C755      1.0  0.65187  0.27114  0.56947  1.0000
  H   H745      1.0  0.86903  0.37426  0.83060  1.0000
  H   H746      1.0  0.63353  0.27935  0.81504  1.0000
  H   H747      1.0  0.89312  0.28111  0.74035  1.0000
  C   C756      1.0  0.84189  0.45599  0.00208  1.0000
  C   C757      1.0  0.76028  0.49813  0.69358  1.0000
  C   C758      1.0  0.75038  0.48086  0.69223  1.0000
  C   C759      1.0  0.74180  0.47747  0.66766  1.0000
  H   H748      1.0  0.74936  0.47010  0.71008  1.0000
  H   H749      1.0  0.87521  0.48941  0.97475  1.0000
  C   C760      1.0  0.87595  0.41323  0.75725  1.0000
  C   C761      1.0  0.86603  0.43154  0.75797  1.0000
  C   C762      1.0  0.84555  0.43280  0.76460  1.0000
  C   C763      1.0  0.83489  0.41570  0.76997  1.0000
  C   C764      1.0  0.84477  0.39744  0.76870  1.0000
  C   C765      1.0  0.86524  0.39619  0.76255  1.0000
  H   H750      1.0  0.87427  0.44477  0.75384  1.0000
  H   H751      1.0  0.83810  0.44695  0.76570  1.0000
  H   H752      1.0  0.83657  0.38417  0.77268  1.0000
  H   H753      1.0  0.87269  0.38203  0.76158  1.0000
  C   C766      1.0  0.00877  0.37339  0.78251  1.0000
  H   H754      1.0  0.61497  0.45864  0.78952  1.0000
  C   C767      1.0  0.62456  0.44538  0.78674  1.0000
  Fe  Fe141     1.0  0.59529  0.36331  0.55574  1.0000
  H   H755      1.0  0.99570  0.36302  0.74782  1.0000
  C   C768      1.0  0.92210  0.29522  0.95790  1.0000
  C   C769      1.0  0.92262  0.29634  0.77988  1.0000
  C   C770      1.0  0.93337  0.29545  0.75396  1.0000
  C   C771      1.0  0.92205  0.30126  0.90695  1.0000
  C   C772      1.0  0.64232  0.28907  0.73463  1.0000
  H   H756      1.0  0.92638  0.31072  0.95757  1.0000
  H   H757      1.0  0.91837  0.31038  0.78748  1.0000
  H   H758      1.0  0.53253  0.32420  0.55572  1.0000
  H   H759      1.0  0.77763  0.48401  0.90009  1.0000
  C   C773      1.0  0.94092  0.37559  0.91845  1.0000
  C   C774      1.0  0.94853  0.37450  0.89078  1.0000
  C   C775      1.0  0.93838  0.36469  0.87256  1.0000
  C   C776      1.0  0.92019  0.35662  0.88159  1.0000
  C   C777      1.0  0.91270  0.35739  0.90937  1.0000
  C   C778      1.0  0.92320  0.36665  0.92784  1.0000
  H   H760      1.0  0.96230  0.38119  0.88333  1.0000
  H   H761      1.0  0.94476  0.36342  0.85154  1.0000
  H   H762      1.0  0.89870  0.35108  0.91654  1.0000
  H   H763      1.0  0.91727  0.36722  0.94909  1.0000
  C   C779      1.0  0.67836  0.42204  0.77155  1.0000
  C   C780      1.0  0.67994  0.41321  0.79857  1.0000
  C   C781      1.0  0.69364  0.41990  0.81542  1.0000
  C   C782      1.0  0.70634  0.43496  0.80505  1.0000
  C   C783      1.0  0.70529  0.44325  0.77761  1.0000
  C   C784      1.0  0.69120  0.43695  0.76105  1.0000
  H   H764      1.0  0.67029  0.40156  0.80676  1.0000
  H   H765      1.0  0.69448  0.41335  0.83656  1.0000
  H   H766      1.0  0.71495  0.45490  0.76948  1.0000
  H   H767      1.0  0.69014  0.44377  0.74011  1.0000
  C   C785      1.0  0.64032  0.30094  0.78068  1.0000
  C   C786      1.0  0.64325  0.30449  0.75165  1.0000
  H   H768      1.0  0.64688  0.31896  0.74235  1.0000
  N   N65       1.0  0.87330  0.44037  0.99008  1.0000
  C   C787      1.0  0.55108  0.38227  0.80725  1.0000
  C   C788      1.0  0.55284  0.37655  0.78006  1.0000
  C   C789      1.0  0.65517  0.28863  0.55293  1.0000
  H   H769      1.0  0.56703  0.37610  0.76837  1.0000
  H   H770      1.0  0.90807  0.27990  0.81536  1.0000
  H   H771      1.0  0.53935  0.37853  0.63197  1.0000
  H   H772      1.0  0.84820  0.42507  0.00863  1.0000
  C   C790      1.0  0.64226  0.43477  0.82799  1.0000
  C   C791      1.0  0.62221  0.32515  0.63962  1.0000
  C   C792      1.0  0.60380  0.33401  0.63517  1.0000
  C   C793      1.0  0.59428  0.34557  0.65494  1.0000
  C   C794      1.0  0.60326  0.34845  0.67907  1.0000
  C   C795      1.0  0.62108  0.33859  0.68446  1.0000
  C   C796      1.0  0.63060  0.32687  0.66467  1.0000
  H   H773      1.0  0.59719  0.33256  0.61594  1.0000
  H   H774      1.0  0.58039  0.35301  0.65085  1.0000
  H   H775      1.0  0.62788  0.34049  0.70332  1.0000
  H   H776      1.0  0.64489  0.32007  0.66807  1.0000
  C   C797      1.0  0.80502  0.50434  0.94582  1.0000
  N   N66       1.0  0.80283  0.46240  0.69326  1.0000
  C   C798      1.0  0.80365  0.44642  0.71232  1.0000
  C   C799      1.0  0.79231  0.46201  0.67044  1.0000
  C   C800      1.0  0.79323  0.42973  0.70933  1.0000
  C   C801      1.0  0.78168  0.44556  0.66681  1.0000
  C   C802      1.0  0.78208  0.42938  0.68651  1.0000
  C   C803      1.0  0.81402  0.47966  0.69672  1.0000
  H   H777      1.0  0.81225  0.44655  0.73016  1.0000
  H   H778      1.0  0.79164  0.47465  0.65527  1.0000
  H   H779      1.0  0.79370  0.41722  0.72480  1.0000
  H   H780      1.0  0.77294  0.44555  0.64906  1.0000
  H   H781      1.0  0.77374  0.41659  0.68418  1.0000
  H   H782      1.0  0.81326  0.48258  0.71907  1.0000
  H   H783      1.0  0.82964  0.47735  0.68883  1.0000
  H   H784      1.0  0.80775  0.49306  0.68553  1.0000
  C   C804      1.0  0.63795  0.27020  0.74654  1.0000
  C   C805      1.0  0.78985  0.49104  0.90743  1.0000
  H   H785      1.0  0.92875  0.26979  0.85608  1.0000
  C   C806      1.0  0.92749  0.27502  0.87677  1.0000
  H   H786      1.0  0.59932  0.40250  0.85880  1.0000
  C   C807      1.0  0.84471  0.40382  0.83830  1.0000
  Fe  Fe142     1.0  0.68997  0.50446  0.53573  1.0000
  H   H787      1.0  0.83115  0.45217  0.83649  1.0000
  H   H788      1.0  0.93160  0.28638  0.97226  1.0000
  H   H789      1.0  0.90655  0.29419  0.96676  1.0000
  C   C808      1.0  0.53267  0.38316  0.67555  1.0000
  H   H790      1.0  0.98191  0.40457  0.71026  1.0000
  N   N67       1.0  0.59369  0.28457  0.72095  1.0000
  C   C809      1.0  0.84058  0.43904  0.83550  1.0000
  Fe  Fe143     1.0  0.72212  0.50573  0.57603  1.0000
  C   C810      1.0  0.87269  0.42339  0.82740  1.0000
  S   S281      1.0  0.80304  0.51005  0.98141  1.0000
  H   H791      1.0  0.61846  0.43649  0.77159  1.0000
  H   H792      1.0  0.59776  0.31418  0.72894  1.0000
  C   C811      1.0  0.75263  0.50865  0.64565  1.0000
  C   C812      1.0  0.99566  0.41548  0.74395  1.0000
  C   C813      1.0  0.54705  0.31887  0.54643  1.0000
  C   C814      1.0  0.52829  0.38329  0.64779  1.0000
  H   H793      1.0  0.69131  0.42222  0.55493  1.0000
  C   C815      1.0  0.58447  0.27756  0.77817  1.0000
  H   H794      1.0  0.65705  0.42405  0.86441  1.0000
  H   H795      1.0  0.59851  0.40247  0.65711  1.0000
  H   H796      1.0  0.90292  0.27054  0.69312  1.0000
  C   C816      1.0  0.00610  0.37724  0.92072  1.0000
  H   H797      1.0  0.55044  0.30391  0.55599  1.0000
  H   H798      1.0  0.91894  0.31667  0.90928  1.0000
  S   S282      1.0  0.56510  0.37404  0.57144  1.0000
  N   N68       1.0  0.92433  0.28831  0.92986  1.0000
  H   H799      1.0  0.83386  0.51044  0.88439  1.0000
  H   H800      1.0  0.58958  0.30819  0.77989  1.0000
  C   C817      1.0  0.88568  0.42250  0.98779  1.0000
  C   C818      1.0  0.00929  0.36543  0.75675  1.0000
  H   H801      1.0  0.88668  0.38606  0.84846  1.0000
  H   H802      1.0  0.53084  0.38766  0.84282  1.0000
  H   H803      1.0  0.99157  0.37381  0.96227  1.0000
  C   C819      1.0  0.67887  0.43048  0.54687  1.0000
  H   H804      1.0  0.84015  0.48734  0.99354  1.0000
  H   H805      1.0  0.81662  0.41930  0.84419  1.0000
  C   C820      1.0  0.83243  0.42060  0.84007  1.0000
  H   H806      1.0  0.60297  0.38352  0.63377  1.0000
  C   C821      1.0  0.92775  0.26878  0.92683  1.0000
  H   H807      1.0  0.67221  0.40132  0.60268  1.0000
  C   C822      1.0  0.86084  0.44048  0.82912  1.0000
  C   C823      1.0  0.52664  0.37061  0.56241  1.0000
  H   H808      1.0  0.64984  0.27116  0.59205  1.0000
  H   H809      1.0  0.64523  0.29177  0.71223  1.0000
  C   C824      1.0  0.00558  0.37360  0.94969  1.0000
  H   H810      1.0  0.53797  0.36667  0.74683  1.0000
  C   C825      1.0  0.88079  0.45813  0.98038  1.0000
  H   H811      1.0  0.58109  0.27476  0.80053  1.0000
  C   C826      1.0  0.54600  0.37079  0.55026  1.0000
  C   C827      1.0  0.74270  0.49139  0.64433  1.0000
  C   C828      1.0  0.64165  0.40049  0.61836  1.0000
  H   H812      1.0  0.92195  0.30523  0.86200  1.0000
  H   H813      1.0  0.68434  0.39518  0.65007  1.0000
  H   H814      1.0  0.88533  0.41723  0.96678  1.0000
  S   S283      1.0  0.95500  0.35141  0.00467  1.0000
  N   N69       1.0  0.62594  0.43384  0.81364  1.0000
  C   C829      1.0  0.66866  0.39598  0.64765  1.0000
  H   H815      1.0  0.90119  0.42514  0.99143  1.0000
  C   C830      1.0  0.66190  0.39950  0.62112  1.0000
  H   H816      1.0  0.88724  0.38890  0.81082  1.0000
  C   C831      1.0  0.64380  0.42371  0.85357  1.0000
  C   C832      1.0  0.61051  0.42271  0.82472  1.0000
  H   H817      1.0  0.59744  0.42210  0.81354  1.0000
  C   C833      1.0  0.65516  0.39334  0.67102  1.0000
  C   C834      1.0  0.99572  0.40775  0.71821  1.0000
  H   H818      1.0  0.60352  0.40890  0.62028  1.0000
  H   H819      1.0  0.77692  0.49066  0.95001  1.0000
  S   S284      1.0  0.95160  0.39768  0.02030  1.0000
  H   H820      1.0  0.54716  0.37822  0.68162  1.0000
  H   H821      1.0  0.66024  0.39062  0.69179  1.0000
  S   S285      1.0  0.72108  0.49263  0.53492  1.0000
  H   H822      1.0  0.62936  0.40314  0.88441  1.0000
  H   H823      1.0  0.99249  0.38022  0.91075  1.0000
  H   H824      1.0  0.65445  0.44373  0.81938  1.0000
  C   C835      1.0  0.78948  0.49489  0.93578  1.0000
  C   C836      1.0  0.84943  0.47416  0.99236  1.0000
  N   N70       1.0  0.86456  0.40538  0.83197  1.0000
  H   H825      1.0  0.73417  0.46405  0.66685  1.0000
  H   H826      1.0  0.82671  0.45506  0.01080  1.0000
  H   H827      1.0  0.55803  0.32905  0.55197  1.0000
  H   H828      1.0  0.88071  0.41070  0.00391  1.0000
  C   C837      1.0  0.86902  0.47528  0.98151  1.0000
  C   C838      1.0  0.59378  0.29961  0.73773  1.0000
  H   H829      1.0  0.63660  0.40318  0.59759  1.0000
  H   H830      1.0  0.59248  0.27765  0.67884  1.0000
  H   H831      1.0  0.88839  0.42458  0.82182  1.0000
  C   C839      1.0  0.58916  0.29633  0.76657  1.0000
  S   S286      1.0  0.91264  0.37600  0.00277  1.0000
  C   C840      1.0  0.82114  0.50967  0.92709  1.0000
  C   C841      1.0  0.63584  0.28212  0.79257  1.0000
  H   H832      1.0  0.86729  0.45474  0.82503  1.0000
  H   H833      1.0  0.83817  0.38958  0.84139  1.0000
  C   C842      1.0  0.61146  0.41162  0.85041  1.0000
  C   C843      1.0  0.59948  0.28803  0.69098  1.0000
  C   C844      1.0  0.92369  0.29485  0.88009  1.0000
  C   C845      1.0  0.60734  0.39829  0.63796  1.0000
  S   S287      1.0  0.73121  0.48632  0.61428  1.0000
  C   C846      1.0  0.53619  0.37155  0.76760  1.0000
  Fe  Fe144     1.0  0.63849  0.37375  0.54216  1.0000
  H   H834      1.0  0.63931  0.44985  0.77720  1.0000
  N   N71       1.0  0.62849  0.39794  0.64139  1.0000
  C   C847      1.0  0.63501  0.39414  0.66744  1.0000
  H   H835      1.0  0.65593  0.30217  0.56266  1.0000
  H   H836      1.0  0.89610  0.45916  0.97239  1.0000
  H   H837      1.0  0.69206  0.45845  0.54796  1.0000
  C   C848      1.0  0.64656  0.43136  0.52978  1.0000
  H   H838      1.0  0.52372  0.37264  0.58431  1.0000
  S   S288      1.0  0.64779  0.34223  0.53732  1.0000
  S   S289      1.0  0.66324  0.39464  0.54475  1.0000
  C   C849      1.0  0.82146  0.50593  0.89871  1.0000
  H   H839      1.0  0.61571  0.28611  0.68715  1.0000
  H   H840      1.0  0.98186  0.41809  0.75625  1.0000
  H   H841      1.0  0.68389  0.27856  0.74149  1.0000
  H   H842      1.0  0.70416  0.48823  0.72592  1.0000
  C   C850      1.0  0.93867  0.27718  0.74417  1.0000
  C   C851      1.0  0.69532  0.49491  0.68416  1.0000
  H   H843      1.0  0.94694  0.27646  0.72408  1.0000
  H   H844      1.0  0.69001  0.50493  0.64191  1.0000
  H   H845      1.0  0.68814  0.48115  0.68369  1.0000
  H   H846      1.0  0.01383  0.39716  0.68350  1.0000
  H   H847      1.0  0.92379  0.47513  0.01974  1.0000
  C   C852      1.0  0.01356  0.41867  0.75460  1.0000
  H   H848      1.0  0.01332  0.42395  0.77515  1.0000
  C   C853      1.0  0.01361  0.40355  0.70326  1.0000
  C   C854      1.0  0.65720  0.28865  0.52391  1.0000
  H   H849      1.0  0.68395  0.27749  0.79162  1.0000
  C   C855      1.0  0.70431  0.49887  0.70782  1.0000
  S   S290      1.0  0.69029  0.51575  0.57783  1.0000
  H   H850      1.0  0.83320  0.51698  0.93433  1.0000
  C   C856      1.0  0.69635  0.50847  0.66062  1.0000
  S   S291      1.0  0.66452  0.48751  0.52396  1.0000
  C   C857      1.0  0.64714  0.45193  0.52547  1.0000
  H   H851      1.0  0.63394  0.42386  0.52449  1.0000
  H   H852      1.0  0.52150  0.38891  0.71716  1.0000
  C   C858      1.0  0.71421  0.51626  0.70766  1.0000
  Fe  Fe145     1.0  0.62771  0.70962  0.47428  1.0000
  S   S292      1.0  0.63550  0.72684  0.43341  1.0000
  Fe  Fe146     1.0  0.59542  0.69077  0.31158  1.0000
  S   S293      1.0  0.59431  0.66200  0.29360  1.0000
  S   S294      1.0  0.57947  0.69411  0.35361  1.0000
  Fe  Fe147     1.0  0.61758  0.70965  0.26009  1.0000
  S   S295      1.0  0.61830  0.68242  0.23714  1.0000
  S   S296      1.0  0.63090  0.73792  0.24176  1.0000
  Fe  Fe148     1.0  0.58668  0.68003  0.25478  1.0000
  S   S297      1.0  0.56055  0.67472  0.23114  1.0000
  Fe  Fe149     1.0  0.62604  0.66674  0.27807  1.0000
  S   S298      1.0  0.64711  0.64076  0.28680  1.0000
  S   S299      1.0  0.58545  0.70849  0.27405  1.0000
  S   S300      1.0  0.62768  0.69415  0.29957  1.0000
  S   S301      1.0  0.92251  0.65042  0.06693  1.0000
  S   S302      1.0  0.93063  0.68668  0.10435  1.0000
  Fe  Fe150     1.0  0.90626  0.66645  0.10079  1.0000
  S   S303      1.0  0.89161  0.65167  0.14021  1.0000
  H   H853      1.0  0.99397  0.65082  0.13005  1.0000
  Fe  Fe151     1.0  0.95306  0.66449  0.24687  1.0000
  S   S304      1.0  0.93943  0.65208  0.28835  1.0000
  S   S305      1.0  0.96358  0.64603  0.21240  1.0000
  Fe  Fe152     1.0  0.94677  0.70676  0.26077  1.0000
  S   S306      1.0  0.93296  0.69766  0.30347  1.0000
  S   S307      1.0  0.94979  0.73783  0.24154  1.0000
  Fe  Fe153     1.0  0.95739  0.67464  0.30473  1.0000
  S   S308      1.0  0.97306  0.66902  0.34406  1.0000
  Fe  Fe154     1.0  0.91650  0.67625  0.28251  1.0000
  S   S309      1.0  0.88331  0.67621  0.29146  1.0000
  S   S310      1.0  0.97251  0.68540  0.26349  1.0000
  S   S311      1.0  0.92891  0.68688  0.23966  1.0000
  C   C859      1.0  0.85094  0.59855  0.20391  1.0000
  C   C860      1.0  0.01204  0.71222  0.32679  1.0000
  H   H854      1.0  0.92695  0.56293  0.06407  1.0000
  H   H855      1.0  0.55246  0.65264  0.28448  1.0000
  S   S312      1.0  0.86232  0.55172  0.04411  1.0000
  C   C861      1.0  0.91926  0.62508  0.35227  1.0000
  Fe  Fe155     1.0  0.94585  0.67249  0.06795  1.0000
  C   C862      1.0  0.62257  0.75816  0.26002  1.0000
  Fe  Fe156     1.0  0.80073  0.59867  0.28518  1.0000
  S   S313      1.0  0.79081  0.56754  0.29321  1.0000
  S   S314      1.0  0.83407  0.60098  0.28223  1.0000
  Fe  Fe157     1.0  0.75927  0.61388  0.27279  1.0000
  S   S315      1.0  0.74737  0.58380  0.27831  1.0000
  S   S316      1.0  0.74014  0.64046  0.25978  1.0000
  Fe  Fe158     1.0  0.76391  0.57994  0.31713  1.0000
  S   S317      1.0  0.74396  0.57023  0.35649  1.0000
  Fe  Fe159     1.0  0.77536  0.57449  0.25396  1.0000
  S   S318      1.0  0.77732  0.55297  0.22026  1.0000
  S   S319      1.0  0.77506  0.61069  0.31211  1.0000
  S   S320      1.0  0.78600  0.60495  0.24532  1.0000
  C   C863      1.0  0.80211  0.54164  0.14295  1.0000
  C   C864      1.0  0.80410  0.57639  0.14613  1.0000
  C   C865      1.0  0.79506  0.57448  0.17364  1.0000
  C   C866      1.0  0.78928  0.55612  0.18591  1.0000
  H   H856      1.0  0.70115  0.56631  0.23861  1.0000
  S   S321      1.0  0.89039  0.68771  0.07198  1.0000
  Fe  Fe160     1.0  0.86387  0.52137  0.02990  1.0000
  N   N72       1.0  0.84361  0.58090  0.19961  1.0000
  Fe  Fe161     1.0  0.83074  0.54581  0.05947  1.0000
  H   H857      1.0  0.75582  0.59615  0.40496  1.0000
  C   C867      1.0  0.74963  0.53718  0.44330  1.0000
  C   C868      1.0  0.76628  0.53922  0.42402  1.0000
  C   C869      1.0  0.76488  0.54907  0.39722  1.0000
  C   C870      1.0  0.74671  0.55679  0.38930  1.0000
  C   C871      1.0  0.73002  0.55452  0.40850  1.0000
  C   C872      1.0  0.73144  0.54486  0.43536  1.0000
  Fe  Fe162     1.0  0.72898  0.52238  0.51407  1.0000
  H   H858      1.0  0.77785  0.55069  0.38271  1.0000
  H   H859      1.0  0.90093  0.69200  0.15687  1.0000
  C   C873      1.0  0.86957  0.65578  0.28638  1.0000
  C   C874      1.0  0.87866  0.63877  0.27674  1.0000
  C   C875      1.0  0.86745  0.62225  0.27499  1.0000
  C   C876      1.0  0.84709  0.62265  0.28264  1.0000
  C   C877      1.0  0.83792  0.63984  0.29154  1.0000
  C   C878      1.0  0.84916  0.65633  0.29350  1.0000
  H   H860      1.0  0.89436  0.63823  0.27109  1.0000
  H   H861      1.0  0.87465  0.60899  0.26801  1.0000
  H   H862      1.0  0.82226  0.64030  0.29749  1.0000
  H   H863      1.0  0.84202  0.66946  0.30096  1.0000
  H   H864      1.0  0.86648  0.62400  0.18517  1.0000
  C   C879      1.0  0.99883  0.66470  0.34315  1.0000
  H   H865      1.0  0.70276  0.61239  0.49330  1.0000
  H   H866      1.0  0.75894  0.57674  0.44689  1.0000
  H   H867      1.0  0.99781  0.65996  0.38797  1.0000
  H   H868      1.0  0.01817  0.73737  0.25189  1.0000
  H   H869      1.0  0.86939  0.61262  0.13766  1.0000
  C   C880      1.0  0.93882  0.75351  0.29169  1.0000
  C   C881      1.0  0.92323  0.72149  0.16470  1.0000
  H   H870      1.0  0.93796  0.73868  0.30109  1.0000
  C   C882      1.0  0.91099  0.64574  0.16122  1.0000
  C   C883      1.0  0.90795  0.64576  0.19026  1.0000
  C   C884      1.0  0.92416  0.64488  0.20635  1.0000
  C   C885      1.0  0.94329  0.64336  0.19345  1.0000
  C   C886      1.0  0.94615  0.64155  0.16478  1.0000
  C   C887      1.0  0.93004  0.64308  0.14861  1.0000
  H   H871      1.0  0.89325  0.64744  0.20023  1.0000
  H   H872      1.0  0.92188  0.64576  0.22865  1.0000
  H   H873      1.0  0.96084  0.63983  0.15483  1.0000
  H   H874      1.0  0.93247  0.64265  0.12625  1.0000
  C   C888      1.0  0.67303  0.64158  0.28040  1.0000
  C   C889      1.0  0.68464  0.62532  0.28977  1.0000
  C   C890      1.0  0.70526  0.62509  0.28445  1.0000
  C   C891      1.0  0.71447  0.64107  0.26945  1.0000
  C   C892      1.0  0.70288  0.65745  0.26040  1.0000
  C   C893      1.0  0.68224  0.65776  0.26595  1.0000
  H   H875      1.0  0.67765  0.61277  0.30109  1.0000
  H   H876      1.0  0.71398  0.61242  0.29166  1.0000
  H   H877      1.0  0.70986  0.66989  0.24873  1.0000
  H   H878      1.0  0.67346  0.67038  0.25861  1.0000
  C   C894      1.0  0.53925  0.62961  0.22216  1.0000
  H   H879      1.0  0.60496  0.74124  0.29194  1.0000
  C   C895      1.0  0.83293  0.56946  0.22288  1.0000
  H   H880      1.0  0.61100  0.66508  0.35115  1.0000
  H   H881      1.0  0.85499  0.74239  0.03573  1.0000
  C   C896      1.0  0.53859  0.67080  0.25254  1.0000
  H   H882      1.0  0.73760  0.63995  0.19660  1.0000
  C   C897      1.0  0.88181  0.69002  0.19467  1.0000
  H   H883      1.0  0.55518  0.62862  0.22224  1.0000
  C   C898      1.0  0.74659  0.58462  0.45693  1.0000
  C   C899      1.0  0.61866  0.72051  0.41071  1.0000
  C   C900      1.0  0.60102  0.71205  0.42158  1.0000
  C   C901      1.0  0.58866  0.70456  0.40381  1.0000
  C   C902      1.0  0.59377  0.70580  0.37505  1.0000
  C   C903      1.0  0.61070  0.71553  0.36397  1.0000
  C   C904      1.0  0.62324  0.72279  0.38181  1.0000
  H   H884      1.0  0.59693  0.71103  0.44378  1.0000
  H   H885      1.0  0.57539  0.69739  0.41248  1.0000
  H   H886      1.0  0.61420  0.71744  0.34169  1.0000
  H   H887      1.0  0.63668  0.72971  0.37327  1.0000
  C   C905      1.0  0.88831  0.61343  0.33899  1.0000
  H   H888      1.0  0.92579  0.61055  0.35021  1.0000
  H   H889      1.0  0.89482  0.60834  0.31887  1.0000
  H   H890      1.0  0.88786  0.60091  0.35528  1.0000
  H   H891      1.0  0.87285  0.61846  0.33596  1.0000
  H   H892      1.0  0.74380  0.61976  0.40746  1.0000
  C   C906      1.0  0.99752  0.72612  0.28527  1.0000
  H   H893      1.0  0.72034  0.58547  0.52017  1.0000
  H   H894      1.0  0.65896  0.60102  0.48909  1.0000
  H   H895      1.0  0.88369  0.63245  0.03683  1.0000
  C   C907      1.0  0.87036  0.74118  0.04167  1.0000
  H   H896      1.0  0.64987  0.68811  0.42373  1.0000
  H   H897      1.0  0.91016  0.73342  0.21476  1.0000
  C   C908      1.0  0.57994  0.63220  0.49260  1.0000
  H   H898      1.0  0.81762  0.57546  0.22611  1.0000
  C   C909      1.0  0.90322  0.66261  0.35618  1.0000
  H   H899      1.0  0.98086  0.71292  0.32173  1.0000
  C   C910      1.0  0.93089  0.63977  0.35972  1.0000
  H   H900      1.0  0.87679  0.65086  0.34467  1.0000
  C   C911      1.0  0.92280  0.65866  0.36158  1.0000
  S   S322      1.0  0.64901  0.69988  0.50587  1.0000
  H   H901      1.0  0.89691  0.67737  0.35668  1.0000
  H   H902      1.0  0.73477  0.55985  0.21610  1.0000
  C   C912      1.0  0.89193  0.64752  0.34918  1.0000
  H   H903      1.0  0.75883  0.62482  0.20308  1.0000
  S   S323      1.0  0.61617  0.67976  0.47448  1.0000
  H   H904      1.0  0.52444  0.67039  0.48869  1.0000
  C   C913      1.0  0.53056  0.64163  0.20144  1.0000
  H   H905      1.0  0.85516  0.58076  0.12993  1.0000
  S   S324      1.0  0.64856  0.64069  0.49825  1.0000
  C   C914      1.0  0.70981  0.57835  0.22880  1.0000
  H   H906      1.0  0.86981  0.60084  0.02686  1.0000
  N   N73       1.0  0.63846  0.66545  0.36815  1.0000
  C   C915      1.0  0.65466  0.66973  0.35019  1.0000
  C   C916      1.0  0.63656  0.67212  0.39415  1.0000
  C   C917      1.0  0.66957  0.68087  0.35818  1.0000
  C   C918      1.0  0.65141  0.68288  0.40306  1.0000
  C   C919      1.0  0.66788  0.68749  0.38482  1.0000
  C   C920      1.0  0.62249  0.65461  0.35902  1.0000
  H   H907      1.0  0.65604  0.66476  0.32937  1.0000
  H   H908      1.0  0.62338  0.66942  0.40803  1.0000
  S   S325      1.0  0.93338  0.69433  0.03587  1.0000
  C   C921      1.0  0.80789  0.55999  0.13070  1.0000
  H   H909      1.0  0.53403  0.61083  0.26014  1.0000
  H   H910      1.0  0.62788  0.64531  0.34204  1.0000
  H   H911      1.0  0.61570  0.64483  0.37651  1.0000
  H   H912      1.0  0.68780  0.60067  0.23913  1.0000
  C   C922      1.0  0.53867  0.65859  0.27736  1.0000
  H   H913      1.0  0.73021  0.59908  0.39974  1.0000
  C   C923      1.0  0.52481  0.68491  0.37342  1.0000
  H   H914      1.0  0.79252  0.58723  0.18523  1.0000
  C   C924      1.0  0.74186  0.60379  0.41220  1.0000
  H   H915      1.0  0.83912  0.56065  0.16987  1.0000
  H   H916      1.0  0.98988  0.66053  0.16384  1.0000
  Fe  Fe163     1.0  0.91625  0.70689  0.07245  1.0000
  C   C925      1.0  0.52739  0.61975  0.24351  1.0000
  C   C926      1.0  0.86220  0.60364  0.15502  1.0000
  C   C927      1.0  0.72498  0.58937  0.49830  1.0000
  C   C928      1.0  0.87701  0.69749  0.22044  1.0000
  H   H917      1.0  0.84017  0.56999  0.24256  1.0000
  C   C929      1.0  0.79274  0.53977  0.17031  1.0000
  C   C930      1.0  0.71501  0.60439  0.48317  1.0000
  H   H918      1.0  0.80491  0.52887  0.13141  1.0000
  C   C931      1.0  0.84527  0.57445  0.17347  1.0000
  S   S326      1.0  0.82074  0.56336  0.09696  1.0000
  C   C932      1.0  0.85442  0.58576  0.15075  1.0000
  C   C933      1.0  0.60968  0.75568  0.28415  1.0000
  H   H919      1.0  0.78826  0.52551  0.17951  1.0000
  H   H920      1.0  0.71852  0.54361  0.44997  1.0000
  H   H921      1.0  0.68220  0.68449  0.34364  1.0000
  C   C934      1.0  0.01387  0.68765  0.11164  1.0000
  C   C935      1.0  0.74087  0.57938  0.48511  1.0000
  C   C936      1.0  0.99687  0.67183  0.05182  1.0000
  H   H922      1.0  0.60868  0.76101  0.44076  1.0000
  C   C937      1.0  0.99304  0.66442  0.14104  1.0000
  H   H923      1.0  0.74792  0.62456  0.17014  1.0000
  C   C938      1.0  0.01592  0.66406  0.05523  1.0000
  N   N74       1.0  0.73645  0.59907  0.44210  1.0000
  C   C939      1.0  0.01631  0.73038  0.27300  1.0000
  H   H924      1.0  0.00492  0.66866  0.29842  1.0000
  H   H925      1.0  0.98029  0.67350  0.13378  1.0000
  H   H926      1.0  0.84934  0.60382  0.22454  1.0000
  C   C940      1.0  0.86052  0.61007  0.18176  1.0000
  H   H927      1.0  0.78044  0.53334  0.42992  1.0000
  S   S327      1.0  0.97695  0.66084  0.07213  1.0000
  C   C941      1.0  0.00718  0.66084  0.36863  1.0000
  H   H928      1.0  0.71589  0.56048  0.40260  1.0000
  H   H929      1.0  0.71271  0.62031  0.44310  1.0000
  H   H930      1.0  0.87411  0.67769  0.18885  1.0000
  H   H931      1.0  0.94627  0.63673  0.36326  1.0000
  C   C942      1.0  0.72082  0.60891  0.45485  1.0000
  H   H932      1.0  0.80847  0.59067  0.13685  1.0000
  N   N75       1.0  0.90703  0.71359  0.18385  1.0000
  C   C943      1.0  0.90204  0.72143  0.20872  1.0000
  C   C944      1.0  0.89700  0.69823  0.17658  1.0000
  C   C945      1.0  0.88706  0.71339  0.22747  1.0000
  H   H933      1.0  0.86577  0.69078  0.23516  1.0000
  H   H934      1.0  0.91740  0.72867  0.14534  1.0000
  H   H935      1.0  0.53988  0.68746  0.37733  1.0000
  H   H936      1.0  0.88371  0.71899  0.24774  1.0000
  C   C946      1.0  0.65977  0.62194  0.51967  1.0000
  H   H937      1.0  0.93384  0.70947  0.15902  1.0000
  S   S328      1.0  0.90995  0.73824  0.08277  1.0000
  N   N76       1.0  0.73250  0.60927  0.20507  1.0000
  C   C947      1.0  0.71389  0.61294  0.21686  1.0000
  C   C948      1.0  0.73986  0.59045  0.20441  1.0000
  C   C949      1.0  0.70232  0.59758  0.22907  1.0000
  C   C950      1.0  0.72864  0.57472  0.21620  1.0000
  N   N77       1.0  0.90002  0.62907  0.34715  1.0000
  C   C951      1.0  0.74478  0.62544  0.19297  1.0000
  H   H938      1.0  0.70802  0.62784  0.21749  1.0000
  H   H939      1.0  0.75461  0.58750  0.19510  1.0000
  H   H940      1.0  0.93184  0.67028  0.36663  1.0000
  H   H941      1.0  0.87330  0.75391  0.05323  1.0000
  C   C952      1.0  0.94430  0.75713  0.26311  1.0000
  H   H942      1.0  0.83220  0.55382  0.21888  1.0000
  H   H943      1.0  0.00198  0.69065  0.09819  1.0000
  H   H944      1.0  0.87216  0.72800  0.05655  1.0000
  H   H945      1.0  0.58370  0.61788  0.48415  1.0000
  S   S329      1.0  0.69771  0.53348  0.51213  1.0000
  H   H946      1.0  0.67914  0.69640  0.39126  1.0000
  Fe  Fe164     1.0  0.90858  0.67326  0.03814  1.0000
  H   H947      1.0  0.01802  0.65098  0.06910  1.0000
  C   C953      1.0  0.99535  0.71682  0.31225  1.0000
  H   H948      1.0  0.58820  0.64388  0.47961  1.0000
  S   S330      1.0  0.56370  0.67928  0.49661  1.0000
  Fe  Fe165     1.0  0.59318  0.68896  0.50696  1.0000
  H   H949      1.0  0.61367  0.61940  0.51227  1.0000
  C   C954      1.0  0.01118  0.66579  0.31825  1.0000
  S   S331      1.0  0.75242  0.52564  0.47731  1.0000
  C   C955      1.0  0.91787  0.75889  0.06080  1.0000
  H   H950      1.0  0.67576  0.57417  0.51693  1.0000
  S   S332      1.0  0.60330  0.71982  0.50400  1.0000
  H   H951      1.0  0.74861  0.56749  0.49651  1.0000
  Fe  Fe166     1.0  0.63523  0.67035  0.50901  1.0000
  C   C956      1.0  0.93056  0.75716  0.03671  1.0000
  H   H952      1.0  0.98467  0.72982  0.27378  1.0000
  C   C957      1.0  0.66340  0.60349  0.50942  1.0000
  H   H953      1.0  0.93017  0.76630  0.33036  1.0000
  H   H954      1.0  0.54533  0.68396  0.32146  1.0000
  H   H955      1.0  0.56399  0.63555  0.49074  1.0000
  C   C958      1.0  0.54171  0.68255  0.51780  1.0000
  H   H956      1.0  0.53975  0.64992  0.18543  1.0000
  C   C959      1.0  0.92709  0.58761  0.03275  1.0000
  C   C960      1.0  0.53316  0.69510  0.32407  1.0000
  C   C961      1.0  0.91264  0.55670  0.02798  1.0000
  C   C962      1.0  0.52422  0.67649  0.50862  1.0000
  H   H957      1.0  0.93621  0.74286  0.03150  1.0000
  H   H958      1.0  0.97963  0.69485  0.03119  1.0000
  H   H959      1.0  0.53965  0.70892  0.32869  1.0000
  H   H960      1.0  0.90903  0.54188  0.03618  1.0000
  C   C963      1.0  0.92267  0.56853  0.04363  1.0000
  N   N78       1.0  0.01146  0.67482  0.13500  1.0000
  H   H961      1.0  0.93154  0.73235  0.17433  1.0000
  H   H962      1.0  0.52647  0.69779  0.30381  1.0000
  C   C964      1.0  0.99427  0.68872  0.03383  1.0000
  H   H963      1.0  0.93491  0.59675  0.04501  1.0000
  H   H964      1.0  0.01021  0.70468  0.34756  1.0000
  H   H965      1.0  0.59833  0.75711  0.39375  1.0000
  N   N79       1.0  0.58493  0.63180  0.52158  1.0000
  H   H966      1.0  0.79619  0.53624  0.86333  1.0000
  H   H967      1.0  0.59651  0.75864  0.59368  1.0000
  C   C965      1.0  0.78603  0.54234  0.87995  1.0000
  Fe  Fe167     1.0  0.82424  0.52593  0.00547  1.0000
  C   C966      1.0  0.88080  0.63004  0.01574  1.0000
  C   C967      1.0  0.60316  0.62483  0.52820  1.0000
  C   C968      1.0  0.66550  0.62497  0.54600  1.0000
  S   S333      1.0  0.62847  0.72610  0.57178  1.0000
  H   H968      1.0  0.83948  0.57193  0.90851  1.0000
  Fe  Fe168     1.0  0.85075  0.56116  0.00306  1.0000
  H   H969      1.0  0.77670  0.55430  0.87037  1.0000
  C   C969      1.0  0.57183  0.63904  0.54154  1.0000
  C   C970      1.0  0.89155  0.75697  0.00315  1.0000
  C   C971      1.0  0.59543  0.63232  0.57590  1.0000
  C   C972      1.0  0.63702  0.75015  0.56427  1.0000
  H   H970      1.0  0.69289  0.54167  0.62670  1.0000
  H   H971      1.0  0.82498  0.57098  0.95743  1.0000
  Fe  Fe169     1.0  0.70097  0.54365  0.55442  1.0000
  S   S334      1.0  0.86106  0.58662  0.97307  1.0000
  S   S335      1.0  0.69189  0.57284  0.57106  1.0000
  S   S336      1.0  0.85490  0.53141  0.98719  1.0000
  H   H972      1.0  0.92365  0.62509  0.01175  1.0000
  H   H973      1.0  0.66286  0.63915  0.55404  1.0000
  C   C973      1.0  0.81707  0.56507  0.94172  1.0000
  C   C974      1.0  0.91181  0.58316  0.99151  1.0000
  H   H974      1.0  0.65574  0.74685  0.59813  1.0000
  H   H975      1.0  0.55747  0.64487  0.53626  1.0000
  H   H976      1.0  0.71794  0.53280  0.61931  1.0000
  C   C975      1.0  0.67297  0.58825  0.52513  1.0000
  C   C976      1.0  0.88098  0.64144  0.96682  1.0000
  S   S337      1.0  0.73299  0.53441  0.55519  1.0000
  C   C977      1.0  0.88491  0.64471  0.99393  1.0000
  H   H977      1.0  0.67977  0.61223  0.58192  1.0000
  H   H978      1.0  0.87074  0.62143  0.93999  1.0000
  H   H979      1.0  0.79256  0.55580  0.97051  1.0000
  H   H980      1.0  0.91888  0.61978  0.97750  1.0000
  H   H981      1.0  0.94313  0.61466  0.98919  1.0000
  C   C978      1.0  0.87290  0.61217  0.01012  1.0000
  C   C979      1.0  0.60868  0.62492  0.55542  1.0000
  C   C980      1.0  0.52341  0.69191  0.56029  1.0000
  C   C981      1.0  0.82520  0.56561  0.91415  1.0000
  H   H982      1.0  0.92008  0.73744  0.95057  1.0000
  H   H983      1.0  0.52309  0.69785  0.58034  1.0000
  H   H984      1.0  0.72316  0.54270  0.68359  1.0000
  C   C982      1.0  0.86930  0.60899  0.98267  1.0000
  C   C983      1.0  0.90706  0.56407  0.00183  1.0000
  C   C984      1.0  0.71489  0.52953  0.68379  1.0000
  S   S338      1.0  0.89561  0.66712  0.99860  1.0000
  H   H985      1.0  0.89887  0.55513  0.98976  1.0000
  C   C985      1.0  0.67901  0.59135  0.55126  1.0000
  H   H986      1.0  0.82128  0.55829  0.87269  1.0000
  H   H987      1.0  0.59967  0.63283  0.59696  1.0000
  N   N80       1.0  0.92163  0.59469  0.00702  1.0000
  C   C986      1.0  0.78887  0.54919  0.92843  1.0000
  H   H988      1.0  0.61949  0.75829  0.52971  1.0000
  H   H989      1.0  0.88248  0.70910  0.01660  1.0000
  H   H990      1.0  0.77651  0.53017  0.88891  1.0000
  H   H991      1.0  0.88408  0.65262  0.94986  1.0000
  H   H992      1.0  0.76912  0.52533  0.67094  1.0000
  C   C987      1.0  0.79881  0.55678  0.94897  1.0000
  C   C988      1.0  0.54135  0.69022  0.54373  1.0000
  C   C989      1.0  0.01072  0.69779  0.01933  1.0000
  N   N81       1.0  0.79698  0.54970  0.90142  1.0000
  H   H993      1.0  0.55483  0.69480  0.55101  1.0000
  C   C990      1.0  0.88874  0.72245  0.00637  1.0000
  H   H994      1.0  0.90563  0.70705  0.97473  1.0000
  C   C991      1.0  0.87340  0.62372  0.96122  1.0000
  C   C992      1.0  0.70746  0.53909  0.63534  1.0000
  H   H995      1.0  0.77489  0.54238  0.93446  1.0000
  C   C993      1.0  0.81485  0.55788  0.89409  1.0000
  S   S339      1.0  0.81911  0.55673  0.01819  1.0000
  C   C994      1.0  0.67511  0.60971  0.56171  1.0000
  H   H996      1.0  0.75369  0.51938  0.62776  1.0000
  C   C995      1.0  0.90980  0.73824  0.96894  1.0000
  N   N82       1.0  0.88411  0.74014  0.01671  1.0000
  H   H997      1.0  0.62329  0.61966  0.56038  1.0000
  H   H998      1.0  0.90725  0.58877  0.97123  1.0000
  C   C996      1.0  0.57687  0.63944  0.56896  1.0000
  C   C997      1.0  0.90457  0.75628  0.97916  1.0000
  H   H999      1.0  0.56653  0.64557  0.58452  1.0000
  C   C998      1.0  0.62964  0.76330  0.54331  1.0000
  S   S340      1.0  0.61132  0.67771  0.54205  1.0000
  C   C999      1.0  0.92713  0.61447  0.99576  1.0000
  C   C1000     1.0  0.90177  0.72120  0.98251  1.0000
  N   N83       1.0  0.70590  0.52558  0.66074  1.0000
  C   C1001     1.0  0.64998  0.75685  0.58192  1.0000
  H   H1000     1.0  0.71269  0.55363  0.63924  1.0000
  Fe  Fe170     1.0  0.62364  0.70818  0.53614  1.0000
  H   H1001     1.0  0.00868  0.71084  0.00539  1.0000
  H   H1002     1.0  0.72196  0.51911  0.72553  1.0000
  H   H1003     1.0  0.01593  0.90565  0.22936  1.0000
  C   C1002     1.0  0.94549  0.77652  0.25130  1.0000
  H   H1004     1.0  0.86532  0.81924  0.32027  1.0000
  C   C1003     1.0  0.53421  0.85121  0.50193  1.0000
  C   C1004     1.0  0.62822  0.79026  0.45645  1.0000
  C   C1005     1.0  0.96456  0.81936  0.12342  1.0000
  N   N84       1.0  0.62277  0.78795  0.42824  1.0000
  H   H1005     1.0  0.79791  0.96303  0.16292  1.0000
  Fe  Fe171     1.0  0.77010  0.96782  0.31098  1.0000
  S   S341      1.0  0.75945  0.93817  0.30419  1.0000
  S   S342      1.0  0.77268  0.97570  0.35586  1.0000
  Fe  Fe172     1.0  0.78093  0.97748  0.24694  1.0000
  S   S343      1.0  0.77020  0.94872  0.23648  1.0000
  S   S344      1.0  0.79978  0.99771  0.21573  1.0000
  Fe  Fe173     1.0  0.74473  0.95389  0.26832  1.0000
  S   S345      1.0  0.71188  0.95128  0.26520  1.0000
  Fe  Fe174     1.0  0.78601  0.93554  0.27325  1.0000
  S   S346      1.0  0.80455  0.90731  0.26920  1.0000
  S   S347      1.0  0.75423  0.98393  0.27634  1.0000
  S   S348      1.0  0.79783  0.96393  0.28250  1.0000
  Fe  Fe175     1.0  0.61456  0.85054  0.48533  1.0000
  S   S349      1.0  0.60869  0.83815  0.44578  1.0000
  Fe  Fe176     1.0  0.59373  0.87414  0.24949  1.0000
  S   S350      1.0  0.58367  0.86370  0.29347  1.0000
  S   S351      1.0  0.57478  0.88169  0.21378  1.0000
  Fe  Fe177     1.0  0.63734  0.87045  0.25984  1.0000
  S   S352      1.0  0.63085  0.85878  0.30436  1.0000
  S   S353      1.0  0.66900  0.87448  0.24265  1.0000
  Fe  Fe178     1.0  0.60807  0.84092  0.28888  1.0000
  S   S354      1.0  0.60098  0.81059  0.30792  1.0000
  Fe  Fe179     1.0  0.60733  0.88246  0.30505  1.0000
  S   S355      1.0  0.60644  0.90036  0.34161  1.0000
  S   S356      1.0  0.61672  0.85009  0.24386  1.0000
  S   S357      1.0  0.61518  0.89535  0.26140  1.0000
  S   S358      1.0  0.93728  0.84524  0.06168  1.0000
  S   S359      1.0  0.92764  0.89254  0.05267  1.0000
  Fe  Fe180     1.0  0.91097  0.86550  0.06653  1.0000
  S   S360      1.0  0.89369  0.86312  0.10833  1.0000
  C   C1006     1.0  0.72878  0.00940  0.39352  1.0000
  Fe  Fe181     1.0  0.91984  0.87797  0.27796  1.0000
  S   S361      1.0  0.91815  0.84919  0.25971  1.0000
  S   S362      1.0  0.89665  0.90244  0.28275  1.0000
  Fe  Fe182     1.0  0.96393  0.87161  0.28706  1.0000
  S   S363      1.0  0.96587  0.84223  0.27029  1.0000
  S   S364      1.0  0.99006  0.88847  0.29564  1.0000
  Fe  Fe183     1.0  0.94760  0.85629  0.23735  1.0000
  S   S365      1.0  0.95900  0.85289  0.19331  1.0000
  Fe  Fe184     1.0  0.93659  0.83732  0.29420  1.0000
  S   S366      1.0  0.93000  0.80811  0.31749  1.0000
  S   S367      1.0  0.94768  0.88612  0.25208  1.0000
  S   S368      1.0  0.93615  0.86563  0.31456  1.0000
  H   H1006     1.0  0.75395  0.99585  0.45027  1.0000
  C   C1007     1.0  0.80307  0.01371  0.28558  1.0000
  C   C1008     1.0  0.93441  0.76919  0.30829  1.0000
  H   H1007     1.0  0.94207  0.80708  0.25848  1.0000
  H   H1008     1.0  0.63356  0.77605  0.46659  1.0000
  C   C1009     1.0  0.65309  0.90765  0.19174  1.0000
  C   C1010     1.0  0.77901  0.01139  0.17000  1.0000
  C   C1011     1.0  0.53897  0.90125  0.50690  1.0000
  S   S369      1.0  0.63935  0.91382  0.50671  1.0000
  H   H1009     1.0  0.77409  0.97772  0.41486  1.0000
  C   C1012     1.0  0.91144  0.86025  0.13263  1.0000
  C   C1013     1.0  0.90639  0.85349  0.16047  1.0000
  C   C1014     1.0  0.92089  0.85143  0.17956  1.0000
  C   C1015     1.0  0.94035  0.85609  0.17066  1.0000
  C   C1016     1.0  0.94524  0.86315  0.14304  1.0000
  C   C1017     1.0  0.93081  0.86534  0.12417  1.0000
  H   H1010     1.0  0.89140  0.84960  0.16713  1.0000
  H   H1011     1.0  0.91714  0.84570  0.20084  1.0000
  H   H1012     1.0  0.96019  0.86710  0.13619  1.0000
  H   H1013     1.0  0.93477  0.87131  0.10317  1.0000
  C   C1018     1.0  0.82557  0.97344  0.10167  1.0000
  C   C1019     1.0  0.53937  0.88395  0.19195  1.0000
  C   C1020     1.0  0.54885  0.88023  0.21652  1.0000
  C   C1021     1.0  0.53759  0.87510  0.24173  1.0000
  H   H1014     1.0  0.54787  0.88798  0.17242  1.0000
  H   H1015     1.0  0.54476  0.87232  0.26089  1.0000
  Fe  Fe185     1.0  0.95339  0.87193  0.04445  1.0000
  C   C1022     1.0  0.69431  0.93975  0.47919  1.0000
  C   C1023     1.0  0.60929  0.79070  0.28892  1.0000
  C   C1024     1.0  0.62224  0.79323  0.26484  1.0000
  H   H1016     1.0  0.71654  0.98285  0.47420  1.0000
  C   C1025     1.0  0.55687  0.82741  0.23059  1.0000
  H   H1017     1.0  0.62740  0.80761  0.25753  1.0000
  C   C1026     1.0  0.60739  0.85597  0.41763  1.0000
  C   C1027     1.0  0.60207  0.85044  0.39225  1.0000
  C   C1028     1.0  0.60154  0.86420  0.36911  1.0000
  C   C1029     1.0  0.60613  0.88363  0.37129  1.0000
  C   C1030     1.0  0.61119  0.88931  0.39680  1.0000
  C   C1031     1.0  0.61192  0.87543  0.42000  1.0000
  H   H1018     1.0  0.59818  0.83552  0.39050  1.0000
  H   H1019     1.0  0.59735  0.85974  0.34966  1.0000
  H   H1020     1.0  0.61475  0.90433  0.39856  1.0000
  H   H1021     1.0  0.61610  0.87975  0.43960  1.0000
  C   C1032     1.0  0.87125  0.90338  0.27775  1.0000
  C   C1033     1.0  0.86157  0.88726  0.27050  1.0000
  C   C1034     1.0  0.84111  0.88862  0.26796  1.0000
  C   C1035     1.0  0.83026  0.90615  0.27232  1.0000
  C   C1036     1.0  0.84008  0.92227  0.27918  1.0000
  C   C1037     1.0  0.86043  0.92086  0.28195  1.0000
  H   H1022     1.0  0.86979  0.87375  0.26705  1.0000
  H   H1023     1.0  0.83360  0.87609  0.26259  1.0000
  H   H1024     1.0  0.83196  0.93580  0.28264  1.0000
  H   H1025     1.0  0.86781  0.93340  0.28759  1.0000
  C   C1038     1.0  0.70049  0.92970  0.25872  1.0000
  C   C1039     1.0  0.67993  0.92886  0.26343  1.0000
  C   C1040     1.0  0.67024  0.91179  0.25945  1.0000
  C   C1041     1.0  0.68094  0.89567  0.24955  1.0000
  C   C1042     1.0  0.70149  0.89656  0.24451  1.0000
  C   C1043     1.0  0.71129  0.91342  0.24946  1.0000
  H   H1026     1.0  0.67149  0.94137  0.27072  1.0000
  H   H1027     1.0  0.65445  0.91129  0.26358  1.0000
  H   H1028     1.0  0.70989  0.88414  0.23686  1.0000
  H   H1029     1.0  0.72714  0.91392  0.24573  1.0000
  C   C1044     1.0  0.91075  0.77754  0.06740  1.0000
  H   H1030     1.0  0.99504  0.83580  0.06771  1.0000
  C   C1045     1.0  0.76130  0.98639  0.40883  1.0000
  C   C1046     1.0  0.75652  0.98745  0.38089  1.0000
  C   C1047     1.0  0.74001  0.99887  0.37344  1.0000
  H   H1031     1.0  0.86200  0.93760  0.05181  1.0000
  H   H1032     1.0  0.73612  0.99993  0.35208  1.0000
  H   H1033     1.0  0.62494  0.81133  0.36310  1.0000
  H   H1034     1.0  0.81412  0.98586  0.06375  1.0000
  C   C1048     1.0  0.88809  0.87522  0.35837  1.0000
  H   H1035     1.0  0.89044  0.88915  0.36633  1.0000
  C   C1049     1.0  0.79733  0.00675  0.18031  1.0000
  N   N85       1.0  0.79409  0.01729  0.33420  1.0000
  H   H1036     1.0  0.01242  0.83430  0.26111  1.0000
  H   H1037     1.0  0.95277  0.79141  0.07327  1.0000
  C   C1050     1.0  0.73363  0.00844  0.42143  1.0000
  C   C1051     1.0  0.96045  0.80216  0.08294  1.0000
  C   C1052     1.0  0.63240  0.88115  0.18227  1.0000
  C   C1053     1.0  0.95515  0.80517  0.11096  1.0000
  C   C1054     1.0  0.00424  0.87400  0.04233  1.0000
  N   N86       1.0  0.79143  0.98183  0.09687  1.0000
  C   C1055     1.0  0.92817  0.79259  0.02534  1.0000
  H   H1038     1.0  0.61714  0.87620  0.18804  1.0000
  H   H1039     1.0  0.88969  0.82238  0.30259  1.0000
  N   N87       1.0  0.63466  0.90119  0.18942  1.0000
  H   H1040     1.0  0.88590  0.91302  0.03274  1.0000
  H   H1041     1.0  0.84067  0.97292  0.09247  1.0000
  C   C1056     1.0  0.62722  0.80200  0.40685  1.0000
  H   H1042     1.0  0.67030  0.93153  0.20118  1.0000
  H   H1043     1.0  0.63489  0.81493  0.41052  1.0000
  H   H1044     1.0  0.63590  0.88031  0.15951  1.0000
  H   H1045     1.0  0.00022  0.84759  0.31158  1.0000
  H   H1046     1.0  0.55152  0.89425  0.51781  1.0000
  H   H1047     1.0  0.66846  0.93380  0.45902  1.0000
  H   H1048     1.0  0.86438  0.88655  0.33422  1.0000
  N   N88       1.0  0.67993  0.89387  0.32437  1.0000
  C   C1057     1.0  0.66112  0.89882  0.33421  1.0000
  C   C1058     1.0  0.69443  0.90724  0.32256  1.0000
  C   C1059     1.0  0.65628  0.91777  0.34159  1.0000
  C   C1060     1.0  0.69010  0.92633  0.32974  1.0000
  C   C1061     1.0  0.67086  0.93163  0.33912  1.0000
  C   C1062     1.0  0.68459  0.87396  0.31654  1.0000
  H   H1049     1.0  0.64964  0.88818  0.33614  1.0000
  H   H1050     1.0  0.70933  0.90344  0.31461  1.0000
  H   H1051     1.0  0.64124  0.92166  0.34890  1.0000
  H   H1052     1.0  0.70149  0.93710  0.32710  1.0000
  H   H1053     1.0  0.66723  0.94650  0.34420  1.0000
  H   H1054     1.0  0.67284  0.86892  0.30460  1.0000
  H   H1055     1.0  0.69842  0.87325  0.30259  1.0000
  H   H1056     1.0  0.68605  0.86377  0.33553  1.0000
  H   H1057     1.0  0.88660  0.80883  0.33620  1.0000
  S   S370      1.0  0.60039  0.87762  0.50170  1.0000
  H   H1058     1.0  0.90096  0.77902  0.08605  1.0000
  N   N89       1.0  0.88357  0.89753  0.18455  1.0000
  C   C1063     1.0  0.88691  0.90020  0.15609  1.0000
  C   C1064     1.0  0.89845  0.89956  0.20120  1.0000
  C   C1065     1.0  0.90554  0.90512  0.14363  1.0000
  C   C1066     1.0  0.91732  0.90421  0.18941  1.0000
  C   C1067     1.0  0.92087  0.90692  0.16044  1.0000
  C   C1068     1.0  0.86407  0.89227  0.19758  1.0000
  H   H1059     1.0  0.87539  0.89790  0.14270  1.0000
  H   H1060     1.0  0.89585  0.89736  0.22375  1.0000
  H   H1061     1.0  0.90825  0.90647  0.12104  1.0000
  H   H1062     1.0  0.92918  0.90540  0.20266  1.0000
  H   H1063     1.0  0.93558  0.90989  0.15102  1.0000
  H   H1064     1.0  0.85819  0.90360  0.21149  1.0000
  H   H1065     1.0  0.85332  0.89097  0.18188  1.0000
  H   H1066     1.0  0.86510  0.87793  0.21016  1.0000
  H   H1067     1.0  0.58107  0.82279  0.25679  1.0000
  H   H1068     1.0  0.53719  0.85009  0.47972  1.0000
  H   H1069     1.0  0.78169  0.99944  0.06149  1.0000
  N   N90       1.0  0.53687  0.82826  0.22965  1.0000
  C   C1069     1.0  0.87349  0.87377  0.34027  1.0000
  H   H1070     1.0  0.60760  0.94212  0.20341  1.0000
  H   H1071     1.0  0.64014  0.80086  0.45613  1.0000
  C   C1070     1.0  0.81047  0.98080  0.08546  1.0000
  S   S371      1.0  0.84970  0.97607  0.03185  1.0000
  C   C1071     1.0  0.65567  0.92669  0.19858  1.0000
  H   H1072     1.0  0.54280  0.91642  0.49897  1.0000
  N   N91       1.0  0.88293  0.83994  0.33624  1.0000
  C   C1072     1.0  0.67924  0.94456  0.46164  1.0000
  H   H1073     1.0  0.66592  0.89787  0.18902  1.0000
  C   C1073     1.0  0.72308  0.94817  0.50220  1.0000
  H   H1074     1.0  0.52292  0.81979  0.29863  1.0000
  C   C1074     1.0  0.89728  0.84122  0.35405  1.0000
  H   H1075     1.0  0.97180  0.82325  0.02554  1.0000
  C   C1075     1.0  0.70609  0.97200  0.47082  1.0000
  C   C1076     1.0  0.89996  0.85881  0.36558  1.0000
  S   S372      1.0  0.98185  0.87695  0.06275  1.0000
  H   H1076     1.0  0.76824  0.97744  0.07182  1.0000
  C   C1077     1.0  0.62052  0.93261  0.19994  1.0000
  C   C1078     1.0  0.96948  0.92853  0.02476  1.0000
  C   C1079     1.0  0.91586  0.79433  0.04976  1.0000
  C   C1080     1.0  0.01355  0.85580  0.30897  1.0000
  H   H1077     1.0  0.64103  0.95383  0.20889  1.0000
  C   C1081     1.0  0.77575  0.98962  0.07963  1.0000
  H   H1078     1.0  0.53704  0.84196  0.18822  1.0000
  C   C1082     1.0  0.65336  0.94836  0.51940  1.0000
  H   H1079     1.0  0.66577  0.96756  0.43554  1.0000
  C   C1083     1.0  0.88095  0.82173  0.32319  1.0000
  C   C1084     1.0  0.61234  0.77209  0.42379  1.0000
  C   C1085     1.0  0.52850  0.83120  0.20256  1.0000
  C   C1086     1.0  0.55296  0.82095  0.28071  1.0000
  C   C1087     1.0  0.62161  0.80011  0.38004  1.0000
  N   N92       1.0  0.97471  0.81301  0.06776  1.0000
  H   H1080     1.0  0.64243  0.87078  0.19386  1.0000
  H   H1081     1.0  0.76569  0.00887  0.18353  1.0000
  H   H1082     1.0  0.53724  0.89263  0.48889  1.0000
  H   H1083     1.0  0.99518  0.81110  0.03206  1.0000
  H   H1084     1.0  0.61526  0.79593  0.46926  1.0000
  C   C1088     1.0  0.61851  0.91352  0.19282  1.0000
  H   H1085     1.0  0.91164  0.85987  0.37919  1.0000
  H   H1086     1.0  0.69509  0.92512  0.48977  1.0000
  C   C1089     1.0  0.67763  0.96353  0.44871  1.0000
  H   H1087     1.0  0.63889  0.77893  0.23182  1.0000
  S   S373      1.0  0.64470  0.85625  0.49703  1.0000
  C   C1090     1.0  0.87040  0.94114  0.03206  1.0000
  H   H1088     1.0  0.92691  0.93419  0.02917  1.0000
  C   C1091     1.0  0.78681  0.97507  0.12413  1.0000
  H   H1089     1.0  0.76491  0.99874  0.09181  1.0000
  C   C1092     1.0  0.94117  0.79220  0.26789  1.0000
  H   H1090     1.0  0.83266  0.96158  0.14264  1.0000
  C   C1093     1.0  0.61126  0.78383  0.37529  1.0000
  H   H1091     1.0  0.64316  0.95509  0.50514  1.0000
  C   C1094     1.0  0.69122  0.97733  0.45314  1.0000
  C   C1095     1.0  0.93561  0.78858  0.29645  1.0000
  H   H1092     1.0  0.91000  0.80860  0.05484  1.0000
  H   H1093     1.0  0.69021  0.99214  0.44317  1.0000
  H   H1094     1.0  0.90704  0.82872  0.35900  1.0000
  C   C1096     1.0  0.53258  0.82186  0.27959  1.0000
  C   C1097     1.0  0.87115  0.85594  0.32923  1.0000
  H   H1095     1.0  0.86000  0.85508  0.31473  1.0000
  H   H1096     1.0  0.55933  0.81811  0.30061  1.0000
  H   H1097     1.0  0.81349  0.00867  0.26920  1.0000
  C   C1098     1.0  0.82106  0.96695  0.12967  1.0000
  C   C1099     1.0  0.74986  0.99665  0.42903  1.0000
  H   H1098     1.0  0.99952  0.87401  0.23444  1.0000
  N   N93       1.0  0.70728  0.95351  0.48393  1.0000
  C   C1100     1.0  0.63924  0.93916  0.20298  1.0000
  H   H1099     1.0  0.60389  0.90852  0.19067  1.0000
  C   C1101     1.0  0.80155  0.96766  0.14100  1.0000
  H   H1100     1.0  0.94092  0.95510  0.03476  1.0000
  H   H1101     1.0  0.96037  0.82212  0.14499  1.0000
  H   H1102     1.0  0.82134  0.00434  0.31865  1.0000
  C   C1102     1.0  0.98404  0.82689  0.07986  1.0000
  C   C1103     1.0  0.56521  0.82366  0.25608  1.0000
  H   H1103     1.0  0.94353  0.79687  0.12274  1.0000
  C   C1104     1.0  0.54990  0.85214  0.51863  1.0000
  H   H1104     1.0  0.73627  0.94261  0.48983  1.0000
  C   C1105     1.0  0.97910  0.83031  0.10779  1.0000
  H   H1105     1.0  0.98613  0.84177  0.11700  1.0000
  H   H1106     1.0  0.80479  0.99989  0.36870  1.0000
  H   H1107     1.0  0.77173  0.97595  0.13323  1.0000
  C   C1106     1.0  0.62883  0.77697  0.25039  1.0000
  Fe  Fe186     1.0  0.63006  0.88225  0.51694  1.0000
  H   H1108     1.0  0.60688  0.78221  0.35463  1.0000
  H   H1109     1.0  0.94974  0.77946  0.22923  1.0000
  H   H1110     1.0  0.56486  0.85172  0.50919  1.0000
  H   H1111     1.0  0.56653  0.82971  0.21158  1.0000
  C   C1107     1.0  0.79934  0.01514  0.36318  1.0000
  C   C1108     1.0  0.97907  0.81094  0.03786  1.0000
  C   C1109     1.0  0.01256  0.87599  0.30171  1.0000
  H   H1112     1.0  0.96754  0.93045  0.04691  1.0000
  H   H1113     1.0  0.97354  0.79707  0.03175  1.0000
  C   C1110     1.0  0.60293  0.77191  0.29839  1.0000
  H   H1114     1.0  0.00276  0.83924  0.22735  1.0000
  H   H1115     1.0  0.59272  0.76982  0.31675  1.0000
  S   S374      1.0  0.90084  0.86142  0.02444  1.0000
  H   H1116     1.0  0.71828  0.93684  0.51912  1.0000
  C   C1111     1.0  0.01641  0.83825  0.23855  1.0000
  H   H1117     1.0  0.72704  0.96098  0.51284  1.0000
  S   S375      1.0  0.68504  0.01382  0.51143  1.0000
  H   H1118     1.0  0.82872  0.00715  0.17023  1.0000
  C   C1112     1.0  0.81446  0.01054  0.16247  1.0000
  H   H1119     1.0  0.99804  0.91408  0.02783  1.0000
  C   C1113     1.0  0.80739  0.01129  0.31353  1.0000
  C   C1114     1.0  0.52472  0.82539  0.25369  1.0000
  H   H1120     1.0  0.52866  0.81707  0.19301  1.0000
  C   C1115     1.0  0.01548  0.87411  0.23299  1.0000
  C   C1116     1.0  0.60647  0.76977  0.39727  1.0000
  H   H1121     1.0  0.78640  0.01784  0.37819  1.0000
  H   H1122     1.0  0.71629  0.01849  0.38733  1.0000
  C   C1117     1.0  0.81335  0.01861  0.13464  1.0000
  S   S376      1.0  0.93413  0.81328  0.00215  1.0000
  C   C1118     1.0  0.60898  0.78421  0.60726  1.0000
  Fe  Fe187     1.0  0.70132  0.99752  0.54521  1.0000
  S   S377      1.0  0.69760  0.96577  0.56188  1.0000
  C   C1119     1.0  0.59544  0.77449  0.59380  1.0000
  H   H1123     1.0  0.72280  0.99597  0.67010  1.0000
  H   H1124     1.0  0.97562  0.91909  0.94687  1.0000
  H   H1125     1.0  0.62659  0.82851  0.60819  1.0000
  C   C1120     1.0  0.74765  0.00842  0.68536  1.0000
  H   H1126     1.0  0.89975  0.95306  0.96063  1.0000
  S   S378      1.0  0.65311  0.81480  0.55904  1.0000
  C   C1121     1.0  0.98908  0.91587  0.98591  1.0000
  S   S379      1.0  0.56546  0.85839  0.56742  1.0000
  H   H1127     1.0  0.88790  0.77104  0.01129  1.0000
  S   S380      1.0  0.62298  0.86527  0.55864  1.0000
  H   H1128     1.0  0.91084  0.76965  0.96899  1.0000
  H   H1129     1.0  0.99104  0.87038  0.00430  1.0000
  Fe  Fe188     1.0  0.63494  0.83879  0.53726  1.0000
  S   S381      1.0  0.91170  0.91400  0.98155  1.0000
  C   C1122     1.0  0.93567  0.77398  0.01902  1.0000
  S   S382      1.0  0.94719  0.86880  0.00030  1.0000
  H   H1130     1.0  0.57074  0.77805  0.56867  1.0000
  H   H1131     1.0  0.94573  0.93627  0.96642  1.0000
  C   C1123     1.0  0.52673  0.85460  0.55917  1.0000
  H   H1132     1.0  0.56907  0.81443  0.56877  1.0000
  C   C1124     1.0  0.97420  0.92198  0.96870  1.0000
  C   C1125     1.0  0.58017  0.80572  0.57965  1.0000
  H   H1133     1.0  0.66760  0.90368  0.54877  1.0000
  C   C1126     1.0  0.73482  0.99436  0.61605  1.0000
  C   C1127     1.0  0.89446  0.93131  0.99539  1.0000
  C   C1128     1.0  0.64742  0.78986  0.55907  1.0000
  N   N94       1.0  0.95526  0.93511  0.00754  1.0000
  N   N95       1.0  0.74573  0.00159  0.63768  1.0000
  Fe  Fe189     1.0  0.92899  0.84324  0.01845  1.0000
  H   H1134     1.0  0.66543  0.78136  0.59289  1.0000
  H   H1135     1.0  0.71865  0.99578  0.62117  1.0000
  C   C1129     1.0  0.98673  0.91914  0.01413  1.0000
  C   C1130     1.0  0.95730  0.93169  0.97991  1.0000
  H   H1136     1.0  0.87614  0.97797  0.98020  1.0000
  C   C1131     1.0  0.67993  0.95158  0.54888  1.0000
  C   C1132     1.0  0.68002  0.93121  0.55570  1.0000
  C   C1133     1.0  0.66705  0.91940  0.54399  1.0000
  Fe  Fe190     1.0  0.91969  0.88728  0.01005  1.0000
  H   H1137     1.0  0.94531  0.77255  0.00023  1.0000
  C   C1134     1.0  0.59405  0.81495  0.59316  1.0000
  C   C1135     1.0  0.63464  0.78321  0.54094  1.0000
  H   H1138     1.0  0.69039  0.92448  0.56970  1.0000
  S   S383      1.0  0.73146  0.00599  0.52639  1.0000
  N   N96       1.0  0.60848  0.80421  0.60616  1.0000
  C   C1136     1.0  0.62300  0.81420  0.61993  1.0000
  C   C1137     1.0  0.65541  0.77645  0.57901  1.0000
  H   H1139     1.0  0.61727  0.81663  0.64161  1.0000
  H   H1140     1.0  0.00230  0.90833  0.97754  1.0000
  C   C1138     1.0  0.66637  0.96012  0.53093  1.0000
  C   C1139     1.0  0.87834  0.96389  0.99175  1.0000
  C   C1140     1.0  0.89166  0.94974  0.98069  1.0000
  Fe  Fe191     1.0  0.59458  0.85881  0.54165  1.0000
  C   C1141     1.0  0.58106  0.78537  0.57969  1.0000
  H   H1141     1.0  0.73889  0.97873  0.61366  1.0000
  H   H1142     1.0  0.63716  0.80557  0.62018  1.0000
  Fe  Fe192     1.0  0.84383  0.00859  0.02063  1.0000
  H   H1143     1.0  0.53601  0.90044  0.56255  1.0000
  H   H1144     1.0  0.59343  0.83081  0.59269  1.0000
  C   C1142     1.0  0.54615  0.85436  0.54714  1.0000
  C   C1143     1.0  0.73751  0.00125  0.66464  1.0000
  H   H1145     1.0  0.74077  0.00912  0.70642  1.0000
  C   C1144     1.0  0.00463  0.87147  0.01388  1.0000
  H   H1146     1.0  0.52379  0.85617  0.58127  1.0000
  H   H1147     1.0  0.62028  0.77564  0.61780  1.0000
  H   H1148     1.0  0.92991  0.95414  0.00258  1.0000
  C   C1145     1.0  0.93742  0.94514  0.01914  1.0000
  C   C1146     1.0  0.86751  0.95954  0.01740  1.0000
  H   H1149     1.0  0.73806  0.00301  0.59563  1.0000
  S   S384      1.0  0.60600  0.83125  0.52387  1.0000
  H   H1150     1.0  0.66598  0.97576  0.52570  1.0000
  H   H1151     1.0  0.62857  0.79338  0.52525  1.0000
  C   C1147     1.0  0.88392  0.92716  0.02126  1.0000
  C   C1148     1.0  0.65385  0.92794  0.52545  1.0000
  C   C1149     1.0  0.52184  0.90155  0.55378  1.0000
  C   C1150     1.0  0.76430  0.00828  0.63086  1.0000
  H   H1152     1.0  0.77069  0.00889  0.60940  1.0000
  C   C1151     1.0  0.77488  0.01547  0.65109  1.0000
  C   C1152     1.0  0.76640  0.01566  0.67844  1.0000
