data_image0
_chemical_formula_structural       CHSFeC6S2HSHCHCHC2NCHFeHSHCHCHCHCHCSC4H2NHFeCNSCFeC2HCH2NCHCS2HCHFeHCH3FeCH4CHCH2FeS2FeS2FeSFeS3CFeS2FeCFeSCSC2HC2HC3HCH5CHC2SHNHFeC6H4C3HC2H3SC3H2CHC2H2NH3NHCHSCHCHC2HCH2CH3CHC4H4CH2SHC3HC2H7CH2NCHC3HCHSHCHC6HNHCHS2FeSH6CSFeSCFeSFeSCSCHCFeS2FeSFeSFeS3FeS2FeS2FeSFeS3CH3C3SC3SC6H4C6H4C6H4C8HFeCHC6H3CH2C2H2NCSH3C7H3C4NH4NC6H4CH3C3SHNHCNCH5CH2CHC3HC2H3NC5HSH3CH2CSFeC4H4CNCHCHCSH4C2H5CNHCH2C2HCSHCH5C3NHCH2SFeHC3HCH2CFeCH6CSH4C2H3CSHCH2S3H3CH2CNHSH3SHCFeS3Fe2SHC6H4CHC4H4FeSCHCFeHSNHC5H2FeHSH2C3HCHCH2SHFeH2C4HCNHSHC2FeC2HC2SC2SH2C2HC2SH2C2HCSHC2H2C3H2CFeNCHC3HC2HSNHCNSFeS2CH2FeSFeSFe2HSHCH5SHSH4FeC2NHC3H2SCHC2HC2H2C7SH2C7SH4SHSCFeSH2C2SFeSHFeSCFeSFeS3NFeS2FeSHFeSFeS3HC2HCSNCFeS2H2C9H4C6H4C2SHC2NH4C3HCH4SHC8H4CHC3H2CHSH2SH6C2H2SH2CHCHCHCHC3H3SHC6NH4FeC2SCNC2SCHC2SHFeHCH6C6HCHCFeCHFeCH3NC2FeSHC3FeS2HCFeSFeCS2Fe2S2FeS2FeSFeS3H3SCHNSH3CHCFeHFeHFeCSC6H4CSHC5H3CHCHC2HCHC6H4NC3SCH2C7H4CHSHC2HNCH4SH3NC6H8CHC2SHNHSHCHCHSCHC2HC2H2CNC6H4SH4CHCHC2HC3H2NCH2SH3C2HCSCH2FeH3C2SNSCHCFe2H3CSCHCH2C3HCHCHC2H2CH2NCHC6H4SH2CHCH3CFeHCH2SC2HSC2H2CH2SCH4SCFeS2FeSFeSFeS3H2FeHSH2S4FeS2FeS2FeSFeHS2HCSHCHNSC7H4C3H4CHC8H3C6H5SC3H5C2H3NC4HCH6NC4H2CFeCSFeCSCHC3SH2C3HC2HNC2HC2HCNH2CHCHC5SCH3C3FeCHCHCNH3Fe2SCH4SH3SCHCH2C2FeCNCH4CHCH3CHCHC2SFeCH4CHCH2C2SC2HNCSFeS2FeS2FeS2FeSFeS3FeCSH3CHCHNC6H4C2H2C2H2CHC6H4C3H2C6HFeCHFeHC2SNH2FeHCNCSCSHCHCH2C3HCHNHSC2H2CSCH2SHCHSH2SFeCH2C2HSNCFeC3HSH2CFeH2CH2C3HSH4CH2C2HCSCH2CH3C2HSC2H2CH2NHSH2SHFeSFeHSCS2NSFeHFeCHCHCFeH2C3HFeSC2HC3H2S2C2SHS2H3C7H3SHC2NFeSFeHSHC5H2CH2C2HC2H2SHC2H2FeHFeC2H4C4H5FeHSC3SCHN2H2C2H5CHC3SHFeS2FeSCHCFeSHSH3CHC2S2CNFeS2FeS2FeSFeS3FeS3FeSFeS3FeSFeSFe2S2H2C10H4C2H2C4H2C3HC5H5C4HFeH2C3HCSCHC8H4C6H6C3SHC4H3CSCH2CHCHCH2CSNHSCHCHSHNC3HC3HC2H2C2HC2HCH7C2FeHC3NSHNH3SH2C2SH4CH4CHN2C5H5CFeH4C3NHNHCFeCH2C4SC2H2CFeC2H3S2HNH3CH2CH5CH2SNH2SHCSHCSHFeSFeSH2CFeS2H3S2FeSCFeS2FeSHNSCHCFeS2FeS2FeSFeS3HS2HFeH2CSHSH2C4HN2C3HCH2C6H4C6H4CH3C7H4C2HCHSC6H4C2HNH2CHCHCH4FeSHC4H3CH3NCNC2H2NC6H8NC6HC3H6C2HNHCSH2C3FeHC2FeS2H4FeCFeH4CHCSHC3HC3H4C2HCSCFeSCFeSHSHFeSFeS2FeSFeHS3CHFeSH3CS2C2HC6H6SH3C6H4C2H4C3H4C3H4CSHCNC6H6NHC3HCH2CSCHNC6HNH3C3HSH2NCH2SCSCHC3H5C2HFeSFeNC2HC5H3CFeC3H3C2HSH2CSH3SHSCFeHCHCHSNFeSHFeS2FeHFeSHSHFeSHFeS2FeSFeS3FeCSFeCSCHS2C3H3CHCH4C2NCFeHC7H4C6H5CH2SCH8CSHCHCNC6H8NC2SCHCHFeCHSFeS2H2NC4H2CHFeS2FeS2FeSFeS3H2C2FeS2FeS2FeSFeS3FeS2FeS2FeCFeS3FeS2FeSFeSFeS3FeCSCH4CH2SC7H4CFeC6H4C6H4C6H4C7H3C6H4C4HCH4C5HCH4NC6H8C2H2CH2C2NC6H7NC6H9CSH7CHCHSC4H2CH4CHC2HCFeHCHC2HC2NC2H3CSHCH2NCHC2HCNH2C2NCHC2NCSNCHCH3CH2C2HSC2H3CH2CH2C2H2SCH3NHSC2HFeSC2SHFeSFeSHSFeS2FeSCFeSFeS3C4H3C6H4CHC4HCHCH2C4H2CH6C3HC2HSHCHC3H3FeH3SCHC2H2CHC2FeHC3SCHCH2C2SHC3HNHFe2NH4C2SHCNSCHSCFeHCHCH2CH2C3HC4HC2HC3HNFeS2FeSHFeSFeS3FeS2FeSFeSFeS3FeS2FeHFeSFeHS2C4H2C4HC6HSH2C6H5C4HFeH2SC7H4SH4CHC3H2SH3CH6CSC3HS2HFeCH3CHC3H3CSNC2HCH2CHCH2NC6FeHC2H2C3NHC2HC2NHC2HNSHCH2C2HCH2CS2CHSC3HC2H2SCNH2CHSHCHCH2CH2SHCHSCHC3H5NH2FeHCHCSCH5CH6CH2CFeS2FeSFeCS2H3CHSN2FeS2FeS2FeSFeS3FeS2FeS2FeSFeS3H3CH2SFeSFeSCSHC2H2CHCHC6H4C6H3C6H5S2C6H3CFeHC2SNHC3HCH3C2HFeCS2CH2CH2C6H4C6H4NC6H8NC6H3FeH2CHSHCHC2SCH4NC6H8C3HC3H2SH4C3SCH2CHCH4FeC3NH2C2NHFeSH3CSCHFeS2FeS2FeSFeS3CHC2FeS3FeSFeCFeS2FeS2FeSCS2CSHC6H4CH3CFeHC2H2C6H4C7H5NC2H5C6H2CH2SCHCHC4HSH2CHCNC6H7CNH2FeHNC4HCHC2HCHCH3CHSHCHC2H8C2H3C2H4NFeHC4HCHCNSHC5H3CHCH2NCH2C2SC3H2CHFeHSCHCSHSCH2CH2CH2CNCHC4H2C2HCFeS2FeS2FeS2C2HFeS2C2FeSH2FeS2FeS2FeSFeHS2FeS2FeS2FeSFeS3HC2HC2H2C2H2C6H4NHSHC2HC2SHNC3S2FeCH2CH2C3HCH2CH2CH2NC6H5CSC6H5C3H4CHFeC3HCH5C2HCSCSHSHFeCHNC6H9CHCFeHCH3CSC2SNC6H5C2H2CH3C2HC2HC2H2C3HC4SNFeHSHCHCFeHC3HC2HNH3C2H2CHCHC4HSHNCHSH2CH4SH2FeS2FeS2FeSFeS3FeS2FeS2FeSFeS3C6H3C6H6CFeC4H2C7H5C2H2C3H2FeCH2FeHS2CHC3HCNH2CHC3N2SHSC2H3SHC2HCHNC10H3SNC2HNHC2H3C4H2CH3CHCH2C2HCHC3HNHCHCNH6CH2CH2CSH2SH3C2FeH2CH4FeCFeS2CNHSNC3H2CH2CH6SFeCSH3C2HC3H3FeH2C4HCFeC2H
_chemical_formula_sum              "C1728 H1728 S576 Fe288 N144"
_cell_length_a       71.4867
_cell_length_b       71.5057
_cell_length_c       71.6491
_cell_angle_alpha    75.4526
_cell_angle_beta     75.6052
_cell_angle_gamma    75.0055

_space_group_name_H-M_alt    "P 1"
_space_group_IT_number       1

loop_
  _space_group_symop_operation_xyz
  'x, y, z'

loop_
  _atom_site_type_symbol
  _atom_site_label
  _atom_site_symmetry_multiplicity
  _atom_site_fract_x
  _atom_site_fract_y
  _atom_site_fract_z
  _atom_site_occupancy
  C   C1        1.0  0.21158  0.42154  0.19533  1.0000
  H   H1        1.0  0.26332  0.41852  0.12980  1.0000
  S   S1        1.0  0.26069  0.40415  0.20183  1.0000
  Fe  Fe1       1.0  0.32886  0.41381  0.19597  1.0000
  C   C2        1.0  0.04249  0.42485  0.22928  1.0000
  C   C3        1.0  0.01575  0.47400  0.22902  1.0000
  C   C4        1.0  0.19378  0.46504  0.15762  1.0000
  C   C5        1.0  0.25535  0.41185  0.22424  1.0000
  C   C6        1.0  0.27521  0.43526  0.10189  1.0000
  C   C7        1.0  0.24761  0.48419  0.00668  1.0000
  S   S2        1.0  0.00065  0.48139  0.19535  1.0000
  S   S3        1.0  0.31400  0.38899  0.21309  1.0000
  H   H2        1.0  0.07827  0.44928  0.20603  1.0000
  S   S4        1.0  0.30654  0.42730  0.17671  1.0000
  H   H3        1.0  0.28781  0.46574  0.12393  1.0000
  C   C8        1.0  0.31076  0.42500  0.11561  1.0000
  H   H4        1.0  0.18582  0.48457  0.21953  1.0000
  C   C9        1.0  0.05075  0.48654  0.20876  1.0000
  H   H5        1.0  0.00519  0.42670  0.20679  1.0000
  C   C10       1.0  0.07386  0.43582  0.21604  1.0000
  C   C11       1.0  0.01838  0.48119  0.20872  1.0000
  N   N1        1.0  0.21127  0.43665  0.17721  1.0000
  C   C12       1.0  0.21091  0.46590  0.14323  1.0000
  H   H6        1.0  0.24188  0.42700  0.16558  1.0000
  Fe  Fe2       1.0  0.14022  0.46541  0.22133  1.0000
  H   H7        1.0  0.29131  0.45063  0.07549  1.0000
  S   S5        1.0  0.11743  0.46476  0.20516  1.0000
  H   H8        1.0  0.22212  0.40761  0.19254  1.0000
  C   C13       1.0  0.29386  0.41886  0.12758  1.0000
  H   H9        1.0  0.07312  0.43757  0.23122  1.0000
  C   C14       1.0  0.04978  0.43977  0.19547  1.0000
  H   H10       1.0  0.29425  0.41046  0.14226  1.0000
  C   C15       1.0  0.22829  0.45212  0.14608  1.0000
  H   H11       1.0  0.27661  0.43053  0.21461  1.0000
  C   C16       1.0  0.29200  0.44172  0.09001  1.0000
  H   H12       1.0  0.18081  0.44974  0.18573  1.0000
  C   C17       1.0  0.29700  0.47317  0.12831  1.0000
  S   S6        1.0  0.25254  0.44310  0.09416  1.0000
  C   C18       1.0  0.04819  0.47909  0.22902  1.0000
  C   C19       1.0  0.01924  0.42841  0.20865  1.0000
  C   C20       1.0  0.27625  0.42357  0.12057  1.0000
  C   C21       1.0  0.30987  0.43628  0.09671  1.0000
  H   H13       1.0  0.24164  0.45263  0.13488  1.0000
  H   H14       1.0  0.08546  0.42268  0.21289  1.0000
  N   N2        1.0  0.32610  0.48665  0.12094  1.0000
  H   H15       1.0  0.21616  0.42690  0.20643  1.0000
  Fe  Fe3       1.0  0.25023  0.47496  0.08007  1.0000
  C   C22       1.0  0.03585  0.48760  0.19865  1.0000
  N   N3        1.0  0.05478  0.43371  0.21361  1.0000
  S   S7        1.0  0.16599  0.44092  0.22745  1.0000
  C   C23       1.0  0.22826  0.43759  0.16335  1.0000
  Fe  Fe4       1.0  0.29344  0.40087  0.19178  1.0000
  C   C24       1.0  0.31441  0.47726  0.11562  1.0000
  C   C25       1.0  0.19423  0.45028  0.17464  1.0000
  H   H16       1.0  0.19682  0.41783  0.20166  1.0000
  C   C26       1.0  0.03192  0.43729  0.19274  1.0000
  H   H17       1.0  0.20549  0.45403  0.02090  1.0000
  H   H18       1.0  0.18018  0.47569  0.15559  1.0000
  N   N4        1.0  0.19653  0.48009  0.00017  1.0000
  C   C27       1.0  0.02452  0.42211  0.22705  1.0000
  H   H19       1.0  0.25325  0.45534  0.99973  1.0000
  C   C28       1.0  0.29163  0.47867  0.14657  1.0000
  S   S8        1.0  0.31129  0.38184  0.17037  1.0000
  S   S9        1.0  0.27149  0.48772  0.05424  1.0000
  H   H20       1.0  0.05936  0.44705  0.18309  1.0000
  C   C29       1.0  0.20173  0.48025  0.03202  1.0000
  H   H21       1.0  0.25106  0.47853  0.02120  1.0000
  Fe  Fe5       1.0  0.32613  0.40745  0.15686  1.0000
  H   H22       1.0  0.06425  0.49131  0.20083  1.0000
  C   C30       1.0  0.24878  0.47109  0.99453  1.0000
  H   H23       1.0  0.32288  0.44105  0.08735  1.0000
  H   H24       1.0  0.20622  0.47229  0.04577  1.0000
  H   H25       1.0  0.02758  0.44288  0.17855  1.0000
  Fe  Fe6       1.0  0.09643  0.48348  0.22556  1.0000
  C   C31       1.0  0.26598  0.42460  0.22677  1.0000
  H   H26       1.0  0.31530  0.46593  0.22838  1.0000
  H   H27       1.0  0.21073  0.47721  0.12987  1.0000
  H   H28       1.0  0.00230  0.46919  0.23694  1.0000
  H   H29       1.0  0.27820  0.47550  0.15657  1.0000
  C   C32       1.0  0.20138  0.47003  0.01785  1.0000
  H   H30       1.0  0.31841  0.47308  0.10137  1.0000
  C   C33       1.0  0.30367  0.48819  0.15191  1.0000
  H   H31       1.0  0.16326  0.49079  0.23697  1.0000
  H   H32       1.0  0.18073  0.46693  0.98732  1.0000
  Fe  Fe7       1.0  0.21120  0.40909  0.35182  1.0000
  S   S10       1.0  0.19609  0.38430  0.35518  1.0000
  S   S11       1.0  0.21034  0.42217  0.37747  1.0000
  Fe  Fe8       1.0  0.23050  0.40793  0.30925  1.0000
  S   S12       1.0  0.21815  0.38209  0.30912  1.0000
  S   S13       1.0  0.24860  0.42592  0.28448  1.0000
  Fe  Fe9       1.0  0.19009  0.39866  0.32510  1.0000
  S   S14       1.0  0.15999  0.40484  0.31804  1.0000
  Fe  Fe10      1.0  0.22543  0.37002  0.33911  1.0000
  S   S15       1.0  0.23979  0.33844  0.34965  1.0000
  S   S16       1.0  0.20201  0.42514  0.32339  1.0000
  S   S17       1.0  0.24083  0.39406  0.33760  1.0000
  C   C34       1.0  0.14420  0.42451  0.28556  1.0000
  Fe  Fe11      1.0  0.22928  0.28822  0.45703  1.0000
  S   S18       1.0  0.24406  0.26121  0.44413  1.0000
  S   S19       1.0  0.22703  0.32004  0.44203  1.0000
  Fe  Fe12      1.0  0.25470  0.24948  0.47266  1.0000
  C   C35       1.0  0.20072  0.48726  0.27586  1.0000
  Fe  Fe13      1.0  0.21684  0.24995  0.46083  1.0000
  S   S20       1.0  0.20143  0.23278  0.44957  1.0000
  C   C36       1.0  0.27247  0.35013  0.39085  1.0000
  S   S21       1.0  0.20100  0.27798  0.47108  1.0000
  C   C37       1.0  0.22253  0.45311  0.34971  1.0000
  C   C38       1.0  0.30779  0.43584  0.25741  1.0000
  H   H33       1.0  0.18535  0.30957  0.42972  1.0000
  C   C39       1.0  0.24138  0.40449  0.23995  1.0000
  C   C40       1.0  0.19488  0.46354  0.25353  1.0000
  H   H34       1.0  0.30637  0.42961  0.24520  1.0000
  C   C41       1.0  0.22920  0.47089  0.34366  1.0000
  C   C42       1.0  0.17952  0.22938  0.46645  1.0000
  C   C43       1.0  0.24319  0.36358  0.43859  1.0000
  H   H35       1.0  0.13011  0.42662  0.29558  1.0000
  C   C44       1.0  0.27214  0.20369  0.46495  1.0000
  H   H36       1.0  0.21551  0.28483  0.36820  1.0000
  H   H37       1.0  0.18410  0.47887  0.36456  1.0000
  H   H38       1.0  0.04642  0.42009  0.24367  1.0000
  H   H39       1.0  0.19874  0.27385  0.43066  1.0000
  H   H40       1.0  0.14764  0.44710  0.32447  1.0000
  C   C45       1.0  0.20676  0.46679  0.28100  1.0000
  H   H41       1.0  0.23684  0.39499  0.40990  1.0000
  C   C46       1.0  0.28993  0.16967  0.46648  1.0000
  C   C47       1.0  0.27362  0.18457  0.46228  1.0000
  S   S22       1.0  0.06693  0.47641  0.24205  1.0000
  H   H42       1.0  0.25077  0.39779  0.37447  1.0000
  N   N5        1.0  0.20797  0.27727  0.39956  1.0000
  H   H43       1.0  0.18637  0.48496  0.33845  1.0000
  Fe  Fe14      1.0  0.32468  0.13262  0.45693  1.0000
  C   C48       1.0  0.23695  0.33320  0.37527  1.0000
  C   C49       1.0  0.24427  0.31417  0.38518  1.0000
  C   C50       1.0  0.24106  0.30981  0.40580  1.0000
  C   C51       1.0  0.23045  0.32447  0.41643  1.0000
  C   C52       1.0  0.22323  0.34345  0.40649  1.0000
  C   C53       1.0  0.22679  0.34787  0.38596  1.0000
  H   H44       1.0  0.25231  0.30282  0.37691  1.0000
  H   H45       1.0  0.24703  0.29525  0.41338  1.0000
  H   H46       1.0  0.21508  0.35486  0.41463  1.0000
  H   H47       1.0  0.22188  0.36275  0.37849  1.0000
  C   C54       1.0  0.16125  0.41395  0.29273  1.0000
  C   C55       1.0  0.18054  0.41868  0.25952  1.0000
  C   C56       1.0  0.17936  0.41106  0.27966  1.0000
  H   H48       1.0  0.19247  0.40273  0.28497  1.0000
  C   C57       1.0  0.25014  0.42115  0.26120  1.0000
  C   C58       1.0  0.23896  0.40894  0.25851  1.0000
  H   H49       1.0  0.27106  0.43962  0.24686  1.0000
  H   H50       1.0  0.22868  0.40269  0.27070  1.0000
  H   H51       1.0  0.26262  0.11514  0.47382  1.0000
  S   S23       1.0  0.28496  0.23165  0.47571  1.0000
  C   C59       1.0  0.20064  0.31028  0.38071  1.0000
  C   C60       1.0  0.32452  0.06246  0.46807  1.0000
  C   C61       1.0  0.21983  0.44376  0.36955  1.0000
  H   H52       1.0  0.23108  0.47819  0.32834  1.0000
  H   H53       1.0  0.20168  0.32050  0.36660  1.0000
  C   C62       1.0  0.14544  0.43256  0.26539  1.0000
  H   H54       1.0  0.24467  0.37623  0.44407  1.0000
  C   C63       1.0  0.21614  0.25607  0.40065  1.0000
  C   C64       1.0  0.26752  0.36774  0.37762  1.0000
  H   H55       1.0  0.21932  0.44681  0.33900  1.0000
  H   H56       1.0  0.28167  0.33716  0.38549  1.0000
  N   N6        1.0  0.25222  0.36512  0.41766  1.0000
  H   H57       1.0  0.13225  0.44062  0.25990  1.0000
  H   H58       1.0  0.25013  0.34970  0.44771  1.0000
  H   H59       1.0  0.19463  0.41625  0.24951  1.0000
  N   N7        1.0  0.29688  0.45642  0.25571  1.0000
  H   H60       1.0  0.28550  0.09979  0.46434  1.0000
  C   C65       1.0  0.16367  0.42979  0.25241  1.0000
  H   H61       1.0  0.30378  0.10674  0.48450  1.0000
  S   S24       1.0  0.29246  0.14615  0.46183  1.0000
  C   C66       1.0  0.24721  0.38242  0.40476  1.0000
  H   H62       1.0  0.31699  0.16226  0.47741  1.0000
  C   C67       1.0  0.19939  0.28405  0.41659  1.0000
  H   H63       1.0  0.22729  0.36335  0.44082  1.0000
  C   C68       1.0  0.25494  0.38406  0.38461  1.0000
  C   C69       1.0  0.26471  0.34908  0.41096  1.0000
  H   H64       1.0  0.27302  0.36858  0.36194  1.0000
  C   C70       1.0  0.27428  0.99700  0.48298  1.0000
  H   H65       1.0  0.26800  0.33509  0.42106  1.0000
  H   H66       1.0  0.01462  0.41538  0.23953  1.0000
  C   C71       1.0  0.23395  0.47892  0.35734  1.0000
  H   H67       1.0  0.25983  0.21526  0.46105  1.0000
  H   H68       1.0  0.22230  0.44477  0.39863  1.0000
  H   H69       1.0  0.15950  0.42126  0.38242  1.0000
  C   C72       1.0  0.16700  0.44970  0.36924  1.0000
  H   H70       1.0  0.18650  0.33307  0.39744  1.0000
  C   C73       1.0  0.19214  0.31735  0.39804  1.0000
  C   C74       1.0  0.26303  0.42957  0.24511  1.0000
  C   C75       1.0  0.28676  0.20783  0.47220  1.0000
  C   C76       1.0  0.15946  0.43334  0.36974  1.0000
  H   H71       1.0  0.29942  0.06093  0.45742  1.0000
  H   H72       1.0  0.25747  0.48548  0.27927  1.0000
  H   H73       1.0  0.30217  0.42631  0.27146  1.0000
  H   H74       1.0  0.21384  0.46018  0.29355  1.0000
  C   C77       1.0  0.19152  0.30419  0.41612  1.0000
  H   H75       1.0  0.17266  0.45015  0.38180  1.0000
  H   H76       1.0  0.14658  0.41979  0.35371  1.0000
  S   S25       1.0  0.24229  0.27748  0.48417  1.0000
  H   H77       1.0  0.16920  0.26022  0.46772  1.0000
  C   C78       1.0  0.15229  0.43249  0.35363  1.0000
  C   C79       1.0  0.30284  0.19283  0.47683  1.0000
  C   C80       1.0  0.22435  0.45194  0.38327  1.0000
  H   H78       1.0  0.20400  0.24778  0.40584  1.0000
  C   C81       1.0  0.20860  0.29008  0.38175  1.0000
  C   C82       1.0  0.15286  0.44787  0.33720  1.0000
  H   H79       1.0  0.22627  0.25053  0.41130  1.0000
  H   H80       1.0  0.22463  0.25267  0.38623  1.0000
  H   H81       1.0  0.20805  0.43887  0.27390  1.0000
  H   H82       1.0  0.26955  0.01156  0.47433  1.0000
  H   H83       1.0  0.23536  0.47556  0.38772  1.0000
  H   H84       1.0  0.31389  0.19590  0.48288  1.0000
  H   H85       1.0  0.11300  0.11723  0.47815  1.0000
  C   C83       1.0  0.28081  0.46173  0.26983  1.0000
  H   H86       1.0  0.18565  0.19791  0.46830  1.0000
  H   H87       1.0  0.26239  0.18145  0.45648  1.0000
  N   N8        1.0  0.16783  0.46457  0.35295  1.0000
  C   C84       1.0  0.30611  0.05786  0.47015  1.0000
  H   H88       1.0  0.02852  0.46728  0.25483  1.0000
  C   C85       1.0  0.29246  0.48988  0.23744  1.0000
  C   C86       1.0  0.17556  0.21041  0.47370  1.0000
  C   C87       1.0  0.23171  0.46934  0.37712  1.0000
  H   H89       1.0  0.16134  0.47568  0.32422  1.0000
  C   C88       1.0  0.16074  0.46390  0.33711  1.0000
  H   H90       1.0  0.19257  0.45418  0.24489  1.0000
  S   S26       1.0  0.11880  0.48145  0.24363  1.0000
  H   H91       1.0  0.23313  0.39459  0.23803  1.0000
  C   C89       1.0  0.30269  0.47018  0.23964  1.0000
  H   H92       1.0  0.27599  0.45080  0.28247  1.0000
  C   C90       1.0  0.27213  0.10012  0.47628  1.0000
  C   C91       1.0  0.20369  0.45482  0.26987  1.0000
  C   C92       1.0  0.16640  0.24550  0.47344  1.0000
  C   C93       1.0  0.27015  0.48129  0.26804  1.0000
  C   C94       1.0  0.30452  0.17380  0.47382  1.0000
  C   C95       1.0  0.03061  0.47298  0.23913  1.0000
  H   H93       1.0  0.26430  0.08905  0.47502  1.0000
  N   N9        1.0  0.18922  0.48363  0.24847  1.0000
  H   H94       1.0  0.32375  0.43504  0.25638  1.0000
  C   C96       1.0  0.17586  0.48160  0.35254  1.0000
  H   H95       1.0  0.32905  0.20734  0.42884  1.0000
  S   S27       1.0  0.21301  0.36731  0.69741  1.0000
  S   S28       1.0  0.25030  0.31544  0.69020  1.0000
  Fe  Fe15      1.0  0.23194  0.38522  0.70306  1.0000
  S   S29       1.0  0.23698  0.41498  0.68584  1.0000
  H   H96       1.0  0.17037  0.43517  0.70961  1.0000
  H   H97       1.0  0.21214  0.30026  0.63210  1.0000
  H   H98       1.0  0.28970  0.08746  0.54705  1.0000
  H   H99       1.0  0.31632  0.36763  0.72112  1.0000
  H   H100      1.0  0.05783  0.20626  0.56203  1.0000
  H   H101      1.0  0.14774  0.40817  0.73605  1.0000
  C   C97       1.0  0.24376  0.20031  0.56219  1.0000
  S   S30       1.0  0.23361  0.00660  0.57239  1.0000
  Fe  Fe16      1.0  0.25896  0.02995  0.52071  1.0000
  S   S31       1.0  0.23841  0.04842  0.54140  1.0000
  C   C98       1.0  0.29507  0.43682  0.68196  1.0000
  Fe  Fe17      1.0  0.25423  0.02756  0.56420  1.0000
  S   S32       1.0  0.25945  0.04172  0.58665  1.0000
  Fe  Fe18      1.0  0.21956  0.02623  0.54764  1.0000
  S   S33       1.0  0.18655  0.03595  0.55311  1.0000
  C   C99       1.0  0.28635  0.08957  0.53262  1.0000
  S   S34       1.0  0.23854  0.00944  0.52462  1.0000
  C   C100      1.0  0.02398  0.20410  0.51576  1.0000
  H   H102      1.0  0.17901  0.30009  0.59031  1.0000
  C   C101      1.0  0.18408  0.18996  0.54982  1.0000
  Fe  Fe19      1.0  0.09936  0.16073  0.55240  1.0000
  S   S35       1.0  0.12458  0.13592  0.56042  1.0000
  S   S36       1.0  0.06728  0.15807  0.56210  1.0000
  Fe  Fe20      1.0  0.12636  0.18869  0.53001  1.0000
  S   S37       1.0  0.15391  0.16643  0.53519  1.0000
  Fe  Fe21      1.0  0.13930  0.14501  0.52912  1.0000
  S   S38       1.0  0.15639  0.12345  0.50982  1.0000
  Fe  Fe22      1.0  0.13734  0.15917  0.56610  1.0000
  S   S39       1.0  0.15604  0.15267  0.58911  1.0000
  S   S40       1.0  0.11332  0.16816  0.52055  1.0000
  S   S41       1.0  0.11058  0.18311  0.56147  1.0000
  Fe  Fe23      1.0  0.20110  0.25030  0.65450  1.0000
  S   S42       1.0  0.23211  0.23257  0.65003  1.0000
  S   S43       1.0  0.18991  0.27709  0.66856  1.0000
  Fe  Fe24      1.0  0.18611  0.22477  0.63485  1.0000
  S   S44       1.0  0.21581  0.20462  0.62917  1.0000
  S   S45       1.0  0.15905  0.22491  0.62391  1.0000
  Fe  Fe25      1.0  0.21765  0.20650  0.65941  1.0000
  S   S46       1.0  0.22854  0.18083  0.68200  1.0000
  Fe  Fe26      1.0  0.22740  0.23246  0.62029  1.0000
  S   S47       1.0  0.24901  0.23808  0.59208  1.0000
  S   S48       1.0  0.18673  0.22415  0.66618  1.0000
  S   S49       1.0  0.19761  0.25267  0.62387  1.0000
  C   C102      1.0  0.22134  0.25348  0.71207  1.0000
  H   H103      1.0  0.05705  0.21271  0.49192  1.0000
  H   H104      1.0  0.28812  0.43737  0.66992  1.0000
  H   H105      1.0  0.13945  0.25515  0.49327  1.0000
  C   C103      1.0  0.28937  0.99368  0.49342  1.0000
  C   C104      1.0  0.06723  0.10812  0.52194  1.0000
  C   C105      1.0  0.31600  0.06538  0.57291  1.0000
  S   S50       1.0  0.28712  0.11084  0.64513  1.0000
  C   C106      1.0  0.11634  0.11766  0.49235  1.0000
  C   C107      1.0  0.17543  0.43328  0.72316  1.0000
  C   C108      1.0  0.10146  0.11585  0.52714  1.0000
  S   S51       1.0  0.19703  0.26358  0.52733  1.0000
  C   C109      1.0  0.21212  0.25544  0.54476  1.0000
  C   C110      1.0  0.23176  0.25763  0.53981  1.0000
  C   C111      1.0  0.24340  0.25183  0.55423  1.0000
  C   C112      1.0  0.23540  0.24363  0.57351  1.0000
  C   C113      1.0  0.21608  0.24061  0.57815  1.0000
  C   C114      1.0  0.20435  0.24676  0.56389  1.0000
  H   H106      1.0  0.23786  0.26428  0.52504  1.0000
  H   H107      1.0  0.25841  0.25400  0.55054  1.0000
  H   H108      1.0  0.21008  0.23340  0.59270  1.0000
  H   H109      1.0  0.18927  0.24473  0.56773  1.0000
  C   C115      1.0  0.24534  0.16193  0.67129  1.0000
  C   C116      1.0  0.24763  0.14261  0.68221  1.0000
  C   C117      1.0  0.26044  0.12713  0.67389  1.0000
  C   C118      1.0  0.27144  0.13091  0.65478  1.0000
  C   C119      1.0  0.26967  0.15032  0.64393  1.0000
  C   C120      1.0  0.25638  0.16584  0.65213  1.0000
  H   H110      1.0  0.23912  0.13954  0.69698  1.0000
  H   H111      1.0  0.26177  0.11214  0.68229  1.0000
  H   H112      1.0  0.27820  0.15328  0.62916  1.0000
  H   H113      1.0  0.25478  0.18081  0.64370  1.0000
  C   C121      1.0  0.15644  0.17259  0.59924  1.0000
  C   C122      1.0  0.17240  0.17161  0.60780  1.0000
  C   C123      1.0  0.17341  0.18758  0.61537  1.0000
  C   C124      1.0  0.15832  0.20454  0.61463  1.0000
  C   C125      1.0  0.14226  0.20542  0.60624  1.0000
  C   C126      1.0  0.14134  0.18953  0.59850  1.0000
  H   H114      1.0  0.18406  0.15849  0.60855  1.0000
  H   H115      1.0  0.18571  0.18665  0.62202  1.0000
  H   H116      1.0  0.13047  0.21845  0.60577  1.0000
  H   H117      1.0  0.12888  0.19035  0.59213  1.0000
  C   C127      1.0  0.19310  0.29813  0.59446  1.0000
  C   C128      1.0  0.30079  0.20248  0.52699  1.0000
  C   C129      1.0  0.05387  0.15697  0.54488  1.0000
  C   C130      1.0  0.06249  0.15818  0.52495  1.0000
  C   C131      1.0  0.05194  0.15610  0.51175  1.0000
  C   C132      1.0  0.03254  0.15311  0.51826  1.0000
  C   C133      1.0  0.02359  0.15262  0.53804  1.0000
  C   C134      1.0  0.03427  0.15448  0.55133  1.0000
  H   H118      1.0  0.07745  0.16018  0.51975  1.0000
  Fe  Fe27      1.0  0.31166  0.11645  0.61939  1.0000
  C   C135      1.0  0.19620  0.18788  0.53159  1.0000
  H   H119      1.0  0.02746  0.15358  0.56672  1.0000
  C   C136      1.0  0.17841  0.06024  0.54098  1.0000
  C   C137      1.0  0.19028  0.06909  0.52419  1.0000
  C   C138      1.0  0.18340  0.08851  0.51466  1.0000
  C   C139      1.0  0.16500  0.09939  0.52235  1.0000
  C   C140      1.0  0.15331  0.09062  0.53937  1.0000
  C   C141      1.0  0.15981  0.07093  0.54836  1.0000
  H   H120      1.0  0.20453  0.06080  0.51823  1.0000
  H   H121      1.0  0.13909  0.09874  0.54541  1.0000
  H   H122      1.0  0.15050  0.06400  0.56119  1.0000
  C   C142      1.0  0.26953  0.08438  0.53067  1.0000
  H   H123      1.0  0.00866  0.15021  0.54321  1.0000
  H   H124      1.0  0.29755  0.03936  0.51932  1.0000
  C   C143      1.0  0.28150  0.05032  0.58132  1.0000
  C   C144      1.0  0.28352  0.06277  0.59267  1.0000
  H   H125      1.0  0.27183  0.06657  0.60482  1.0000
  H   H126      1.0  0.18403  0.17743  0.56207  1.0000
  N   N10       1.0  0.19384  0.30155  0.61220  1.0000
  C   C145      1.0  0.29685  0.04525  0.56584  1.0000
  S   S52       1.0  0.22880  0.23577  0.48818  1.0000
  H   H127      1.0  0.30023  0.21435  0.51358  1.0000
  H   H128      1.0  0.20502  0.20264  0.50158  1.0000
  H   H129      1.0  0.29547  0.03555  0.55710  1.0000
  C   C146      1.0  0.15661  0.24228  0.53889  1.0000
  C   C147      1.0  0.20695  0.28803  0.67378  1.0000
  C   C148      1.0  0.22732  0.28146  0.66802  1.0000
  C   C149      1.0  0.24053  0.29008  0.67298  1.0000
  C   C150      1.0  0.23345  0.30533  0.68364  1.0000
  C   C151      1.0  0.21308  0.31199  0.68924  1.0000
  C   C152      1.0  0.19988  0.30339  0.68427  1.0000
  H   H130      1.0  0.23293  0.26969  0.65988  1.0000
  H   H131      1.0  0.25629  0.28490  0.66859  1.0000
  H   H132      1.0  0.18413  0.30858  0.68874  1.0000
  C   C153      1.0  0.24478  0.42740  0.69983  1.0000
  C   C154      1.0  0.24312  0.44787  0.69422  1.0000
  C   C155      1.0  0.24892  0.45811  0.70541  1.0000
  C   C156      1.0  0.30590  0.45323  0.70172  1.0000
  N   N11       1.0  0.09980  0.11472  0.50887  1.0000
  H   H133      1.0  0.05894  0.15649  0.49646  1.0000
  H   H134      1.0  0.23715  0.45587  0.68129  1.0000
  H   H135      1.0  0.24764  0.47385  0.70087  1.0000
  H   H136      1.0  0.13652  0.43442  0.73186  1.0000
  N   N12       1.0  0.20817  0.08266  0.59762  1.0000
  C   C157      1.0  0.19345  0.09927  0.59593  1.0000
  C   C158      1.0  0.20611  0.06552  0.59387  1.0000
  C   C159      1.0  0.17593  0.09880  0.59085  1.0000
  C   C160      1.0  0.18877  0.06457  0.58878  1.0000
  C   C161      1.0  0.17359  0.08132  0.58734  1.0000
  C   C162      1.0  0.22666  0.08332  0.60259  1.0000
  H   H137      1.0  0.19508  0.11302  0.59858  1.0000
  H   H138      1.0  0.21786  0.05243  0.59485  1.0000
  H   H139      1.0  0.16422  0.11192  0.58963  1.0000
  H   H140      1.0  0.18717  0.05093  0.58589  1.0000
  C   C163      1.0  0.30513  0.04543  0.50496  1.0000
  H   H141      1.0  0.23210  0.06937  0.61261  1.0000
  H   H142      1.0  0.23820  0.08501  0.58902  1.0000
  H   H143      1.0  0.22476  0.09565  0.61020  1.0000
  C   C164      1.0  0.31199  0.31703  0.73406  1.0000
  C   C165      1.0  0.14587  0.22360  0.49557  1.0000
  C   C166      1.0  0.30067  0.07040  0.58840  1.0000
  S   S53       1.0  0.27633  0.01049  0.54303  1.0000
  H   H144      1.0  0.08722  0.11451  0.55769  1.0000
  N   N13       1.0  0.17105  0.22388  0.53651  1.0000
  H   H145      1.0  0.31163  0.40476  0.72088  1.0000
  C   C167      1.0  0.05756  0.20818  0.54658  1.0000
  N   N14       1.0  0.31099  0.43556  0.71407  1.0000
  C   C168      1.0  0.26522  0.08762  0.51194  1.0000
  H   H146      1.0  0.15949  0.25457  0.52624  1.0000
  H   H147      1.0  0.17786  0.31433  0.63710  1.0000
  H   H148      1.0  0.20561  0.17369  0.52952  1.0000
  H   H149      1.0  0.26667  0.21221  0.51462  1.0000
  H   H150      1.0  0.11462  0.11932  0.52913  1.0000
  C   C169      1.0  0.32931  0.09709  0.66668  1.0000
  H   H151      1.0  0.19240  0.09515  0.50139  1.0000
  H   H152      1.0  0.05360  0.10587  0.51959  1.0000
  C   C170      1.0  0.04139  0.20508  0.54095  1.0000
  H   H153      1.0  0.25857  0.19071  0.58683  1.0000
  C   C171      1.0  0.29794  0.45413  0.68545  1.0000
  C   C172      1.0  0.29413  0.10047  0.49745  1.0000
  C   C173      1.0  0.31787  0.43493  0.73191  1.0000
  H   H154      1.0  0.32569  0.31999  0.73542  1.0000
  C   C174      1.0  0.23529  0.23710  0.70669  1.0000
  C   C175      1.0  0.30773  0.36674  0.73594  1.0000
  H   H155      1.0  0.02912  0.20091  0.55228  1.0000
  H   H156      1.0  0.23327  0.21128  0.53491  1.0000
  H   H157      1.0  0.29632  0.00577  0.49250  1.0000
  N   N15       1.0  0.28105  0.20223  0.53919  1.0000
  C   C176      1.0  0.26496  0.20734  0.53045  1.0000
  C   C177      1.0  0.27892  0.19599  0.55915  1.0000
  C   C178      1.0  0.24607  0.20659  0.54181  1.0000
  C   C179      1.0  0.26026  0.19505  0.57095  1.0000
  C   C180      1.0  0.30031  0.41888  0.69463  1.0000
  H   H158      1.0  0.05653  0.10766  0.55294  1.0000
  S   S54       1.0  0.30919  0.12287  0.58771  1.0000
  H   H159      1.0  0.29166  0.19188  0.56611  1.0000
  H   H160      1.0  0.25213  0.08356  0.51044  1.0000
  H   H161      1.0  0.16921  0.29418  0.63373  1.0000
  C   C181      1.0  0.05708  0.21145  0.50732  1.0000
  H   H162      1.0  0.16437  0.31832  0.61790  1.0000
  H   H163      1.0  0.16183  0.20965  0.56604  1.0000
  C   C182      1.0  0.25855  0.42736  0.72763  1.0000
  S   S55       1.0  0.27282  0.04475  0.49075  1.0000
  Fe  Fe28      1.0  0.23679  0.34108  0.70574  1.0000
  C   C183      1.0  0.21158  0.29807  0.61784  1.0000
  C   C184      1.0  0.21046  0.29132  0.58171  1.0000
  C   C185      1.0  0.22920  0.29114  0.60551  1.0000
  C   C186      1.0  0.22860  0.28785  0.58731  1.0000
  H   H164      1.0  0.14152  0.24007  0.53995  1.0000
  H   H165      1.0  0.20983  0.28814  0.56785  1.0000
  H   H166      1.0  0.24320  0.28788  0.61023  1.0000
  H   H167      1.0  0.24214  0.28202  0.57783  1.0000
  C   C187      1.0  0.25244  0.41714  0.71662  1.0000
  N   N16       1.0  0.19520  0.23836  0.71141  1.0000
  C   C188      1.0  0.15884  0.20748  0.48841  1.0000
  H   H168      1.0  0.28878  0.31402  0.69910  1.0000
  C   C189      1.0  0.06886  0.10915  0.54065  1.0000
  H   H169      1.0  0.23968  0.20851  0.69943  1.0000
  C   C190      1.0  0.20879  0.22215  0.70631  1.0000
  S   S56       1.0  0.26565  0.46031  0.73524  1.0000
  H   H170      1.0  0.30711  0.46686  0.70493  1.0000
  H   H171      1.0  0.26304  0.30746  0.72879  1.0000
  H   H172      1.0  0.28378  0.35870  0.72905  1.0000
  H   H173      1.0  0.08623  0.21564  0.53636  1.0000
  C   C191      1.0  0.22900  0.22128  0.70385  1.0000
  C   C192      1.0  0.20124  0.25393  0.71421  1.0000
  H   H174      1.0  0.15601  0.19277  0.49417  1.0000
  H   H175      1.0  0.30754  0.12404  0.66949  1.0000
  H   H176      1.0  0.20248  0.44292  0.70818  1.0000
  H   H177      1.0  0.30203  0.08009  0.59718  1.0000
  H   H178      1.0  0.22917  0.20006  0.57126  1.0000
  C   C193      1.0  0.27689  0.31003  0.73020  1.0000
  N   N17       1.0  0.04135  0.20662  0.52152  1.0000
  H   H179      1.0  0.29747  0.40545  0.69249  1.0000
  C   C194      1.0  0.17146  0.20816  0.55199  1.0000
  H   H180      1.0  0.32605  0.04861  0.54985  1.0000
  H   H181      1.0  0.30724  0.18797  0.52255  1.0000
  C   C195      1.0  0.29888  0.09745  0.51593  1.0000
  C   C196      1.0  0.19588  0.20408  0.51594  1.0000
  H   H182      1.0  0.15736  0.24694  0.55231  1.0000
  C   C197      1.0  0.17539  0.30745  0.62584  1.0000
  S   S57       1.0  0.12542  0.22029  0.51461  1.0000
  H   H183      1.0  0.20748  0.32374  0.69748  1.0000
  C   C198      1.0  0.30821  0.41856  0.71073  1.0000
  H   H184      1.0  0.18317  0.23467  0.50656  1.0000
  H   H185      1.0  0.20409  0.20984  0.70385  1.0000
  H   H186      1.0  0.25093  0.23679  0.70443  1.0000
  H   H187      1.0  0.16532  0.24523  0.72629  1.0000
  H   H188      1.0  0.31214  0.10121  0.51735  1.0000
  C   C199      1.0  0.07362  0.21314  0.53220  1.0000
  C   C200      1.0  0.18327  0.22213  0.51874  1.0000
  C   C201      1.0  0.31417  0.05261  0.56177  1.0000
  N   N18       1.0  0.27747  0.09561  0.49564  1.0000
  H   H189      1.0  0.32038  0.32030  0.70245  1.0000
  C   C202      1.0  0.08297  0.11092  0.50611  1.0000
  H   H190      1.0  0.31968  0.09073  0.66169  1.0000
  H   H191      1.0  0.16005  0.08079  0.58345  1.0000
  S   S58       1.0  0.25689  0.35947  0.70822  1.0000
  Fe  Fe29      1.0  0.21529  0.26476  0.49711  1.0000
  H   H192      1.0  0.25998  0.07786  0.54362  1.0000
  C   C203      1.0  0.08608  0.11301  0.54332  1.0000
  C   C204      1.0  0.19360  0.43772  0.72227  1.0000
  C   C205      1.0  0.07348  0.21471  0.51244  1.0000
  H   H193      1.0  0.19052  0.26711  0.71750  1.0000
  C   C206      1.0  0.30908  0.31724  0.71538  1.0000
  H   H194      1.0  0.01526  0.19487  0.52792  1.0000
  H   H195      1.0  0.16915  0.24989  0.69976  1.0000
  C   C207      1.0  0.29141  0.31369  0.71350  1.0000
  Fe  Fe30      1.0  0.20137  0.36322  0.73000  1.0000
  C   C208      1.0  0.25682  0.44788  0.72203  1.0000
  H   H196      1.0  0.32502  0.44748  0.73022  1.0000
  H   H197      1.0  0.12966  0.10596  0.49497  1.0000
  H   H198      1.0  0.25395  0.40129  0.72098  1.0000
  H   H199      1.0  0.08141  0.11039  0.49159  1.0000
  H   H200      1.0  0.08609  0.21838  0.50126  1.0000
  H   H201      1.0  0.22604  0.26611  0.71383  1.0000
  C   C209      1.0  0.17409  0.23963  0.71293  1.0000
  S   S59       1.0  0.02079  0.14865  0.50141  1.0000
  H   H202      1.0  0.29322  0.46826  0.67615  1.0000
  H   H203      1.0  0.17086  0.22500  0.71381  1.0000
  H   H204      1.0  0.99781  0.40159  0.72626  1.0000
  H   H205      1.0  0.01428  0.21871  0.51162  1.0000
  C   C210      1.0  0.32234  0.11594  0.67115  1.0000
  C   C211      1.0  0.32380  0.04963  0.50279  1.0000
  H   H206      1.0  0.31082  0.20524  0.53517  1.0000
  H   H207      1.0  0.02841  0.19640  0.50314  1.0000
  H   H208      1.0  0.12005  0.13220  0.49093  1.0000
  C   C212      1.0  0.29629  0.04949  0.48861  1.0000
  S   S60       1.0  0.21806  0.38350  0.73481  1.0000
  H   H209      1.0  0.32955  0.13910  0.68059  1.0000
  C   C213      1.0  0.14951  0.24264  0.48785  1.0000
  H   H210      1.0  0.32891  0.42106  0.73546  1.0000
  H   H211      1.0  0.19388  0.42596  0.77120  1.0000
  S   S61       1.0  0.28414  0.46829  0.86551  1.0000
  S   S62       1.0  0.25603  0.35179  0.76570  1.0000
  S   S63       1.0  0.11553  0.43409  0.79563  1.0000
  H   H212      1.0  0.15206  0.44867  0.85431  1.0000
  H   H213      1.0  0.30511  0.43553  0.74449  1.0000
  H   H214      1.0  0.31036  0.32379  0.76891  1.0000
  C   C214      1.0  0.22788  0.39172  0.81728  1.0000
  H   H215      1.0  0.21808  0.42031  0.87285  1.0000
  H   H216      1.0  0.00723  0.40659  0.75560  1.0000
  C   C215      1.0  0.15712  0.47796  0.85027  1.0000
  N   N19       1.0  0.03165  0.41192  0.85214  1.0000
  H   H217      1.0  0.26855  0.30787  0.76147  1.0000
  S   S64       1.0  0.30101  0.38768  0.83701  1.0000
  H   H218      1.0  0.25736  0.40725  0.83807  1.0000
  H   H219      1.0  0.23911  0.42995  0.85807  1.0000
  H   H220      1.0  0.28197  0.47623  0.94982  1.0000
  S   S65       1.0  0.32490  0.40865  0.78447  1.0000
  H   H221      1.0  0.17139  0.47290  0.76057  1.0000
  C   C216      1.0  0.02777  0.42668  0.86244  1.0000
  Fe  Fe31      1.0  0.32804  0.38764  0.81303  1.0000
  S   S66       1.0  0.15273  0.45090  0.80009  1.0000
  S   S67       1.0  0.01296  0.41908  0.78966  1.0000
  S   S68       1.0  0.20710  0.48808  0.92441  1.0000
  Fe  Fe32      1.0  0.09638  0.45228  0.81737  1.0000
  Fe  Fe33      1.0  0.13727  0.42613  0.81565  1.0000
  S   S69       1.0  0.15716  0.39633  0.82162  1.0000
  H   H222      1.0  0.20064  0.47730  0.97040  1.0000
  C   C217      1.0  0.02678  0.43101  0.79847  1.0000
  C   C218      1.0  0.04748  0.42636  0.79353  1.0000
  C   C219      1.0  0.05890  0.43448  0.80156  1.0000
  C   C220      1.0  0.04966  0.44730  0.81457  1.0000
  C   C221      1.0  0.02897  0.45257  0.81884  1.0000
  C   C222      1.0  0.01755  0.44439  0.81090  1.0000
  H   H223      1.0  0.05473  0.41613  0.78380  1.0000
  H   H224      1.0  0.07482  0.43028  0.79816  1.0000
  H   H225      1.0  0.02171  0.46265  0.82872  1.0000
  H   H226      1.0  0.21483  0.44226  0.85397  1.0000
  C   C223      1.0  0.29566  0.41017  0.84485  1.0000
  H   H227      1.0  0.03981  0.43189  0.86486  1.0000
  C   C224      1.0  0.30223  0.44270  0.84078  1.0000
  C   C225      1.0  0.28804  0.44597  0.85763  1.0000
  C   C226      1.0  0.27733  0.43140  0.86790  1.0000
  C   C227      1.0  0.28125  0.41343  0.86162  1.0000
  H   H228      1.0  0.99996  0.38402  0.78770  1.0000
  H   H229      1.0  0.30968  0.37210  0.78121  1.0000
  H   H230      1.0  0.26638  0.43370  0.88091  1.0000
  H   H231      1.0  0.27335  0.40198  0.86991  1.0000
  Fe  Fe34      1.0  0.23700  0.47272  0.93128  1.0000
  S   S70       1.0  0.11720  0.44219  0.83874  1.0000
  C   C228      1.0  0.00011  0.39450  0.75677  1.0000
  H   H232      1.0  0.19448  0.42039  0.84687  1.0000
  C   C229      1.0  0.31514  0.37052  0.75061  1.0000
  Fe  Fe35      1.0  0.25626  0.47392  0.88796  1.0000
  H   H233      1.0  0.22869  0.38251  0.80700  1.0000
  S   S71       1.0  0.14217  0.48885  0.83259  1.0000
  N   N20       1.0  0.29752  0.31374  0.75034  1.0000
  H   H234      1.0  0.25295  0.47943  0.80892  1.0000
  C   C230      1.0  0.14375  0.38594  0.79387  1.0000
  C   C231      1.0  0.16000  0.38463  0.80206  1.0000
  C   C232      1.0  0.17887  0.37565  0.79336  1.0000
  C   C233      1.0  0.18162  0.36907  0.77583  1.0000
  C   C234      1.0  0.28018  0.31015  0.74862  1.0000
  H   H235      1.0  0.12907  0.39224  0.80093  1.0000
  H   H236      1.0  0.19145  0.37442  0.79975  1.0000
  Fe  Fe36      1.0  0.12928  0.46041  0.78212  1.0000
  H   H237      1.0  0.05397  0.39824  0.83094  1.0000
  S   S72       1.0  0.16925  0.36615  0.74360  1.0000
  H   H238      1.0  0.00529  0.44789  0.87696  1.0000
  H   H239      1.0  0.28688  0.31778  0.77997  1.0000
  C   C235      1.0  0.30407  0.36916  0.76980  1.0000
  C   C236      1.0  0.28569  0.36376  0.77431  1.0000
  C   C237      1.0  0.17848  0.48141  0.87040  1.0000
  H   H240      1.0  0.30836  0.29809  0.77616  1.0000
  C   C238      1.0  0.29694  0.48263  0.77783  1.0000
  H   H241      1.0  0.27734  0.36228  0.78925  1.0000
  C   C239      1.0  0.17100  0.44957  0.87319  1.0000
  H   H242      1.0  0.00164  0.44829  0.81461  1.0000
  H   H243      1.0  0.21440  0.43854  0.73908  1.0000
  S   S73       1.0  0.06327  0.45498  0.82768  1.0000
  H   H244      1.0  0.06251  0.41201  0.84347  1.0000
  Fe  Fe37      1.0  0.21416  0.46869  0.90208  1.0000
  H   H245      1.0  0.17240  0.43408  0.88000  1.0000
  H   H246      1.0  0.31445  0.46930  0.88599  1.0000
  C   C240      1.0  0.20879  0.41306  0.83971  1.0000
  C   C241      1.0  0.16552  0.37141  0.76702  1.0000
  C   C242      1.0  0.15948  0.45781  0.85866  1.0000
  C   C243      1.0  0.29866  0.47900  0.91999  1.0000
  H   H247      1.0  0.13397  0.38071  0.76983  1.0000
  C   C244      1.0  0.30101  0.31321  0.76981  1.0000
  N   N21       1.0  0.22580  0.41527  0.84364  1.0000
  H   H248      1.0  0.31048  0.45382  0.83265  1.0000
  S   S74       1.0  0.24256  0.45140  0.91129  1.0000
  H   H249      1.0  0.30049  0.46346  0.91997  1.0000
  C   C245      1.0  0.22448  0.42749  0.85777  1.0000
  C   C246      1.0  0.24383  0.40579  0.83483  1.0000
  Fe  Fe38      1.0  0.13096  0.46780  0.82147  1.0000
  C   C247      1.0  0.20957  0.40128  0.82648  1.0000
  C   C248      1.0  0.20029  0.43520  0.73962  1.0000
  H   H250      1.0  0.19626  0.36237  0.76904  1.0000
  C   C249      1.0  0.14650  0.37924  0.77640  1.0000
  C   C250      1.0  0.18048  0.46136  0.87912  1.0000
  S   S75       1.0  0.13571  0.47067  0.74933  1.0000
  C   C251      1.0  0.01648  0.40569  0.84868  1.0000
  C   C252      1.0  0.27780  0.47928  0.78463  1.0000
  S   S76       1.0  0.24450  0.46128  0.96153  1.0000
  H   H251      1.0  0.01952  0.39416  0.84031  1.0000
  H   H252      1.0  0.27066  0.47477  0.77525  1.0000
  C   C253      1.0  0.17065  0.42399  0.75795  1.0000
  C   C254      1.0  0.18881  0.42818  0.75760  1.0000
  H   H253      1.0  0.05638  0.38852  0.85637  1.0000
  C   C255      1.0  0.24393  0.47824  0.97585  1.0000
  C   C256      1.0  0.27817  0.36021  0.75956  1.0000
  S   S77       1.0  0.19491  0.45051  0.89725  1.0000
  H   H254      1.0  0.31669  0.42285  0.82113  1.0000
  H   H255      1.0  0.16177  0.41866  0.77196  1.0000
  C   C257      1.0  0.24515  0.39396  0.82149  1.0000
  C   C258      1.0  0.05212  0.40211  0.84548  1.0000
  H   H256      1.0  0.19602  0.39949  0.82351  1.0000
  C   C259      1.0  0.00828  0.43587  0.86924  1.0000
  S   S78       1.0  0.10839  0.47949  0.80213  1.0000
  H   H257      1.0  0.25951  0.38651  0.81456  1.0000
  C   C260      1.0  0.30588  0.42498  0.83430  1.0000
  C   C261      1.0  0.16798  0.48531  0.74886  1.0000
  H   H258      1.0  0.26474  0.41931  0.74043  1.0000
  H   H259      1.0  0.13597  0.42053  0.75633  1.0000
  C   C262      1.0  0.26788  0.48186  0.80351  1.0000
  C   C263      1.0  0.31723  0.48392  0.88592  1.0000
  C   C264      1.0  0.27721  0.48794  0.81527  1.0000
  H   H260      1.0  0.31361  0.48526  0.82971  1.0000
  H   H261      1.0  0.30487  0.48054  0.76325  1.0000
  C   C265      1.0  0.28916  0.36189  0.74037  1.0000
  Fe  Fe39      1.0  0.24162  0.35639  0.73987  1.0000
  N   N22       1.0  0.16412  0.42673  0.74086  1.0000
  C   C266      1.0  0.15152  0.48745  0.74062  1.0000
  H   H262      1.0  0.20635  0.45459  0.98704  1.0000
  C   C267      1.0  0.16671  0.48971  0.85609  1.0000
  C   C268      1.0  0.28813  0.48614  0.93694  1.0000
  C   C269      1.0  0.30577  0.48883  0.78993  1.0000
  H   H263      1.0  0.32059  0.49150  0.78447  1.0000
  C   C270      1.0  0.14516  0.42217  0.74127  1.0000
  C   C271      1.0  0.99683  0.41442  0.85544  1.0000
  H   H264      1.0  0.18563  0.49062  0.87499  1.0000
  S   S79       1.0  0.22841  0.48982  0.87725  1.0000
  N   N23       1.0  0.29579  0.49168  0.80828  1.0000
  H   H265      1.0  0.26942  0.48984  0.82995  1.0000
  C   C272      1.0  0.19590  0.46919  0.98560  1.0000
  N   N24       1.0  0.30603  0.49153  0.90354  1.0000
  S   S80       1.0  0.22367  0.33568  0.73802  1.0000
  Fe  Fe40      1.0  0.22747  0.51475  0.08891  1.0000
  S   S81       1.0  0.24650  0.53096  0.06356  1.0000
  S   S82       1.0  0.20627  0.53106  0.11139  1.0000
  C   C273      1.0  0.19692  0.50086  0.02804  1.0000
  H   H266      1.0  0.32278  0.60569  0.19792  1.0000
  H   H267      1.0  0.19785  0.50903  0.03854  1.0000
  Fe  Fe41      1.0  0.27178  0.50796  0.07362  1.0000
  S   S83       1.0  0.29906  0.51598  0.07717  1.0000
  Fe  Fe42      1.0  0.24419  0.50939  0.04658  1.0000
  S   S84       1.0  0.23812  0.52124  0.01575  1.0000
  Fe  Fe43      1.0  0.32778  0.53949  0.19865  1.0000
  Fe  Fe44      1.0  0.12582  0.50878  0.22265  1.0000
  H   H268      1.0  0.28187  0.58069  0.08138  1.0000
  S   S85       1.0  0.28570  0.55847  0.14833  1.0000
  H   H269      1.0  0.26137  0.53780  0.13799  1.0000
  C   C274      1.0  0.06503  0.54037  0.23518  1.0000
  H   H270      1.0  0.18871  0.52700  0.00664  1.0000
  H   H271      1.0  0.24111  0.56768  0.15049  1.0000
  H   H272      1.0  0.21811  0.56702  0.12170  1.0000
  H   H273      1.0  0.26090  0.56664  0.06789  1.0000
  H   H274      1.0  0.07653  0.57507  0.22279  1.0000
  S   S86       1.0  0.10149  0.51256  0.20624  1.0000
  H   H275      1.0  0.27047  0.58819  0.11474  1.0000
  S   S87       1.0  0.25295  0.49314  0.09999  1.0000
  H   H276      1.0  0.22852  0.56037  0.08818  1.0000
  H   H277      1.0  0.05990  0.54797  0.22166  1.0000
  H   H278      1.0  0.18635  0.50590  0.10060  1.0000
  H   H279      1.0  0.31970  0.54976  0.11763  1.0000
  Fe  Fe45      1.0  0.31297  0.55465  0.16030  1.0000
  C   C275      1.0  0.23180  0.57075  0.11270  1.0000
  C   C276      1.0  0.28230  0.54941  0.22691  1.0000
  N   N25       1.0  0.24328  0.57880  0.11990  1.0000
  H   H280      1.0  0.26588  0.52243  0.10953  1.0000
  C   C277      1.0  0.08818  0.56238  0.22766  1.0000
  C   C278      1.0  0.23772  0.56675  0.09374  1.0000
  C   C279      1.0  0.24160  0.50454  0.00018  1.0000
  H   H281      1.0  0.22110  0.58788  0.14381  1.0000
  H   H282      1.0  0.24497  0.59249  0.14263  1.0000
  S   S88       1.0  0.31593  0.57002  0.18291  1.0000
  C   C280      1.0  0.25578  0.57043  0.08233  1.0000
  H   H283      1.0  0.17910  0.50823  0.22654  1.0000
  C   C281      1.0  0.23725  0.58192  0.14018  1.0000
  C   C282      1.0  0.16110  0.50246  0.12402  1.0000
  H   H284      1.0  0.03794  0.49322  0.18294  1.0000
  C   C283      1.0  0.32434  0.57665  0.22953  1.0000
  C   C284      1.0  0.19178  0.51098  0.01008  1.0000
  H   H285      1.0  0.28784  0.55094  0.21128  1.0000
  H   H286      1.0  0.25306  0.56578  0.22357  1.0000
  C   C285      1.0  0.18497  0.52161  0.12306  1.0000
  C   C286      1.0  0.26750  0.57842  0.08985  1.0000
  C   C287      1.0  0.15062  0.50712  0.14216  1.0000
  C   C288      1.0  0.26092  0.58267  0.10873  1.0000
  C   C289      1.0  0.15733  0.51906  0.15071  1.0000
  C   C290      1.0  0.17437  0.52643  0.14108  1.0000
  C   C291      1.0  0.26253  0.55763  0.23388  1.0000
  S   S89       1.0  0.31955  0.52934  0.23135  1.0000
  H   H287      1.0  0.14915  0.52299  0.16452  1.0000
  H   H288      1.0  0.17935  0.53588  0.14764  1.0000
  C   C292      1.0  0.29555  0.52679  0.09763  1.0000
  C   C293      1.0  0.31075  0.53440  0.10015  1.0000
  C   C294      1.0  0.30813  0.54336  0.11620  1.0000
  C   C295      1.0  0.29023  0.54487  0.12976  1.0000
  C   C296      1.0  0.27520  0.53684  0.12751  1.0000
  C   C297      1.0  0.27780  0.52797  0.11141  1.0000
  C   C298      1.0  0.17838  0.50951  0.11459  1.0000
  S   S90       1.0  0.32213  0.52432  0.17756  1.0000
  H   H289      1.0  0.32445  0.53372  0.08944  1.0000
  H   H290      1.0  0.09830  0.55722  0.21456  1.0000
  H   H291      1.0  0.09706  0.56774  0.23517  1.0000
  H   H292      1.0  0.30999  0.58007  0.22467  1.0000
  S   S91       1.0  0.22272  0.49510  0.07125  1.0000
  H   H293      1.0  0.29737  0.50083  0.22484  1.0000
  S   S92       1.0  0.13380  0.53329  0.23193  1.0000
  C   C299      1.0  0.19155  0.50030  0.99626  1.0000
  Fe  Fe46      1.0  0.12425  0.49360  0.18703  1.0000
  S   S93       1.0  0.12957  0.49742  0.15423  1.0000
  H   H294      1.0  0.15593  0.49324  0.11736  1.0000
  H   H295      1.0  0.29970  0.49258  0.16605  1.0000
  C   C300      1.0  0.17891  0.49226  0.23203  1.0000
  C   C301      1.0  0.32099  0.49204  0.13885  1.0000
  S   S94       1.0  0.14885  0.49258  0.20147  1.0000
  Fe  Fe47      1.0  0.21756  0.55327  0.29344  1.0000
  S   S95       1.0  0.18534  0.56437  0.30490  1.0000
  H   H296      1.0  0.16173  0.63684  0.35031  1.0000
  Fe  Fe48      1.0  0.22300  0.52328  0.33080  1.0000
  S   S96       1.0  0.19116  0.53137  0.34481  1.0000
  C   C302      1.0  0.01246  0.80098  0.45001  1.0000
  Fe  Fe49      1.0  0.18495  0.53215  0.31536  1.0000
  S   S97       1.0  0.16284  0.51581  0.31268  1.0000
  Fe  Fe50      1.0  0.19509  0.56261  0.33305  1.0000
  S   S98       1.0  0.18311  0.58458  0.35343  1.0000
  S   S99       1.0  0.21669  0.52110  0.30244  1.0000
  S   S100      1.0  0.22741  0.55437  0.32042  1.0000
  N   N26       1.0  0.02881  0.80051  0.47572  1.0000
  Fe  Fe51      1.0  0.23032  0.61973  0.41955  1.0000
  S   S101      1.0  0.22412  0.65052  0.40193  1.0000
  S   S102      1.0  0.24100  0.59516  0.40245  1.0000
  Fe  Fe52      1.0  0.21780  0.63342  0.45859  1.0000
  S   S103      1.0  0.21008  0.66506  0.44384  1.0000
  H   H297      1.0  0.18141  0.72430  0.44889  1.0000
  Fe  Fe53      1.0  0.19658  0.65418  0.42484  1.0000
  S   S104      1.0  0.16672  0.66958  0.41844  1.0000
  Fe  Fe54      1.0  0.23846  0.65832  0.42265  1.0000
  S   S105      1.0  0.25660  0.68178  0.41243  1.0000
  S   S106      1.0  0.20163  0.62293  0.44131  1.0000
  S   S107      1.0  0.24735  0.62703  0.43852  1.0000
  H   H298      1.0  0.24189  0.73003  0.42870  1.0000
  C   C303      1.0  0.21092  0.72929  0.43720  1.0000
  C   C304      1.0  0.07425  0.75599  0.45917  1.0000
  H   H299      1.0  0.25665  0.82472  0.47547  1.0000
  C   C305      1.0  0.29880  0.79615  0.44582  1.0000
  S   S108      1.0  0.30712  0.72914  0.47347  1.0000
  N   N27       1.0  0.23783  0.54107  0.40216  1.0000
  C   C306      1.0  0.27602  0.49540  0.25170  1.0000
  Fe  Fe55      1.0  0.15003  0.76099  0.44984  1.0000
  S   S109      1.0  0.02541  0.75408  0.44088  1.0000
  S   S110      1.0  0.32095  0.67644  0.46117  1.0000
  H   H300      1.0  0.24848  0.52496  0.37883  1.0000
  H   H301      1.0  0.15446  0.67290  0.38042  1.0000
  C   C307      1.0  0.04211  0.75245  0.45602  1.0000
  C   C308      1.0  0.28705  0.53648  0.26041  1.0000
  C   C309      1.0  0.15796  0.53784  0.27585  1.0000
  C   C310      1.0  0.16522  0.69485  0.41618  1.0000
  C   C311      1.0  0.14744  0.70690  0.42342  1.0000
  C   C312      1.0  0.14687  0.72658  0.42370  1.0000
  C   C313      1.0  0.16387  0.73441  0.41598  1.0000
  C   C314      1.0  0.18134  0.72264  0.40770  1.0000
  C   C315      1.0  0.18214  0.70273  0.40824  1.0000
  H   H302      1.0  0.13428  0.70089  0.42944  1.0000
  H   H303      1.0  0.13329  0.73573  0.42991  1.0000
  H   H304      1.0  0.19450  0.72865  0.40165  1.0000
  H   H305      1.0  0.19593  0.69348  0.40263  1.0000
  C   C316      1.0  0.27440  0.68006  0.42613  1.0000
  C   C317      1.0  0.28393  0.69582  0.42259  1.0000
  C   C318      1.0  0.29788  0.69502  0.43367  1.0000
  C   C319      1.0  0.30273  0.67821  0.44795  1.0000
  C   C320      1.0  0.29318  0.66248  0.45154  1.0000
  C   C321      1.0  0.27885  0.66351  0.44082  1.0000
  H   H306      1.0  0.28040  0.70872  0.41135  1.0000
  H   H307      1.0  0.29687  0.64944  0.46260  1.0000
  H   H308      1.0  0.27150  0.65136  0.44372  1.0000
  H   H309      1.0  0.01328  0.79976  0.43501  1.0000
  C   C322      1.0  0.04678  0.80001  0.48239  1.0000
  C   C323      1.0  0.17504  0.64019  0.35213  1.0000
  S   S111      1.0  0.24233  0.50108  0.34992  1.0000
  H   H310      1.0  0.29656  0.52836  0.27068  1.0000
  C   C324      1.0  0.20965  0.64677  0.35768  1.0000
  C   C325      1.0  0.14685  0.67455  0.47274  1.0000
  N   N28       1.0  0.21476  0.81101  0.45982  1.0000
  H   H311      1.0  0.17338  0.65199  0.47471  1.0000
  H   H312      1.0  0.13087  0.50154  0.26648  1.0000
  H   H313      1.0  0.22909  0.85098  0.46432  1.0000
  H   H314      1.0  0.12081  0.69763  0.47491  1.0000
  C   C326      1.0  0.20262  0.70337  0.46463  1.0000
  C   C327      1.0  0.16201  0.66257  0.48206  1.0000
  C   C328      1.0  0.19310  0.63294  0.34058  1.0000
  H   H315      1.0  0.04679  0.81484  0.48453  1.0000
  C   C329      1.0  0.23595  0.70684  0.45389  1.0000
  H   H316      1.0  0.19364  0.62410  0.33007  1.0000
  H   H317      1.0  0.15435  0.64781  0.39326  1.0000
  H   H318      1.0  0.05854  0.50098  0.27239  1.0000
  H   H319      1.0  0.14639  0.67335  0.45807  1.0000
  S   S112      1.0  0.13797  0.73621  0.47109  1.0000
  H   H320      1.0  0.19073  0.66214  0.37996  1.0000
  C   C330      1.0  0.26709  0.54437  0.26741  1.0000
  C   C331      1.0  0.06825  0.75278  0.47964  1.0000
  C   C332      1.0  0.19943  0.58839  0.36636  1.0000
  C   C333      1.0  0.19187  0.59854  0.38195  1.0000
  C   C334      1.0  0.20460  0.60161  0.39253  1.0000
  C   C335      1.0  0.22497  0.59427  0.38773  1.0000
  C   C336      1.0  0.23254  0.58453  0.37189  1.0000
  C   C337      1.0  0.21984  0.58165  0.36124  1.0000
  H   H321      1.0  0.17610  0.60385  0.38601  1.0000
  H   H322      1.0  0.19860  0.60909  0.40478  1.0000
  H   H323      1.0  0.24828  0.57902  0.36792  1.0000
  H   H324      1.0  0.22593  0.57412  0.34915  1.0000
  C   C338      1.0  0.15461  0.52115  0.29030  1.0000
  H   H325      1.0  0.25246  0.62256  0.48145  1.0000
  C   C339      1.0  0.13845  0.51166  0.26892  1.0000
  C   C340      1.0  0.23568  0.53241  0.38803  1.0000
  C   C341      1.0  0.22949  0.83563  0.46465  1.0000
  H   H326      1.0  0.04604  0.51938  0.24216  1.0000
  H   H327      1.0  0.29586  0.84581  0.43690  1.0000
  C   C342      1.0  0.14174  0.52836  0.25447  1.0000
  H   H328      1.0  0.25130  0.70191  0.45524  1.0000
  S   S113      1.0  0.30068  0.77721  0.43352  1.0000
  H   H329      1.0  0.19536  0.79189  0.46271  1.0000
  H   H330      1.0  0.30048  0.77666  0.47398  1.0000
  S   S114      1.0  0.16412  0.75798  0.41881  1.0000
  H   H331      1.0  0.21532  0.52676  0.37346  1.0000
  H   H332      1.0  0.23032  0.78111  0.46634  1.0000
  H   H333      1.0  0.26122  0.54239  0.28306  1.0000
  H   H334      1.0  0.22337  0.55870  0.42373  1.0000
  H   H335      1.0  0.15390  0.55452  0.24700  1.0000
  H   H336      1.0  0.08880  0.75892  0.45239  1.0000
  C   C343      1.0  0.20030  0.54357  0.39592  1.0000
  C   C344      1.0  0.13239  0.68819  0.48240  1.0000
  H   H337      1.0  0.24070  0.66961  0.47532  1.0000
  H   H338      1.0  0.16552  0.54799  0.27841  1.0000
  S   S115      1.0  0.23009  0.56563  0.26223  1.0000
  H   H339      1.0  0.09811  0.54027  0.26135  1.0000
  H   H340      1.0  0.26244  0.55459  0.39514  1.0000
  C   C345      1.0  0.15137  0.54151  0.25806  1.0000
  H   H341      1.0  0.20231  0.84192  0.45441  1.0000
  C   C346      1.0  0.15548  0.65767  0.37849  1.0000
  H   H342      1.0  0.30507  0.70730  0.43093  1.0000
  C   C347      1.0  0.29721  0.82637  0.46508  1.0000
  H   H343      1.0  0.06580  0.75852  0.43155  1.0000
  C   C348      1.0  0.25490  0.55515  0.25410  1.0000
  H   H344      1.0  0.22466  0.62994  0.33517  1.0000
  C   C349      1.0  0.06120  0.75579  0.44740  1.0000
  C   C350      1.0  0.24499  0.82089  0.47091  1.0000
  C   C351      1.0  0.29672  0.83076  0.44502  1.0000
  H   H345      1.0  0.26853  0.52784  0.40030  1.0000
  H   H346      1.0  0.18988  0.56088  0.41854  1.0000
  H   H347      1.0  0.20650  0.74169  0.42572  1.0000
  S   S116      1.0  0.16972  0.76298  0.46885  1.0000
  H   H348      1.0  0.22314  0.64907  0.36027  1.0000
  C   C352      1.0  0.19132  0.65404  0.36880  1.0000
  C   C353      1.0  0.20262  0.55236  0.41029  1.0000
  C   C354      1.0  0.23068  0.72287  0.43898  1.0000
  C   C355      1.0  0.22161  0.55100  0.41321  1.0000
  C   C356      1.0  0.19679  0.71952  0.45015  1.0000
  C   C357      1.0  0.07894  0.51973  0.26902  1.0000
  N   N29       1.0  0.22200  0.69720  0.46634  1.0000
  H   H349      1.0  0.25773  0.54101  0.42000  1.0000
  H   H350      1.0  0.14265  0.65805  0.37217  1.0000
  H   H351      1.0  0.18575  0.54519  0.39291  1.0000
  H   H352      1.0  0.08483  0.51150  0.28198  1.0000
  Fe  Fe56      1.0  0.32858  0.70548  0.45928  1.0000
  C   C358      1.0  0.25764  0.54105  0.40450  1.0000
  C   C359      1.0  0.21051  0.63612  0.34352  1.0000
  S   S117      1.0  0.14789  0.81380  0.48460  1.0000
  C   C360      1.0  0.21690  0.53341  0.38483  1.0000
  N   N30       1.0  0.17433  0.65075  0.36590  1.0000
  C   C361      1.0  0.29935  0.79174  0.46589  1.0000
  C   C362      1.0  0.29715  0.81571  0.43548  1.0000
  S   S118      1.0  0.12481  0.78467  0.46002  1.0000
  C   C363      1.0  0.08643  0.53600  0.25724  1.0000
  H   H353      1.0  0.19157  0.69559  0.47425  1.0000
  C   C364      1.0  0.14473  0.50816  0.28680  1.0000
  C   C365      1.0  0.26505  0.98163  0.48423  1.0000
  S   S119      1.0  0.29628  0.84533  0.47697  1.0000
  H   H354      1.0  0.20430  0.80387  0.43778  1.0000
  Fe  Fe57      1.0  0.14366  0.78484  0.48091  1.0000
  H   H355      1.0  0.18728  0.51140  0.25554  1.0000
  C   C366      1.0  0.22797  0.68036  0.48173  1.0000
  H   H356      1.0  0.16369  0.49480  0.35387  1.0000
  H   H357      1.0  0.02188  0.74598  0.48334  1.0000
  H   H358      1.0  0.32142  0.57032  0.24556  1.0000
  H   H359      1.0  0.25303  0.98412  0.47657  1.0000
  H   H360      1.0  0.26790  0.51062  0.25011  1.0000
  H   H361      1.0  0.29677  0.81914  0.41997  1.0000
  C   C367      1.0  0.03635  0.74888  0.47650  1.0000
  C   C368      1.0  0.06418  0.51387  0.26369  1.0000
  C   C369      1.0  0.21443  0.83040  0.45905  1.0000
  C   C370      1.0  0.19926  0.80577  0.45326  1.0000
  C   C371      1.0  0.29822  0.80691  0.47557  1.0000
  C   C372      1.0  0.05712  0.52426  0.24670  1.0000
  H   H362      1.0  0.20251  0.49673  0.28467  1.0000
  C   C373      1.0  0.29467  0.53910  0.24014  1.0000
  H   H363      1.0  0.18539  0.81729  0.45441  1.0000
  C   C374      1.0  0.02965  0.79994  0.45657  1.0000
  Fe  Fe58      1.0  0.31985  0.75005  0.44755  1.0000
  C   C375      1.0  0.24532  0.80119  0.47144  1.0000
  H   H364      1.0  0.14199  0.49526  0.29791  1.0000
  Fe  Fe59      1.0  0.11426  0.75984  0.48314  1.0000
  C   C376      1.0  0.23001  0.79648  0.46578  1.0000
  H   H365      1.0  0.06039  0.79529  0.47168  1.0000
  H   H366      1.0  0.04369  0.79817  0.44634  1.0000
  H   H367      1.0  0.25732  0.78966  0.47633  1.0000
  N   N31       1.0  0.07945  0.54608  0.24056  1.0000
  C   C377      1.0  0.19198  0.49548  0.25940  1.0000
  C   C378      1.0  0.04934  0.74907  0.48823  1.0000
  Fe  Fe60      1.0  0.21932  0.52663  0.72526  1.0000
  S   S120      1.0  0.27815  0.55038  0.67953  1.0000
  H   H368      1.0  0.22918  0.96628  0.53867  1.0000
  C   C379      1.0  0.23532  0.63666  0.53291  1.0000
  C   C380      1.0  0.30926  0.65539  0.51506  1.0000
  C   C381      1.0  0.22135  0.63602  0.52246  1.0000
  Fe  Fe61      1.0  0.26155  0.83313  0.54861  1.0000
  S   S121      1.0  0.22938  0.84500  0.54877  1.0000
  S   S122      1.0  0.26878  0.81595  0.57760  1.0000
  H   H369      1.0  0.20577  0.63948  0.52879  1.0000
  C   C382      1.0  0.26161  0.62667  0.50644  1.0000
  Fe  Fe62      1.0  0.23950  0.87084  0.52682  1.0000
  S   S123      1.0  0.22403  0.90253  0.52853  1.0000
  Fe  Fe63      1.0  0.23468  0.83049  0.52300  1.0000
  C   C383      1.0  0.25549  0.63152  0.52512  1.0000
  S   S124      1.0  0.27149  0.85985  0.52862  1.0000
  S   S125      1.0  0.26639  0.81702  0.52438  1.0000
  Fe  Fe64      1.0  0.25488  0.49332  0.72935  1.0000
  Fe  Fe65      1.0  0.24931  0.64835  0.60628  1.0000
  S   S126      1.0  0.27909  0.63661  0.58930  1.0000
  S   S127      1.0  0.23522  0.63278  0.63587  1.0000
  Fe  Fe66      1.0  0.24227  0.68564  0.57520  1.0000
  S   S128      1.0  0.27150  0.67702  0.55600  1.0000
  S   S129      1.0  0.22418  0.71542  0.56456  1.0000
  Fe  Fe67      1.0  0.26444  0.64707  0.56314  1.0000
  S   S130      1.0  0.27334  0.62988  0.53887  1.0000
  Fe  Fe68      1.0  0.28340  0.66762  0.58371  1.0000
  S   S131      1.0  0.31337  0.67264  0.58282  1.0000
  S   S132      1.0  0.23407  0.65618  0.58057  1.0000
  S   S133      1.0  0.25465  0.67884  0.60259  1.0000
  H   H370      1.0  0.23042  0.64057  0.54721  1.0000
  H   H371      1.0  0.26681  0.60144  0.58271  1.0000
  H   H372      1.0  0.28366  0.67113  0.49260  1.0000
  S   S134      1.0  0.13087  0.76209  0.50514  1.0000
  C   C384      1.0  0.22455  0.60173  0.61064  1.0000
  H   H373      1.0  0.04779  0.78915  0.49646  1.0000
  N   N32       1.0  0.30098  0.67512  0.51116  1.0000
  S   S135      1.0  0.22158  0.80532  0.52217  1.0000
  H   H374      1.0  0.14862  0.67968  0.52454  1.0000
  H   H375      1.0  0.20294  0.77690  0.51704  1.0000
  H   H376      1.0  0.10741  0.71356  0.50158  1.0000
  C   C385      1.0  0.01109  0.80224  0.48868  1.0000
  H   H377      1.0  0.01044  0.80261  0.50387  1.0000
  C   C386      1.0  0.15908  0.51760  0.71867  1.0000
  Fe  Fe69      1.0  0.15541  0.74023  0.49123  1.0000
  H   H378      1.0  0.31641  0.59060  0.66852  1.0000
  Fe  Fe70      1.0  0.26001  0.53452  0.70655  1.0000
  H   H379      1.0  0.27026  0.68470  0.51161  1.0000
  Fe  Fe71      1.0  0.27277  0.84488  0.50420  1.0000
  C   C387      1.0  0.17540  0.51569  0.72699  1.0000
  S   S136      1.0  0.08317  0.75474  0.49501  1.0000
  C   C388      1.0  0.21046  0.71479  0.54756  1.0000
  C   C389      1.0  0.21195  0.69712  0.54173  1.0000
  C   C390      1.0  0.20015  0.69643  0.52906  1.0000
  C   C391      1.0  0.18710  0.71349  0.52183  1.0000
  C   C392      1.0  0.18607  0.73136  0.52706  1.0000
  C   C393      1.0  0.19770  0.73198  0.54001  1.0000
  H   H380      1.0  0.22199  0.68391  0.54716  1.0000
  H   H381      1.0  0.20099  0.68258  0.52504  1.0000
  H   H382      1.0  0.17597  0.74456  0.52156  1.0000
  H   H383      1.0  0.19651  0.74570  0.54445  1.0000
  C   C394      1.0  0.26915  0.61145  0.68680  1.0000
  S   S137      1.0  0.17197  0.71177  0.50671  1.0000
  H   H384      1.0  0.25677  0.60840  0.69856  1.0000
  C   C395      1.0  0.31529  0.68851  0.59713  1.0000
  C   C396      1.0  0.25222  0.59895  0.58235  1.0000
  C   C397      1.0  0.31953  0.71371  0.61964  1.0000
  C   C398      1.0  0.30150  0.70799  0.62258  1.0000
  C   C399      1.0  0.29933  0.69551  0.61124  1.0000
  H   H385      1.0  0.28915  0.71344  0.63346  1.0000
  H   H386      1.0  0.28535  0.69136  0.61344  1.0000
  H   H387      1.0  0.28890  0.64844  0.62763  1.0000
  C   C400      1.0  0.26711  0.62882  0.67247  1.0000
  H   H388      1.0  0.30035  0.70382  0.51539  1.0000
  C   C401      1.0  0.30009  0.61900  0.65581  1.0000
  H   H389      1.0  0.27720  0.62270  0.50032  1.0000
  C   C402      1.0  0.18975  0.82702  0.50535  1.0000
  C   C403      1.0  0.24138  0.56550  0.63126  1.0000
  H   H390      1.0  0.32564  0.69176  0.53621  1.0000
  C   C404      1.0  0.21480  0.59422  0.62948  1.0000
  H   H391      1.0  0.19414  0.84015  0.50612  1.0000
  C   C405      1.0  0.23659  0.91843  0.53359  1.0000
  C   C406      1.0  0.22751  0.93843  0.53314  1.0000
  C   C407      1.0  0.23644  0.95098  0.53878  1.0000
  C   C408      1.0  0.25447  0.94352  0.54501  1.0000
  C   C409      1.0  0.26373  0.92368  0.54506  1.0000
  C   C410      1.0  0.25486  0.91121  0.53937  1.0000
  H   H392      1.0  0.21333  0.94413  0.52877  1.0000
  H   H393      1.0  0.27770  0.91782  0.54984  1.0000
  H   H394      1.0  0.26193  0.89590  0.54000  1.0000
  H   H395      1.0  0.30159  0.77754  0.52137  1.0000
  N   N33       1.0  0.13306  0.68983  0.50085  1.0000
  C   C411      1.0  0.30225  0.83097  0.57032  1.0000
  C   C412      1.0  0.29094  0.81765  0.58261  1.0000
  C   C413      1.0  0.29779  0.80466  0.59880  1.0000
  S   S138      1.0  0.32432  0.73200  0.51799  1.0000
  C   C414      1.0  0.22747  0.63081  0.50393  1.0000
  H   H396      1.0  0.29710  0.84095  0.55772  1.0000
  H   H397      1.0  0.28906  0.79440  0.60842  1.0000
  C   C415      1.0  0.31045  0.97232  0.51620  1.0000
  C   C416      1.0  0.26566  0.57258  0.66675  1.0000
  C   C417      1.0  0.27545  0.58204  0.64874  1.0000
  C   C418      1.0  0.26617  0.60040  0.63890  1.0000
  C   C419      1.0  0.24712  0.60942  0.64713  1.0000
  C   C420      1.0  0.23729  0.59986  0.66501  1.0000
  C   C421      1.0  0.24644  0.58141  0.67469  1.0000
  H   H398      1.0  0.29034  0.57527  0.64255  1.0000
  H   H399      1.0  0.27391  0.60765  0.62518  1.0000
  H   H400      1.0  0.22252  0.60675  0.67143  1.0000
  H   H401      1.0  0.23871  0.57422  0.68846  1.0000
  C   C422      1.0  0.17327  0.82864  0.49721  1.0000
  H   H402      1.0  0.17388  0.77984  0.50277  1.0000
  S   S139      1.0  0.24364  0.51319  0.70304  1.0000
  H   H403      1.0  0.26442  0.65616  0.64076  1.0000
  C   C423      1.0  0.28697  0.59762  0.68537  1.0000
  C   C424      1.0  0.14781  0.67804  0.51012  1.0000
  H   H404      1.0  0.24837  0.55159  0.63948  1.0000
  N   N34       1.0  0.24217  0.59122  0.60223  1.0000
  C   C425      1.0  0.30703  0.68819  0.51823  1.0000
  H   H405      1.0  0.17443  0.65528  0.50812  1.0000
  H   H406      1.0  0.30117  0.73874  0.58643  1.0000
  H   H407      1.0  0.20110  0.60284  0.63629  1.0000
  H   H408      1.0  0.26487  0.56529  0.60587  1.0000
  S   S140      1.0  0.18844  0.53493  0.71972  1.0000
  H   H409      1.0  0.13475  0.50499  0.71877  1.0000
  H   H410      1.0  0.10953  0.69656  0.52455  1.0000
  H   H411      1.0  0.28849  0.58373  0.69598  1.0000
  N   N35       1.0  0.24014  0.88423  0.58568  1.0000
  C   C426      1.0  0.24762  0.89737  0.59117  1.0000
  C   C427      1.0  0.22268  0.89020  0.57915  1.0000
  C   C428      1.0  0.23733  0.91698  0.59060  1.0000
  C   C429      1.0  0.21196  0.90965  0.57850  1.0000
  C   C430      1.0  0.21938  0.92310  0.58424  1.0000
  C   C431      1.0  0.25165  0.86407  0.58540  1.0000
  H   H412      1.0  0.26184  0.89287  0.59558  1.0000
  H   H413      1.0  0.21726  0.88014  0.57372  1.0000
  H   H414      1.0  0.24361  0.92758  0.59428  1.0000
  H   H415      1.0  0.19853  0.91447  0.57259  1.0000
  H   H416      1.0  0.21164  0.93844  0.58300  1.0000
  H   H417      1.0  0.24200  0.85359  0.58691  1.0000
  H   H418      1.0  0.26249  0.86373  0.57133  1.0000
  H   H419      1.0  0.25977  0.85844  0.59774  1.0000
  C   C432      1.0  0.17826  0.79300  0.50341  1.0000
  H   H420      1.0  0.21807  0.61619  0.60299  1.0000
  C   C433      1.0  0.31383  0.78083  0.52549  1.0000
  C   C434      1.0  0.16254  0.66433  0.50085  1.0000
  S   S141      1.0  0.26585  0.95828  0.55315  1.0000
  H   H421      1.0  0.30447  0.64501  0.50948  1.0000
  N   N36       1.0  0.28240  0.63227  0.65710  1.0000
  H   H422      1.0  0.29723  0.78708  0.55356  1.0000
  S   S142      1.0  0.27384  0.51324  0.73091  1.0000
  H   H423      1.0  0.28503  0.66219  0.64675  1.0000
  C   C435      1.0  0.11804  0.70424  0.51094  1.0000
  H   H424      1.0  0.24360  0.61322  0.57549  1.0000
  C   C436      1.0  0.32133  0.68151  0.53001  1.0000
  H   H425      1.0  0.32715  0.73004  0.55737  1.0000
  S   S143      1.0  0.24141  0.85752  0.50081  1.0000
  C   C437      1.0  0.28436  0.68211  0.50084  1.0000
  H   H426      1.0  0.29093  0.94594  0.51479  1.0000
  C   C438      1.0  0.20051  0.80834  0.51243  1.0000
  C   C439      1.0  0.24762  0.62658  0.49573  1.0000
  H   H427      1.0  0.04463  0.74652  0.50406  1.0000
  C   C440      1.0  0.22324  0.57593  0.63979  1.0000
  C   C441      1.0  0.19470  0.79138  0.51150  1.0000
  H   H428      1.0  0.25300  0.63924  0.67337  1.0000
  H   H429      1.0  0.15539  0.53020  0.70719  1.0000
  C   C442      1.0  0.28010  0.65067  0.64237  1.0000
  N   N37       1.0  0.25265  0.75729  0.56647  1.0000
  C   C443      1.0  0.25773  0.76845  0.57665  1.0000
  C   C444      1.0  0.26458  0.73953  0.56343  1.0000
  C   C445      1.0  0.27521  0.76192  0.58401  1.0000
  C   C446      1.0  0.28229  0.73266  0.57039  1.0000
  C   C447      1.0  0.28757  0.74395  0.58078  1.0000
  C   C448      1.0  0.23388  0.76381  0.55959  1.0000
  H   H430      1.0  0.24827  0.78251  0.57918  1.0000
  H   H431      1.0  0.26035  0.73054  0.55566  1.0000
  H   H432      1.0  0.27912  0.77079  0.59216  1.0000
  H   H433      1.0  0.29179  0.71860  0.56786  1.0000
  S   S144      1.0  0.23473  0.54965  0.72697  1.0000
  H   H434      1.0  0.23589  0.76148  0.54438  1.0000
  H   H435      1.0  0.22292  0.75530  0.56938  1.0000
  H   H436      1.0  0.22765  0.77981  0.55925  1.0000
  H   H437      1.0  0.25447  0.58840  0.57255  1.0000
  C   C449      1.0  0.30259  0.60141  0.66983  1.0000
  H   H438      1.0  0.31227  0.62185  0.64373  1.0000
  C   C450      1.0  0.25069  0.57340  0.61234  1.0000
  H   H439      1.0  0.21608  0.57016  0.65462  1.0000
  C   C451      1.0  0.31627  0.80436  0.60227  1.0000
  C   C452      1.0  0.16757  0.81162  0.49616  1.0000
  H   H440      1.0  0.31399  0.98644  0.51667  1.0000
  C   C453      1.0  0.31146  0.78586  0.54364  1.0000
  C   C454      1.0  0.14738  0.50336  0.72525  1.0000
  C   C455      1.0  0.32065  0.83095  0.57405  1.0000
  H   H441      1.0  0.12524  0.71438  0.51491  1.0000
  H   H442      1.0  0.30540  0.96510  0.53171  1.0000
  N   N38       1.0  0.29498  0.97559  0.50490  1.0000
  C   C456      1.0  0.28644  0.96029  0.50571  1.0000
  H   H443      1.0  0.32172  0.79383  0.61449  1.0000
  H   H444      1.0  0.32575  0.79287  0.56319  1.0000
  S   S145      1.0  0.32195  0.72989  0.63336  1.0000
  H   H445      1.0  0.32410  0.96274  0.50962  1.0000
  H   H446      1.0  0.16498  0.84308  0.49162  1.0000
  H   H447      1.0  0.26401  0.95105  0.49688  1.0000
  C   C457      1.0  0.32359  0.64821  0.52679  1.0000
  C   C458      1.0  0.27122  0.96309  0.49557  1.0000
  H   H448      1.0  0.28602  0.69596  0.48993  1.0000
  C   C459      1.0  0.32761  0.78937  0.54891  1.0000
  S   S146      1.0  0.20960  0.62940  0.49160  1.0000
  C   C460      1.0  0.32782  0.81733  0.58981  1.0000
  H   H449      1.0  0.23205  0.68555  0.49323  1.0000
  H   H450      1.0  0.29853  0.80357  0.49103  1.0000
  Fe  Fe72      1.0  0.25416  0.99133  0.54891  1.0000
  H   H451      1.0  0.32969  0.84084  0.56426  1.0000
  H   H452      1.0  0.21584  0.67231  0.48894  1.0000
  H   H453      1.0  0.32968  0.63250  0.53025  1.0000
  C   C461      1.0  0.32951  0.66138  0.53442  1.0000
  C   C462      1.0  0.17449  0.50992  0.79301  1.0000
  S   S147      1.0  0.29879  0.56594  0.87867  1.0000
  N   N39       1.0  0.16012  0.52020  0.78040  1.0000
  S   S148      1.0  0.22917  0.50516  0.75131  1.0000
  C   C463      1.0  0.26199  0.58675  0.80119  1.0000
  H   H454      1.0  0.17569  0.54329  0.76604  1.0000
  C   C464      1.0  0.12999  0.52227  0.77009  1.0000
  Fe  Fe73      1.0  0.22404  0.50769  0.90015  1.0000
  Fe  Fe74      1.0  0.24711  0.52667  0.75100  1.0000
  H   H455      1.0  0.17552  0.49367  0.79618  1.0000
  H   H456      1.0  0.11755  0.51584  0.77088  1.0000
  H   H457      1.0  0.26423  0.53342  0.81237  1.0000
  C   C465      1.0  0.26946  0.58879  0.83156  1.0000
  S   S149      1.0  0.21702  0.54074  0.89434  1.0000
  C   C466      1.0  0.14387  0.51274  0.78199  1.0000
  H   H458      1.0  0.27792  0.54671  0.74925  1.0000
  C   C467      1.0  0.28138  0.54627  0.76323  1.0000
  H   H459      1.0  0.26599  0.58798  0.78535  1.0000
  H   H460      1.0  0.31572  0.50769  0.81171  1.0000
  C   C468      1.0  0.27430  0.59118  0.81112  1.0000
  C   C469      1.0  0.30202  0.55336  0.78187  1.0000
  C   C470      1.0  0.24536  0.57926  0.81195  1.0000
  H   H461      1.0  0.22900  0.55178  0.84738  1.0000
  C   C471      1.0  0.29765  0.55354  0.76381  1.0000
  H   H462      1.0  0.12231  0.54693  0.74700  1.0000
  C   C472      1.0  0.25234  0.58193  0.84176  1.0000
  H   H463      1.0  0.30677  0.55949  0.75024  1.0000
  C   C473      1.0  0.29010  0.54577  0.79934  1.0000
  C   C474      1.0  0.16268  0.53749  0.76756  1.0000
  H   H464      1.0  0.23257  0.52746  0.97618  1.0000
  H   H465      1.0  0.29070  0.53449  0.91998  1.0000
  C   C475      1.0  0.27372  0.53874  0.79879  1.0000
  H   H466      1.0  0.24861  0.58026  0.85758  1.0000
  H   H467      1.0  0.16976  0.51494  0.80726  1.0000
  N   N40       1.0  0.24067  0.57705  0.83199  1.0000
  C   C476      1.0  0.23833  0.49861  0.96914  1.0000
  H   H468      1.0  0.18951  0.51261  0.78589  1.0000
  C   C477      1.0  0.27617  0.55877  0.88275  1.0000
  C   C478      1.0  0.27441  0.54367  0.87451  1.0000
  C   C479      1.0  0.25623  0.53812  0.87812  1.0000
  C   C480      1.0  0.23966  0.54782  0.88979  1.0000
  C   C481      1.0  0.24130  0.56307  0.89787  1.0000
  C   C482      1.0  0.25961  0.56835  0.89456  1.0000
  H   H469      1.0  0.28705  0.53595  0.86569  1.0000
  H   H470      1.0  0.25500  0.52633  0.87182  1.0000
  H   H471      1.0  0.22853  0.57050  0.90701  1.0000
  H   H472      1.0  0.26089  0.57998  0.90107  1.0000
  S   S150      1.0  0.24798  0.53145  0.78054  1.0000
  H   H473      1.0  0.21718  0.57377  0.85700  1.0000
  H   H474      1.0  0.29277  0.54632  0.81329  1.0000
  C   C483      1.0  0.13264  0.53973  0.75673  1.0000
  H   H475      1.0  0.27905  0.59186  0.83955  1.0000
  C   C484      1.0  0.14900  0.54750  0.75552  1.0000
  H   H476      1.0  0.21212  0.57121  0.83459  1.0000
  H   H477      1.0  0.28785  0.59592  0.80301  1.0000
  H   H478      1.0  0.18793  0.50828  0.98216  1.0000
  C   C485      1.0  0.26928  0.53909  0.78076  1.0000
  Fe  Fe75      1.0  0.32264  0.55568  0.85412  1.0000
  H   H479      1.0  0.31283  0.49403  0.87244  1.0000
  C   C486      1.0  0.23722  0.51172  0.98128  1.0000
  H   H480      1.0  0.16486  0.50532  0.84971  1.0000
  H   H481      1.0  0.23660  0.57468  0.80420  1.0000
  S   S151      1.0  0.25331  0.49371  0.90867  1.0000
  C   C487      1.0  0.22393  0.56806  0.84320  1.0000
  C   C488      1.0  0.30366  0.51112  0.90363  1.0000
  H   H482      1.0  0.23462  0.50425  0.95472  1.0000
  S   S152      1.0  0.32012  0.53482  0.83677  1.0000
  C   C489      1.0  0.29297  0.51882  0.92022  1.0000
  C   C490      1.0  0.18008  0.49930  0.74185  1.0000
  H   H483      1.0  0.29420  0.50686  0.83094  1.0000
  H   H484      1.0  0.19260  0.49771  0.74838  1.0000
  C   C491      1.0  0.28511  0.50622  0.93695  1.0000
  H   H485      1.0  0.30987  0.52099  0.89075  1.0000
  H   H486      1.0  0.14185  0.49907  0.79214  1.0000
  S   S153      1.0  0.32137  0.56412  0.78229  1.0000
  C   C492      1.0  0.30531  0.49819  0.82074  1.0000
  H   H487      1.0  0.15162  0.56068  0.74469  1.0000
  H   H488      1.0  0.27663  0.51199  0.94989  1.0000
  H   H489      1.0  0.60755  0.17724  0.12814  1.0000
  H   H490      1.0  0.56847  0.01737  0.17813  1.0000
  S   S154      1.0  0.57273  0.20672  0.11803  1.0000
  C   C493      1.0  0.61634  0.14755  0.00041  1.0000
  Fe  Fe76      1.0  0.57363  0.16549  0.06853  1.0000
  S   S155      1.0  0.56226  0.13855  0.08594  1.0000
  S   S156      1.0  0.57701  0.17492  0.03538  1.0000
  Fe  Fe77      1.0  0.57234  0.18065  0.10564  1.0000
  S   S157      1.0  0.56047  0.15508  0.12576  1.0000
  Fe  Fe78      1.0  0.58279  0.13687  0.10573  1.0000
  S   S158      1.0  0.60056  0.10800  0.11911  1.0000
  Fe  Fe79      1.0  0.54114  0.15914  0.10424  1.0000
  S   S159      1.0  0.50914  0.15789  0.11444  1.0000
  S   S160      1.0  0.59631  0.16225  0.08680  1.0000
  S   S161      1.0  0.55094  0.18630  0.08563  1.0000
  H   H491      1.0  0.33874  0.34537  0.14830  1.0000
  H   H492      1.0  0.64806  0.15891  0.22021  1.0000
  Fe  Fe80      1.0  0.55725  0.03955  0.20821  1.0000
  H   H493      1.0  0.63037  0.07881  0.19326  1.0000
  S   S162      1.0  0.54489  0.05610  0.18131  1.0000
  H   H494      1.0  0.51728  0.11225  0.05371  1.0000
  H   H495      1.0  0.46244  0.18044  0.17631  1.0000
  S   S163      1.0  0.60836  0.27726  0.20908  1.0000
  S   S164      1.0  0.60014  0.23531  0.20563  1.0000
  S   S165      1.0  0.58828  0.02211  0.20676  1.0000
  S   S166      1.0  0.56270  0.28319  0.18597  1.0000
  Fe  Fe81      1.0  0.45936  0.25100  0.14576  1.0000
  S   S167      1.0  0.47754  0.26794  0.15382  1.0000
  S   S168      1.0  0.46578  0.24617  0.11486  1.0000
  Fe  Fe82      1.0  0.43414  0.24508  0.18656  1.0000
  S   S169      1.0  0.45031  0.26106  0.19835  1.0000
  S   S170      1.0  0.40841  0.23323  0.20609  1.0000
  Fe  Fe83      1.0  0.44855  0.28280  0.16993  1.0000
  S   S171      1.0  0.43942  0.31524  0.17021  1.0000
  Fe  Fe84      1.0  0.47746  0.24454  0.18131  1.0000
  H   H496      1.0  0.56595  0.18480  0.99770  1.0000
  S   S172      1.0  0.43037  0.26796  0.15923  1.0000
  S   S173      1.0  0.46142  0.22644  0.17214  1.0000
  H   H497      1.0  0.65247  0.24156  0.10546  1.0000
  C   C494      1.0  0.60617  0.10858  0.16609  1.0000
  S   S174      1.0  0.34704  0.34007  0.19723  1.0000
  H   H498      1.0  0.36388  0.46465  0.14411  1.0000
  C   C495      1.0  0.44838  0.16959  0.23295  1.0000
  H   H499      1.0  0.61923  0.14022  0.01495  1.0000
  N   N41       1.0  0.43902  0.18171  0.20139  1.0000
  S   S175      1.0  0.34996  0.39639  0.17455  1.0000
  C   C496      1.0  0.34898  0.45065  0.19363  1.0000
  C   C497      1.0  0.41388  0.32216  0.17844  1.0000
  C   C498      1.0  0.40213  0.30803  0.18418  1.0000
  C   C499      1.0  0.38162  0.31374  0.18979  1.0000
  C   C500      1.0  0.37275  0.33357  0.18996  1.0000
  C   C501      1.0  0.38452  0.34766  0.18486  1.0000
  C   C502      1.0  0.40508  0.34197  0.17902  1.0000
  H   H500      1.0  0.40880  0.29264  0.18454  1.0000
  H   H501      1.0  0.37261  0.30273  0.19397  1.0000
  H   H502      1.0  0.37790  0.36286  0.18562  1.0000
  H   H503      1.0  0.41415  0.35291  0.17489  1.0000
  C   C503      1.0  0.54693  0.26781  0.18665  1.0000
  C   C504      1.0  0.55388  0.24742  0.18835  1.0000
  C   C505      1.0  0.54081  0.23510  0.19051  1.0000
  H   H504      1.0  0.52828  0.28649  0.12233  1.0000
  H   H505      1.0  0.37349  0.39640  0.12329  1.0000
  H   H506      1.0  0.49849  0.27004  0.18757  1.0000
  H   H507      1.0  0.56932  0.24112  0.18777  1.0000
  C   C506      1.0  0.57058  0.10017  0.18850  1.0000
  H   H508      1.0  0.60927  0.07005  0.14449  1.0000
  C   C507      1.0  0.61722  0.20611  0.15466  1.0000
  C   C508      1.0  0.58513  0.09271  0.13511  1.0000
  C   C509      1.0  0.59339  0.07485  0.14642  1.0000
  C   C510      1.0  0.58114  0.06342  0.16055  1.0000
  C   C511      1.0  0.56058  0.06965  0.16316  1.0000
  C   C512      1.0  0.55235  0.08712  0.15132  1.0000
  C   C513      1.0  0.56459  0.09871  0.13745  1.0000
  C   C514      1.0  0.58770  0.22184  0.14121  1.0000
  H   H509      1.0  0.58763  0.04980  0.16935  1.0000
  H   H510      1.0  0.53646  0.09193  0.15317  1.0000
  H   H511      1.0  0.55807  0.11237  0.12868  1.0000
  C   C515      1.0  0.49495  0.18195  0.11330  1.0000
  C   C516      1.0  0.49923  0.19684  0.09700  1.0000
  C   C517      1.0  0.48930  0.21646  0.09707  1.0000
  C   C518      1.0  0.47535  0.22128  0.11359  1.0000
  C   C519      1.0  0.47024  0.20626  0.12941  1.0000
  C   C520      1.0  0.47998  0.18656  0.12922  1.0000
  H   H512      1.0  0.51028  0.19332  0.08438  1.0000
  H   H513      1.0  0.49297  0.22801  0.08463  1.0000
  H   H514      1.0  0.45874  0.20983  0.14171  1.0000
  H   H515      1.0  0.47637  0.17496  0.14160  1.0000
  H   H516      1.0  0.57565  0.23441  0.13916  1.0000
  S   S176      1.0  0.64603  0.24052  0.19880  1.0000
  C   C521      1.0  0.56601  0.12929  0.01847  1.0000
  C   C522      1.0  0.57018  0.14063  0.02977  1.0000
  C   C523      1.0  0.57027  0.16065  0.02230  1.0000
  H   H517      1.0  0.64028  0.18482  0.21052  1.0000
  H   H518      1.0  0.61761  0.17625  0.00379  1.0000
  H   H519      1.0  0.56619  0.11375  0.02426  1.0000
  H   H520      1.0  0.57381  0.13373  0.04404  1.0000
  H   H521      1.0  0.47952  0.15868  0.23246  1.0000
  C   C524      1.0  0.58988  0.20576  0.13239  1.0000
  C   C525      1.0  0.41297  0.22457  0.22995  1.0000
  H   H522      1.0  0.55672  0.09632  0.19687  1.0000
  H   H523      1.0  0.42619  0.29414  0.22478  1.0000
  H   H524      1.0  0.51695  0.13266  0.02001  1.0000
  N   N42       1.0  0.52349  0.23234  0.12988  1.0000
  C   C526      1.0  0.51574  0.24636  0.11536  1.0000
  C   C527      1.0  0.53283  0.23740  0.14180  1.0000
  C   C528      1.0  0.51736  0.26602  0.11236  1.0000
  C   C529      1.0  0.52260  0.18777  0.03902  1.0000
  H   H525      1.0  0.36450  0.31436  0.14977  1.0000
  C   C530      1.0  0.52078  0.21204  0.13330  1.0000
  H   H526      1.0  0.50809  0.24243  0.10610  1.0000
  H   H527      1.0  0.53887  0.22630  0.15338  1.0000
  H   H528      1.0  0.51090  0.27708  0.10100  1.0000
  H   H529      1.0  0.50570  0.21102  0.14185  1.0000
  H   H530      1.0  0.52285  0.20742  0.11911  1.0000
  H   H531      1.0  0.53183  0.20141  0.14141  1.0000
  N   N43       1.0  0.60590  0.09098  0.17914  1.0000
  C   C531      1.0  0.51807  0.12770  0.05075  1.0000
  C   C532      1.0  0.51772  0.13918  0.03190  1.0000
  C   C533      1.0  0.36873  0.32859  0.14490  1.0000
  C   C534      1.0  0.63773  0.30736  0.22848  1.0000
  H   H532      1.0  0.65101  0.27393  0.11670  1.0000
  H   H533      1.0  0.40930  0.34870  0.13188  1.0000
  C   C535      1.0  0.56148  0.15802  0.99236  1.0000
  Fe  Fe85      1.0  0.63509  0.27224  0.18524  1.0000
  C   C536      1.0  0.54849  0.00576  0.16843  1.0000
  S   S177      1.0  0.54321  0.01620  0.23028  1.0000
  Fe  Fe86      1.0  0.57448  0.99957  0.23043  1.0000
  C   C537      1.0  0.35304  0.45006  0.17360  1.0000
  S   S178      1.0  0.65273  0.29621  0.17305  1.0000
  C   C538      1.0  0.35428  0.34598  0.14409  1.0000
  H   H534      1.0  0.39884  0.38433  0.11736  1.0000
  C   C539      1.0  0.46816  0.16521  0.22372  1.0000
  C   C540      1.0  0.62441  0.07658  0.18124  1.0000
  C   C541      1.0  0.61546  0.16781  0.99412  1.0000
  S   S179      1.0  0.61884  0.26475  0.16581  1.0000
  H   H535      1.0  0.63350  0.24095  0.12761  1.0000
  H   H536      1.0  0.34995  0.46667  0.21504  1.0000
  C   C542      1.0  0.60118  0.22196  0.15243  1.0000
  C   C543      1.0  0.52696  0.27597  0.18621  1.0000
  C   C544      1.0  0.56585  0.16932  0.00358  1.0000
  H   H537      1.0  0.51977  0.12750  0.08053  1.0000
  C   C545      1.0  0.35282  0.46623  0.19960  1.0000
  C   C546      1.0  0.60569  0.18966  0.13497  1.0000
  H   H538      1.0  0.34998  0.43816  0.16887  1.0000
  N   N44       1.0  0.37953  0.36508  0.13378  1.0000
  C   C547      1.0  0.52085  0.24324  0.19026  1.0000
  C   C548      1.0  0.51393  0.26369  0.18787  1.0000
  H   H539      1.0  0.64306  0.33652  0.21579  1.0000
  C   C549      1.0  0.43389  0.17790  0.22150  1.0000
  C   C550      1.0  0.45839  0.17740  0.19224  1.0000
  H   H540      1.0  0.50799  0.19700  0.04406  1.0000
  C   C551      1.0  0.41038  0.29489  0.22907  1.0000
  N   N45       1.0  0.61679  0.16964  0.22225  1.0000
  H   H541      1.0  0.52240  0.16237  0.07317  1.0000
  H   H542      1.0  0.60494  0.19205  0.19983  1.0000
  C   C552      1.0  0.51960  0.13616  0.06572  1.0000
  H   H543      1.0  0.51913  0.16770  0.01349  1.0000
  C   C553      1.0  0.58202  0.18212  0.22311  1.0000
  H   H544      1.0  0.58886  0.13590  0.15286  1.0000
  C   C554      1.0  0.38525  0.38426  0.12896  1.0000
  C   C555      1.0  0.58859  0.12236  0.16383  1.0000
  C   C556      1.0  0.47325  0.16917  0.20324  1.0000
  C   C557      1.0  0.35997  0.36420  0.13840  1.0000
  C   C558      1.0  0.38864  0.32960  0.14010  1.0000
  S   S180      1.0  0.61168  0.05326  0.22982  1.0000
  C   C559      1.0  0.64952  0.23625  0.12166  1.0000
  H   H545      1.0  0.59931  0.23453  0.15902  1.0000
  H   H546      1.0  0.61226  0.12140  0.99346  1.0000
  H   H547      1.0  0.63557  0.07783  0.16733  1.0000
  C   C560      1.0  0.39380  0.34808  0.13477  1.0000
  C   C561      1.0  0.60172  0.18209  0.21384  1.0000
  C   C562      1.0  0.53489  0.25689  0.13911  1.0000
  Fe  Fe87      1.0  0.59304  0.26710  0.19091  1.0000
  C   C563      1.0  0.56170  0.13792  0.99973  1.0000
  H   H548      1.0  0.55686  0.12810  0.17262  1.0000
  C   C564      1.0  0.61941  0.18990  0.14600  1.0000
  H   H549      1.0  0.65311  0.21981  0.12461  1.0000
  C   C565      1.0  0.36403  0.48099  0.16554  1.0000
  N   N46       1.0  0.52113  0.16702  0.04292  1.0000
  H   H550      1.0  0.63183  0.17761  0.14763  1.0000
  H   H551      1.0  0.41858  0.18154  0.22883  1.0000
  H   H552      1.0  0.53352  0.18948  0.04685  1.0000
  Fe  Fe88      1.0  0.58866  0.03628  0.23125  1.0000
  Fe  Fe89      1.0  0.61801  0.24509  0.22138  1.0000
  S   S181      1.0  0.50487  0.22766  0.19258  1.0000
  C   C566      1.0  0.52108  0.15596  0.06151  1.0000
  H   H553      1.0  0.54242  0.26080  0.14851  1.0000
  H   H554      1.0  0.62194  0.06121  0.18503  1.0000
  H   H555      1.0  0.52153  0.29177  0.18475  1.0000
  H   H556      1.0  0.52792  0.19335  0.02313  1.0000
  S   S182      1.0  0.63493  0.20678  0.16768  1.0000
  H   H557      1.0  0.40001  0.31617  0.14122  1.0000
  H   H558      1.0  0.57014  0.19203  0.21635  1.0000
  H   H559      1.0  0.34863  0.37764  0.13788  1.0000
  S   S183      1.0  0.55859  0.05553  0.23078  1.0000
  C   C567      1.0  0.51911  0.15899  0.02826  1.0000
  H   H560      1.0  0.48861  0.16588  0.19595  1.0000
  C   C568      1.0  0.57067  0.11797  0.17492  1.0000
  H   H561      1.0  0.61990  0.11175  0.15675  1.0000
  H   H562      1.0  0.44457  0.22140  0.22101  1.0000
  C   C569      1.0  0.52702  0.27128  0.12434  1.0000
  C   C570      1.0  0.36092  0.46505  0.15957  1.0000
  Fe  Fe90      1.0  0.62703  0.23344  0.18178  1.0000
  C   C571      1.0  0.56579  0.00448  0.17474  1.0000
  N   N47       1.0  0.66105  0.24422  0.13093  1.0000
  C   C572      1.0  0.58848  0.08689  0.19059  1.0000
  H   H563      1.0  0.54626  0.21932  0.19191  1.0000
  H   H564      1.0  0.58831  0.07293  0.20087  1.0000
  H   H565      1.0  0.41272  0.26427  0.22884  1.0000
  H   H566      1.0  0.38791  0.38750  0.14235  1.0000
  C   C573      1.0  0.64648  0.32327  0.22675  1.0000
  H   H567      1.0  0.52014  0.25985  0.22844  1.0000
  C   C574      1.0  0.36000  0.48156  0.18554  1.0000
  H   H568      1.0  0.50721  0.23131  0.23444  1.0000
  H   H569      1.0  0.63973  0.16677  0.19715  1.0000
  H   H570      1.0  0.53775  0.01967  0.16707  1.0000
  C   C575      1.0  0.34452  0.49025  0.10752  1.0000
  H   H571      1.0  0.62784  0.30827  0.21883  1.0000
  C   C576      1.0  0.63724  0.16997  0.21208  1.0000
  H   H572      1.0  0.40894  0.19436  0.19848  1.0000
  C   C577      1.0  0.66010  0.26415  0.12677  1.0000
  C   C578      1.0  0.40284  0.27816  0.23117  1.0000
  S   S184      1.0  0.33833  0.43248  0.21122  1.0000
  Fe  Fe91      1.0  0.33333  0.37243  0.19009  1.0000
  C   C579      1.0  0.42382  0.19009  0.18937  1.0000
  H   H573      1.0  0.42319  0.17923  0.18098  1.0000
  H   H574      1.0  0.35562  0.47615  0.10757  1.0000
  H   H575      1.0  0.54694  0.27589  0.22830  1.0000
  H   H576      1.0  0.42714  0.20377  0.17894  1.0000
  C   C580      1.0  0.43227  0.22009  0.23325  1.0000
  H   H577      1.0  0.64781  0.21078  0.23291  1.0000
  C   C581      1.0  0.53196  0.25152  0.23610  1.0000
  H   H578      1.0  0.36884  0.34521  0.22864  1.0000
  H   H579      1.0  0.40331  0.32577  0.22984  1.0000
  C   C582      1.0  0.39736  0.31274  0.23189  1.0000
  C   C583      1.0  0.54705  0.26071  0.23604  1.0000
  S   S185      1.0  0.33278  0.41918  0.12446  1.0000
  C   C584      1.0  0.61242  0.13700  0.98837  1.0000
  C   C585      1.0  0.38247  0.27946  0.23593  1.0000
  H   H580      1.0  0.37656  0.26656  0.23721  1.0000
  N   N48       1.0  0.37738  0.31390  0.23659  1.0000
  C   C586      1.0  0.56012  0.06725  0.28181  1.0000
  S   S186      1.0  0.61157  0.11747  0.30208  1.0000
  Fe  Fe92      1.0  0.60569  0.12545  0.33159  1.0000
  S   S187      1.0  0.57620  0.14052  0.34624  1.0000
  S   S188      1.0  0.61810  0.09509  0.34667  1.0000
  Fe  Fe93      1.0  0.46827  0.14739  0.32522  1.0000
  S   S189      1.0  0.47076  0.17920  0.31619  1.0000
  S   S190      1.0  0.46326  0.13110  0.35674  1.0000
  Fe  Fe94      1.0  0.47374  0.14245  0.28324  1.0000
  S   S191      1.0  0.47620  0.17385  0.27048  1.0000
  S   S192      1.0  0.47447  0.12324  0.26265  1.0000
  Fe  Fe95      1.0  0.49551  0.16901  0.29224  1.0000
  S   S193      1.0  0.52469  0.17835  0.28131  1.0000
  Fe  Fe96      1.0  0.45129  0.18110  0.29528  1.0000
  S   S194      1.0  0.42385  0.20449  0.29254  1.0000
  S   S195      1.0  0.49502  0.13686  0.30323  1.0000
  S   S196      1.0  0.44697  0.15002  0.30600  1.0000
  Fe  Fe97      1.0  0.36256  0.12552  0.42644  1.0000
  C   C587      1.0  0.39716  0.22261  0.24581  1.0000
  S   S197      1.0  0.37295  0.13459  0.39376  1.0000
  H   H581      1.0  0.33732  0.19784  0.39632  1.0000
  H   H582      1.0  0.39055  0.11982  0.32462  1.0000
  H   H583      1.0  0.39595  0.16977  0.40586  1.0000
  C   C588      1.0  0.54842  0.09862  0.29345  1.0000
  H   H584      1.0  0.53995  0.12597  0.30413  1.0000
  C   C589      1.0  0.64272  0.16817  0.26591  1.0000
  H   H585      1.0  0.34716  0.18676  0.46543  1.0000
  N   N49       1.0  0.55927  0.07965  0.29561  1.0000
  C   C590      1.0  0.39803  0.13533  0.38502  1.0000
  C   C591      1.0  0.41251  0.12370  0.39551  1.0000
  C   C592      1.0  0.43261  0.12308  0.38711  1.0000
  C   C593      1.0  0.43821  0.13421  0.36830  1.0000
  C   C594      1.0  0.42365  0.14660  0.35833  1.0000
  C   C595      1.0  0.40364  0.14699  0.36656  1.0000
  H   H586      1.0  0.40830  0.11458  0.40972  1.0000
  H   H587      1.0  0.44382  0.11354  0.39494  1.0000
  H   H588      1.0  0.42777  0.15571  0.34413  1.0000
  H   H589      1.0  0.39250  0.15610  0.35840  1.0000
  C   C596      1.0  0.41989  0.21200  0.26840  1.0000
  C   C597      1.0  0.40060  0.21661  0.26505  1.0000
  H   H590      1.0  0.58001  0.07872  0.33355  1.0000
  H   H591      1.0  0.57436  0.22232  0.26308  1.0000
  C   C598      1.0  0.42126  0.11081  0.31157  1.0000
  C   C599      1.0  0.43574  0.21364  0.25249  1.0000
  H   H592      1.0  0.38833  0.21535  0.27736  1.0000
  H   H593      1.0  0.54747  0.07259  0.27411  1.0000
  C   C600      1.0  0.57780  0.16925  0.24107  1.0000
  H   H594      1.0  0.45062  0.21047  0.25503  1.0000
  C   C601      1.0  0.56166  0.15273  0.32867  1.0000
  C   C602      1.0  0.54124  0.15395  0.33355  1.0000
  C   C603      1.0  0.52976  0.16208  0.31905  1.0000
  C   C604      1.0  0.53864  0.16950  0.29982  1.0000
  C   C605      1.0  0.55894  0.16904  0.29516  1.0000
  C   C606      1.0  0.57052  0.16030  0.30949  1.0000
  H   H595      1.0  0.53437  0.14808  0.34840  1.0000
  H   H596      1.0  0.51405  0.16252  0.32279  1.0000
  H   H597      1.0  0.56581  0.17517  0.28050  1.0000
  H   H598      1.0  0.58627  0.15956  0.30576  1.0000
  C   C607      1.0  0.62093  0.07104  0.25509  1.0000
  C   C608      1.0  0.61106  0.03976  0.26936  1.0000
  C   C609      1.0  0.61336  0.04118  0.28780  1.0000
  H   H599      1.0  0.60670  0.02695  0.26779  1.0000
  H   H600      1.0  0.61060  0.02948  0.30040  1.0000
  C   C610      1.0  0.51211  0.06116  0.27560  1.0000
  C   C611      1.0  0.50544  0.07249  0.29023  1.0000
  C   C612      1.0  0.49428  0.09177  0.28616  1.0000
  C   C613      1.0  0.48922  0.09950  0.26767  1.0000
  C   C614      1.0  0.36740  0.18375  0.39868  1.0000
  C   C615      1.0  0.50742  0.06904  0.25699  1.0000
  H   H601      1.0  0.50922  0.06645  0.30458  1.0000
  Fe  Fe98      1.0  0.64072  0.12568  0.29829  1.0000
  C   C616      1.0  0.62488  0.20847  0.25877  1.0000
  H   H602      1.0  0.57904  0.05752  0.31162  1.0000
  Fe  Fe99      1.0  0.54786  0.03048  0.25285  1.0000
  H   H603      1.0  0.60216  0.15786  0.35764  1.0000
  C   C617      1.0  0.65053  0.18096  0.24929  1.0000
  C   C618      1.0  0.63184  0.14451  0.39058  1.0000
  S   S198      1.0  0.33988  0.11856  0.48219  1.0000
  N   N50       1.0  0.44350  0.09769  0.33418  1.0000
  H   H604      1.0  0.56020  0.11308  0.33011  1.0000
  H   H605      1.0  0.61686  0.18736  0.34855  1.0000
  Fe  Fe100     1.0  0.62667  0.08781  0.31664  1.0000
  H   H606      1.0  0.57398  0.06721  0.27059  1.0000
  C   C619      1.0  0.61276  0.15871  0.36575  1.0000
  N   N51       1.0  0.35796  0.19486  0.43497  1.0000
  C   C620      1.0  0.64005  0.16126  0.38606  1.0000
  S   S199      1.0  0.62041  0.05954  0.31368  1.0000
  C   C621      1.0  0.61909  0.05768  0.29004  1.0000
  S   S200      1.0  0.61348  0.23356  0.25391  1.0000
  H   H607      1.0  0.56257  0.16904  0.24845  1.0000
  C   C622      1.0  0.38147  0.17863  0.41054  1.0000
  H   H608      1.0  0.47228  0.10211  0.33146  1.0000
  C   C623      1.0  0.61718  0.19574  0.27560  1.0000
  H   H609      1.0  0.60430  0.20143  0.28583  1.0000
  H   H610      1.0  0.47110  0.07737  0.33039  1.0000
  C   C624      1.0  0.63475  0.17673  0.37080  1.0000
  C   C625      1.0  0.62099  0.17551  0.36058  1.0000
  C   C626      1.0  0.44033  0.10285  0.31532  1.0000
  H   H611      1.0  0.41893  0.11523  0.29655  1.0000
  C   C627      1.0  0.42800  0.10000  0.34967  1.0000
  H   H612      1.0  0.38720  0.17953  0.43831  1.0000
  N   N52       1.0  0.61833  0.14344  0.38051  1.0000
  H   H613      1.0  0.66000  0.27524  0.26420  1.0000
  S   S201      1.0  0.57811  0.01202  0.25498  1.0000
  C   C628      1.0  0.61050  0.12542  0.38518  1.0000
  C   C629      1.0  0.36410  0.33266  0.24002  1.0000
  H   H614      1.0  0.43047  0.09619  0.36463  1.0000
  H   H615      1.0  0.49183  0.09399  0.23881  1.0000
  C   C630      1.0  0.34399  0.19977  0.42352  1.0000
  S   S202      1.0  0.65654  0.09522  0.31065  1.0000
  C   C631      1.0  0.54716  0.22188  0.25518  1.0000
  H   H616      1.0  0.52264  0.20785  0.24170  1.0000
  H   H617      1.0  0.45261  0.10121  0.30298  1.0000
  S   S203      1.0  0.34702  0.15081  0.44138  1.0000
  H   H618      1.0  0.60533  0.12105  0.40129  1.0000
  C   C632      1.0  0.64245  0.29003  0.24216  1.0000
  H   H619      1.0  0.62470  0.14717  0.24665  1.0000
  S   S204      1.0  0.63342  0.13654  0.32659  1.0000
  H   H620      1.0  0.40161  0.10928  0.48133  1.0000
  H   H621      1.0  0.59777  0.12740  0.37805  1.0000
  S   S205      1.0  0.38102  0.11027  0.44932  1.0000
  Fe  Fe101     1.0  0.64661  0.10535  0.33951  1.0000
  C   C633      1.0  0.62601  0.17554  0.27908  1.0000
  H   H622      1.0  0.39652  0.10998  0.35882  1.0000
  H   H623      1.0  0.57432  0.25703  0.24565  1.0000
  C   C634      1.0  0.55984  0.10373  0.32044  1.0000
  C   C635      1.0  0.61487  0.05467  0.25296  1.0000
  H   H624      1.0  0.55963  0.05178  0.28964  1.0000
  S   S206      1.0  0.33832  0.10862  0.43986  1.0000
  N   N53       1.0  0.53231  0.23224  0.24537  1.0000
  C   C636      1.0  0.62285  0.07266  0.27366  1.0000
  Fe  Fe102     1.0  0.35531  0.09557  0.46418  1.0000
  C   C637      1.0  0.40873  0.10782  0.34648  1.0000
  C   C638      1.0  0.54851  0.11093  0.30585  1.0000
  C   C639      1.0  0.57083  0.08440  0.32251  1.0000
  H   H625      1.0  0.53963  0.10434  0.28209  1.0000
  S   S207      1.0  0.52705  0.03756  0.28046  1.0000
  H   H626      1.0  0.62222  0.11319  0.37997  1.0000
  H   H627      1.0  0.46422  0.08555  0.35348  1.0000
  C   C640      1.0  0.40539  0.11338  0.32728  1.0000
  Fe  Fe103     1.0  0.36368  0.13461  0.46521  1.0000
  H   H628      1.0  0.48934  0.10051  0.29739  1.0000
  H   H629      1.0  0.61989  0.16568  0.29190  1.0000
  C   C641      1.0  0.57032  0.07249  0.30995  1.0000
  H   H630      1.0  0.44433  0.16664  0.24890  1.0000
  H   H631      1.0  0.63665  0.13218  0.40191  1.0000
  C   C642      1.0  0.56249  0.23060  0.25541  1.0000
  C   C643      1.0  0.51642  0.22269  0.24544  1.0000
  C   C644      1.0  0.46376  0.09022  0.33755  1.0000
  H   H632      1.0  0.62741  0.08537  0.27528  1.0000
  S   S208      1.0  0.37709  0.15280  0.47757  1.0000
  H   H633      1.0  0.64153  0.18950  0.36677  1.0000
  H   H634      1.0  0.36542  0.20168  0.45921  1.0000
  H   H635      1.0  0.54717  0.20681  0.26298  1.0000
  H   H636      1.0  0.51252  0.06031  0.24565  1.0000
  C   C645      1.0  0.65587  0.28880  0.25386  1.0000
  H   H637      1.0  0.50675  0.22084  0.26027  1.0000
  H   H638      1.0  0.34069  0.21292  0.45551  1.0000
  C   C646      1.0  0.56243  0.25014  0.24570  1.0000
  C   C647      1.0  0.59328  0.15666  0.24959  1.0000
  H   H639      1.0  0.59025  0.14671  0.26366  1.0000
  C   C648      1.0  0.64152  0.20102  0.24564  1.0000
  S   S209      1.0  0.35617  0.06479  0.48188  1.0000
  C   C649      1.0  0.34853  0.19438  0.40517  1.0000
  H   H640      1.0  0.63606  0.27743  0.24339  1.0000
  H   H641      1.0  0.62400  0.08256  0.24242  1.0000
  C   C650      1.0  0.49573  0.08809  0.25313  1.0000
  H   H642      1.0  0.33206  0.06875  0.45372  1.0000
  H   H643      1.0  0.38223  0.22605  0.24327  1.0000
  H   H644      1.0  0.65096  0.16199  0.39391  1.0000
  C   C651      1.0  0.35252  0.19937  0.45472  1.0000
  C   C652      1.0  0.37644  0.18426  0.42880  1.0000
  H   H645      1.0  0.65773  0.35011  0.24414  1.0000
  S   S210      1.0  0.65356  0.14293  0.26933  1.0000
  C   C653      1.0  0.61280  0.15704  0.23991  1.0000
  C   C654      1.0  0.36986  0.29755  0.23869  1.0000
  H   H646      1.0  0.37093  0.17891  0.38477  1.0000
  H   H647      1.0  0.35402  0.29851  0.24213  1.0000
  C   C655      1.0  0.33341  0.05837  0.48437  1.0000
  H   H648      1.0  0.36397  0.33494  0.25481  1.0000
  H   H649      1.0  0.34873  0.33307  0.23892  1.0000
  N   N54       1.0  0.65968  0.32191  0.23822  1.0000
  H   H650      1.0  0.35404  0.06873  0.52486  1.0000
  S   S211      1.0  0.58997  0.20429  0.70439  1.0000
  H   H651      1.0  0.42076  0.11521  0.66601  1.0000
  H   H652      1.0  0.49858  0.20059  0.70092  1.0000
  S   S212      1.0  0.59178  0.17201  0.67785  1.0000
  H   H653      1.0  0.37487  0.08289  0.55075  1.0000
  Fe  Fe104     1.0  0.61342  0.18451  0.68650  1.0000
  S   S213      1.0  0.63587  0.19928  0.66352  1.0000
  Fe  Fe105     1.0  0.56886  0.18963  0.69790  1.0000
  H   H654      1.0  0.37663  0.05261  0.51574  1.0000
  S   S214      1.0  0.61889  0.15976  0.71236  1.0000
  C   C656      1.0  0.53371  0.23479  0.73242  1.0000
  S   S215      1.0  0.49837  0.15575  0.65933  1.0000
  S   S216      1.0  0.38386  0.10084  0.62391  1.0000
  N   N55       1.0  0.37988  0.07963  0.52099  1.0000
  S   S217      1.0  0.35802  0.11615  0.57804  1.0000
  Fe  Fe106     1.0  0.59362  0.17858  0.72947  1.0000
  H   H655      1.0  0.55176  0.12991  0.73143  1.0000
  Fe  Fe107     1.0  0.45571  0.11729  0.71203  1.0000
  C   C657      1.0  0.51761  0.10757  0.71320  1.0000
  H   H656      1.0  0.54646  0.14174  0.69733  1.0000
  C   C658      1.0  0.36375  0.17505  0.50601  1.0000
  H   H657      1.0  0.35375  0.13005  0.51024  1.0000
  C   C659      1.0  0.35353  0.14379  0.51401  1.0000
  Fe  Fe108     1.0  0.33195  0.14088  0.58319  1.0000
  H   H658      1.0  0.38591  0.08027  0.49018  1.0000
  H   H659      1.0  0.54870  0.23614  0.73293  1.0000
  C   C660      1.0  0.36372  0.15752  0.50068  1.0000
  C   C661      1.0  0.53906  0.13042  0.70714  1.0000
  C   C662      1.0  0.39608  0.10328  0.49661  1.0000
  H   H660      1.0  0.33611  0.13661  0.54308  1.0000
  Fe  Fe109     1.0  0.59498  0.14901  0.70534  1.0000
  S   S218      1.0  0.59279  0.11787  0.70714  1.0000
  C   C663      1.0  0.45766  0.16719  0.63445  1.0000
  C   C664      1.0  0.38094  0.08842  0.53550  1.0000
  H   H661      1.0  0.39018  0.11199  0.54237  1.0000
  C   C665      1.0  0.38186  0.14704  0.64821  1.0000
  C   C666      1.0  0.37791  0.13539  0.63711  1.0000
  C   C667      1.0  0.38930  0.11638  0.63652  1.0000
  H   H662      1.0  0.36595  0.14109  0.62915  1.0000
  H   H663      1.0  0.37289  0.16171  0.64869  1.0000
  S   S219      1.0  0.47224  0.13984  0.71241  1.0000
  S   S220      1.0  0.42561  0.13616  0.71968  1.0000
  C   C668      1.0  0.33467  0.12435  0.67741  1.0000
  C   C669      1.0  0.58516  0.08655  0.73684  1.0000
  S   S221      1.0  0.45682  0.12525  0.67943  1.0000
  H   H664      1.0  0.52425  0.12753  0.68554  1.0000
  S   S222      1.0  0.53857  0.20575  0.69303  1.0000
  S   S223      1.0  0.33711  0.07560  0.56677  1.0000
  H   H665      1.0  0.37174  0.18564  0.49587  1.0000
  H   H666      1.0  0.50743  0.21720  0.72711  1.0000
  H   H667      1.0  0.62424  0.17297  0.63590  1.0000
  C   C670      1.0  0.42839  0.16462  0.62614  1.0000
  C   C671      1.0  0.52751  0.19174  0.68370  1.0000
  C   C672      1.0  0.53868  0.18049  0.66975  1.0000
  C   C673      1.0  0.52962  0.16971  0.66204  1.0000
  C   C674      1.0  0.50946  0.16974  0.66864  1.0000
  C   C675      1.0  0.49836  0.18067  0.68288  1.0000
  C   C676      1.0  0.50731  0.19189  0.69018  1.0000
  H   H668      1.0  0.55421  0.18051  0.66451  1.0000
  H   H669      1.0  0.53826  0.16125  0.65106  1.0000
  H   H670      1.0  0.46558  0.17508  0.63991  1.0000
  S   S224      1.0  0.40169  0.15510  0.67224  1.0000
  H   H671      1.0  0.64972  0.14583  0.62353  1.0000
  C   C677      1.0  0.36026  0.09507  0.67444  1.0000
  C   C678      1.0  0.39729  0.11227  0.51130  1.0000
  N   N56       1.0  0.43837  0.17478  0.63277  1.0000
  Fe  Fe110     1.0  0.35639  0.11075  0.61058  1.0000
  S   S225      1.0  0.44243  0.17141  0.68545  1.0000
  Fe  Fe111     1.0  0.42809  0.14640  0.68700  1.0000
  H   H672      1.0  0.48262  0.14283  0.63123  1.0000
  S   S226      1.0  0.33610  0.08968  0.61707  1.0000
  H   H673      1.0  0.41374  0.09450  0.64643  1.0000
  C   C679      1.0  0.64878  0.16085  0.61516  1.0000
  C   C680      1.0  0.40487  0.10922  0.64685  1.0000
  C   C681      1.0  0.46742  0.14891  0.62951  1.0000
  C   C682      1.0  0.43768  0.14628  0.62112  1.0000
  C   C683      1.0  0.38715  0.08696  0.50172  1.0000
  H   H674      1.0  0.43805  0.20121  0.64201  1.0000
  H   H675      1.0  0.48278  0.18078  0.68805  1.0000
  C   C684      1.0  0.36984  0.06305  0.52593  1.0000
  H   H676      1.0  0.36488  0.06942  0.64767  1.0000
  H   H677      1.0  0.41650  0.19074  0.65223  1.0000
  C   C685      1.0  0.40883  0.12088  0.65798  1.0000
  C   C686      1.0  0.39724  0.13980  0.65874  1.0000
  H   H678      1.0  0.46455  0.12397  0.61947  1.0000
  C   C687      1.0  0.35348  0.17892  0.52451  1.0000
  C   C688      1.0  0.38968  0.10483  0.53088  1.0000
  H   H679      1.0  0.64690  0.21480  0.58733  1.0000
  H   H680      1.0  0.37053  0.05457  0.54113  1.0000
  S   S227      1.0  0.33193  0.13706  0.61540  1.0000
  H   H681      1.0  0.59609  0.26508  0.72192  1.0000
  C   C689      1.0  0.45729  0.13836  0.62292  1.0000
  C   C690      1.0  0.52673  0.12234  0.70050  1.0000
  H   H682      1.0  0.42948  0.13805  0.61640  1.0000
  H   H683      1.0  0.50784  0.10125  0.70828  1.0000
  Fe  Fe112     1.0  0.44232  0.15944  0.71752  1.0000
  H   H684      1.0  0.42058  0.20360  0.62687  1.0000
  Fe  Fe113     1.0  0.47089  0.14945  0.68059  1.0000
  C   C691      1.0  0.35371  0.11381  0.67923  1.0000
  C   C692      1.0  0.64717  0.19964  0.59511  1.0000
  H   H685      1.0  0.41293  0.17037  0.62537  1.0000
  H   H686      1.0  0.35358  0.19248  0.52857  1.0000
  H   H687      1.0  0.53281  0.23750  0.71665  1.0000
  H   H688      1.0  0.62689  0.22114  0.62410  1.0000
  C   C693      1.0  0.54199  0.12367  0.72650  1.0000
  C   C694      1.0  0.42792  0.19354  0.63872  1.0000
  C   C695      1.0  0.63439  0.17630  0.62207  1.0000
  C   C696      1.0  0.34370  0.16498  0.53801  1.0000
  H   H689      1.0  0.36453  0.05728  0.67310  1.0000
  H   H690      1.0  0.64482  0.21846  0.73563  1.0000
  H   H691      1.0  0.34331  0.06073  0.66251  1.0000
  H   H692      1.0  0.37536  0.08732  0.67508  1.0000
  H   H693      1.0  0.65200  0.15691  0.67099  1.0000
  Fe  Fe114     1.0  0.33522  0.09767  0.58505  1.0000
  H   H694      1.0  0.36358  0.12036  0.68371  1.0000
  S   S228      1.0  0.57030  0.16571  0.72465  1.0000
  C   C697      1.0  0.66147  0.16395  0.65838  1.0000
  C   C698      1.0  0.34373  0.14740  0.53274  1.0000
  C   C699      1.0  0.35553  0.06761  0.66267  1.0000
  S   S229      1.0  0.46518  0.08615  0.72786  1.0000
  C   C700      1.0  0.65719  0.18448  0.65214  1.0000
  H   H695      1.0  0.58070  0.08119  0.72613  1.0000
  N   N57       1.0  0.34805  0.08692  0.66837  1.0000
  N   N58       1.0  0.63377  0.19541  0.61208  1.0000
  H   H696      1.0  0.40356  0.12536  0.50742  1.0000
  H   H697      1.0  0.61046  0.22066  0.60861  1.0000
  C   C701      1.0  0.59197  0.10424  0.73129  1.0000
  C   C702      1.0  0.61921  0.21165  0.61981  1.0000
  H   H698      1.0  0.60879  0.20618  0.63324  1.0000
  H   H699      1.0  0.62361  0.19720  0.73262  1.0000
  H   H700      1.0  0.61497  0.25865  0.73627  1.0000
  H   H701      1.0  0.33058  0.04652  0.51545  1.0000
  H   H702      1.0  0.65354  0.21295  0.48942  1.0000
  C   C703      1.0  0.52096  0.10112  0.73243  1.0000
  H   H703      1.0  0.65979  0.22367  0.51720  1.0000
  C   C704      1.0  0.66175  0.18456  0.58777  1.0000
  C   C705      1.0  0.59884  0.26050  0.73716  1.0000
  C   C706      1.0  0.66260  0.16506  0.59796  1.0000
  S   S230      1.0  0.33165  0.16962  0.56143  1.0000
  H   H704      1.0  0.66299  0.15771  0.50826  1.0000
  Fe  Fe115     1.0  0.64225  0.23419  0.83862  1.0000
  S   S231      1.0  0.62757  0.26418  0.84555  1.0000
  S   S232      1.0  0.64854  0.20528  0.85949  1.0000
  Fe  Fe116     1.0  0.63873  0.24691  0.79570  1.0000
  S   S233      1.0  0.62435  0.27802  0.79865  1.0000
  C   C707      1.0  0.53698  0.18543  0.76654  1.0000
  H   H705      1.0  0.46065  0.11696  0.74869  1.0000
  C   C708      1.0  0.39963  0.44013  0.80518  1.0000
  Fe  Fe117     1.0  0.60660  0.26447  0.82678  1.0000
  S   S234      1.0  0.57355  0.27387  0.83406  1.0000
  H   H706      1.0  0.39989  0.13068  0.77988  1.0000
  S   S235      1.0  0.61945  0.23351  0.82268  1.0000
  H   H707      1.0  0.59145  0.30230  0.77956  1.0000
  H   H708      1.0  0.63520  0.16486  0.77541  1.0000
  H   H709      1.0  0.62087  0.06932  0.81572  1.0000
  C   C709      1.0  0.51200  0.18970  0.74768  1.0000
  H   H710      1.0  0.42805  0.17461  0.80647  1.0000
  C   C710      1.0  0.59289  0.03811  0.86493  1.0000
  C   C711      1.0  0.53289  0.23334  0.86572  1.0000
  S   S236      1.0  0.35475  0.39665  0.81615  1.0000
  S   S237      1.0  0.37252  0.39307  0.77001  1.0000
  C   C712      1.0  0.62055  0.20334  0.74570  1.0000
  N   N59       1.0  0.42388  0.13734  0.78757  1.0000
  Fe  Fe118     1.0  0.48099  0.20800  0.80405  1.0000
  S   S238      1.0  0.45487  0.22521  0.82181  1.0000
  S   S239      1.0  0.48341  0.17712  0.80010  1.0000
  Fe  Fe119     1.0  0.50406  0.24050  0.79334  1.0000
  S   S240      1.0  0.47996  0.26087  0.80967  1.0000
  S   S241      1.0  0.53410  0.24654  0.77857  1.0000
  Fe  Fe120     1.0  0.47740  0.23377  0.83304  1.0000
  S   S242      1.0  0.47550  0.23691  0.86376  1.0000
  Fe  Fe121     1.0  0.45948  0.25098  0.79690  1.0000
  S   S243      1.0  0.43254  0.27076  0.78610  1.0000
  S   S244      1.0  0.50317  0.21405  0.81781  1.0000
  S   S245      1.0  0.48395  0.23298  0.77806  1.0000
  Fe  Fe122     1.0  0.56343  0.05558  0.80683  1.0000
  S   S246      1.0  0.53888  0.07522  0.82317  1.0000
  S   S247      1.0  0.59024  0.06874  0.79401  1.0000
  S   S248      1.0  0.51604  0.03810  0.83858  1.0000
  Fe  Fe123     1.0  0.51891  0.06292  0.81228  1.0000
  S   S249      1.0  0.49419  0.08771  0.80352  1.0000
  Fe  Fe124     1.0  0.53819  0.04929  0.84792  1.0000
  S   S250      1.0  0.53623  0.05291  0.87876  1.0000
  S   S251      1.0  0.54370  0.04538  0.79323  1.0000
  S   S252      1.0  0.56419  0.03021  0.83241  1.0000
  Fe  Fe125     1.0  0.55761  0.17102  0.92159  1.0000
  S   S253      1.0  0.56522  0.20083  0.91415  1.0000
  Fe  Fe126     1.0  0.56652  0.13010  0.91230  1.0000
  S   S254      1.0  0.58321  0.11218  0.88928  1.0000
  Fe  Fe127     1.0  0.52446  0.15023  0.92604  1.0000
  Fe  Fe128     1.0  0.54233  0.02111  0.82047  1.0000
  S   S255      1.0  0.54793  0.15897  0.90054  1.0000
  S   S256      1.0  0.57877  0.14302  0.93109  1.0000
  H   H711      1.0  0.59722  0.04732  0.83347  1.0000
  H   H712      1.0  0.60012  0.08828  0.82294  1.0000
  C   C713      1.0  0.40128  0.29693  0.84160  1.0000
  C   C714      1.0  0.35213  0.45858  0.83167  1.0000
  C   C715      1.0  0.62179  0.16466  0.80591  1.0000
  C   C716      1.0  0.40778  0.42396  0.77755  1.0000
  C   C717      1.0  0.54869  0.07008  0.88137  1.0000
  C   C718      1.0  0.55754  0.08246  0.86500  1.0000
  C   C719      1.0  0.56754  0.09589  0.86751  1.0000
  C   C720      1.0  0.56883  0.09693  0.88640  1.0000
  C   C721      1.0  0.55978  0.08476  0.90278  1.0000
  C   C722      1.0  0.54980  0.07132  0.90026  1.0000
  H   H713      1.0  0.55703  0.08151  0.85039  1.0000
  H   H714      1.0  0.57457  0.10524  0.85479  1.0000
  H   H715      1.0  0.56096  0.08526  0.91740  1.0000
  H   H716      1.0  0.54304  0.06176  0.91300  1.0000
  C   C723      1.0  0.42471  0.29494  0.79074  1.0000
  C   C724      1.0  0.42893  0.32170  0.80351  1.0000
  H   H717      1.0  0.39739  0.30008  0.78080  1.0000
  H   H718      1.0  0.45044  0.29461  0.80137  1.0000
  C   C725      1.0  0.48029  0.21367  0.87916  1.0000
  C   C726      1.0  0.48990  0.21124  0.89467  1.0000
  C   C727      1.0  0.49475  0.19251  0.90645  1.0000
  C   C728      1.0  0.48909  0.17640  0.90338  1.0000
  H   H719      1.0  0.49384  0.22376  0.89746  1.0000
  H   H720      1.0  0.50254  0.19062  0.91817  1.0000
  C   C729      1.0  0.42845  0.27064  0.84808  1.0000
  C   C730      1.0  0.43612  0.30290  0.79875  1.0000
  C   C731      1.0  0.41020  0.33256  0.80047  1.0000
  H   H721      1.0  0.43404  0.20883  0.75919  1.0000
  C   C732      1.0  0.48323  0.06861  0.75941  1.0000
  C   C733      1.0  0.49015  0.06891  0.77605  1.0000
  C   C734      1.0  0.48654  0.08664  0.78253  1.0000
  C   C735      1.0  0.47631  0.10399  0.77233  1.0000
  C   C736      1.0  0.46913  0.10362  0.75601  1.0000
  H   H722      1.0  0.37788  0.41727  0.84451  1.0000
  H   H723      1.0  0.49807  0.05543  0.78393  1.0000
  H   H724      1.0  0.47392  0.11777  0.77706  1.0000
  H   H725      1.0  0.54811  0.24079  0.89594  1.0000
  H   H726      1.0  0.54546  0.17665  0.77755  1.0000
  C   C737      1.0  0.44530  0.19584  0.76278  1.0000
  C   C738      1.0  0.45647  0.19525  0.77653  1.0000
  C   C739      1.0  0.47051  0.17828  0.78181  1.0000
  C   C740      1.0  0.47386  0.16211  0.77278  1.0000
  H   H727      1.0  0.34776  0.43530  0.82028  1.0000
  Fe  Fe129     1.0  0.37215  0.37286  0.79963  1.0000
  H   H728      1.0  0.45372  0.20776  0.78347  1.0000
  H   H729      1.0  0.48471  0.14895  0.77685  1.0000
  C   C741      1.0  0.35884  0.47849  0.79253  1.0000
  C   C742      1.0  0.40416  0.44118  0.78484  1.0000
  C   C743      1.0  0.62239  0.17029  0.82303  1.0000
  H   H730      1.0  0.48607  0.05495  0.75427  1.0000
  C   C744      1.0  0.53217  0.22183  0.85288  1.0000
  S   S257      1.0  0.34555  0.36168  0.79954  1.0000
  C   C745      1.0  0.35639  0.47742  0.82718  1.0000
  H   H731      1.0  0.51974  0.16379  0.76954  1.0000
  C   C746      1.0  0.56787  0.22739  0.85672  1.0000
  C   C747      1.0  0.47891  0.17894  0.88824  1.0000
  C   C748      1.0  0.62615  0.20323  0.87592  1.0000
  C   C749      1.0  0.61940  0.18555  0.88088  1.0000
  C   C750      1.0  0.60057  0.18467  0.89257  1.0000
  C   C751      1.0  0.58878  0.20133  0.89966  1.0000
  C   C752      1.0  0.59580  0.21877  0.89514  1.0000
  C   C753      1.0  0.61433  0.21980  0.88308  1.0000
  H   H732      1.0  0.62850  0.17271  0.87533  1.0000
  H   H733      1.0  0.59515  0.17119  0.89593  1.0000
  H   H734      1.0  0.58689  0.23157  0.90089  1.0000
  H   H735      1.0  0.61961  0.23336  0.87958  1.0000
  C   C754      1.0  0.56253  0.26574  0.81910  1.0000
  C   C755      1.0  0.57420  0.25665  0.80375  1.0000
  C   C756      1.0  0.56538  0.25017  0.79180  1.0000
  C   C757      1.0  0.54485  0.25295  0.79498  1.0000
  C   C758      1.0  0.53316  0.26173  0.81058  1.0000
  C   C759      1.0  0.54198  0.26821  0.82257  1.0000
  H   H736      1.0  0.58999  0.25518  0.80067  1.0000
  H   H737      1.0  0.57442  0.24343  0.77976  1.0000
  H   H738      1.0  0.51730  0.26401  0.81317  1.0000
  H   H739      1.0  0.53287  0.27524  0.83444  1.0000
  H   H740      1.0  0.54834  0.10730  0.76170  1.0000
  H   H741      1.0  0.57905  0.06203  0.76046  1.0000
  C   C760      1.0  0.59041  0.08244  0.76996  1.0000
  C   C761      1.0  0.59723  0.10010  0.76439  1.0000
  C   C762      1.0  0.59589  0.28293  0.75927  1.0000
  S   S258      1.0  0.59079  0.18269  0.76017  1.0000
  H   H742      1.0  0.60208  0.10530  0.77495  1.0000
  C   C763      1.0  0.52272  0.17818  0.76191  1.0000
  C   C764      1.0  0.60109  0.20684  0.77795  1.0000
  C   C765      1.0  0.61299  0.21888  0.77958  1.0000
  C   C766      1.0  0.62889  0.22298  0.76449  1.0000
  H   H743      1.0  0.51918  0.24018  0.87422  1.0000
  H   H744      1.0  0.58890  0.20361  0.78981  1.0000
  H   H745      1.0  0.60972  0.22498  0.79250  1.0000
  C   C767      1.0  0.44187  0.14399  0.81485  1.0000
  S   S259      1.0  0.53221  0.16519  0.94630  1.0000
  C   C768      1.0  0.54041  0.20413  0.75673  1.0000
  H   H746      1.0  0.41217  0.16843  0.78226  1.0000
  H   H747      1.0  0.61032  0.15735  0.80568  1.0000
  C   C769      1.0  0.43487  0.12176  0.79835  1.0000
  H   H748      1.0  0.42397  0.12132  0.76607  1.0000
  C   C770      1.0  0.60493  0.19894  0.76110  1.0000
  H   H749      1.0  0.58189  0.22969  0.85798  1.0000
  C   C771      1.0  0.59770  0.11116  0.74517  1.0000
  H   H750      1.0  0.45386  0.11256  0.81964  1.0000
  H   H751      1.0  0.58536  0.02655  0.86546  1.0000
  C   C772      1.0  0.55081  0.24887  0.88043  1.0000
  S   S260      1.0  0.49543  0.15291  0.91789  1.0000
  N   N60       1.0  0.39851  0.42243  0.81788  1.0000
  H   H752      1.0  0.46529  0.15031  0.75196  1.0000
  S   S261      1.0  0.54242  0.12049  0.93672  1.0000
  C   C773      1.0  0.61365  0.07811  0.82737  1.0000
  H   H753      1.0  0.39624  0.45370  0.81067  1.0000
  C   C774      1.0  0.59527  0.04181  0.88231  1.0000
  H   H754      1.0  0.51436  0.99698  0.80521  1.0000
  S   S262      1.0  0.40062  0.35498  0.80875  1.0000
  H   H755      1.0  0.54922  0.20482  0.83112  1.0000
  N   N61       1.0  0.60821  0.06509  0.84631  1.0000
  C   C775      1.0  0.53561  0.10255  0.75933  1.0000
  C   C776      1.0  0.63258  0.21528  0.74745  1.0000
  C   C777      1.0  0.54967  0.21331  0.84154  1.0000
  H   H756      1.0  0.51806  0.21982  0.85158  1.0000
  C   C778      1.0  0.35127  0.44970  0.81661  1.0000
  C   C779      1.0  0.42980  0.15964  0.80452  1.0000
  C   C780      1.0  0.50952  0.10975  0.89714  1.0000
  H   H757      1.0  0.55145  0.20971  0.76050  1.0000
  C   C781      1.0  0.40862  0.30934  0.84900  1.0000
  C   C782      1.0  0.42629  0.30215  0.85586  1.0000
  H   H758      1.0  0.40094  0.32462  0.84876  1.0000
  H   H759      1.0  0.43232  0.31171  0.86131  1.0000
  C   C783      1.0  0.41472  0.13389  0.77291  1.0000
  C   C784      1.0  0.43625  0.28265  0.85550  1.0000
  H   H760      1.0  0.43629  0.25548  0.84796  1.0000
  C   C785      1.0  0.56769  0.21597  0.84355  1.0000
  C   C786      1.0  0.46296  0.16291  0.75862  1.0000
  H   H761      1.0  0.58139  0.20962  0.83469  1.0000
  C   C787      1.0  0.35939  0.48752  0.80761  1.0000
  H   H762      1.0  0.60394  0.13876  0.96119  1.0000
  H   H763      1.0  0.60583  0.19136  0.93953  1.0000
  H   H764      1.0  0.53937  0.26268  0.87847  1.0000
  H   H765      1.0  0.51143  0.09342  0.90131  1.0000
  H   H766      1.0  0.38781  0.30282  0.83582  1.0000
  H   H767      1.0  0.44999  0.27682  0.86084  1.0000
  H   H768      1.0  0.44958  0.14677  0.82483  1.0000
  C   C788      1.0  0.39897  0.32484  0.79202  1.0000
  C   C789      1.0  0.44430  0.12486  0.81191  1.0000
  Fe  Fe130     1.0  0.34465  0.38367  0.77106  1.0000
  H   H769      1.0  0.53933  0.29687  0.76354  1.0000
  C   C790      1.0  0.39248  0.42155  0.83914  1.0000
  C   C791      1.0  0.60429  0.05719  0.88153  1.0000
  C   C792      1.0  0.40321  0.26511  0.83346  1.0000
  N   N62       1.0  0.41134  0.27794  0.84096  1.0000
  S   S263      1.0  0.35583  0.44791  0.77773  1.0000
  H   H770      1.0  0.47433  0.16655  0.88597  1.0000
  N   N63       1.0  0.58708  0.27513  0.74895  1.0000
  H   H771      1.0  0.39279  0.25773  0.84548  1.0000
  H   H772      1.0  0.52238  0.11378  0.90010  1.0000
  H   H773      1.0  0.43774  0.32765  0.80992  1.0000
  S   S264      1.0  0.33815  0.37714  0.74463  1.0000
  H   H774      1.0  0.40406  0.45536  0.77482  1.0000
  H   H775      1.0  0.39546  0.27372  0.82131  1.0000
  C   C793      1.0  0.47498  0.19748  0.87579  1.0000
  C   C794      1.0  0.60097  0.17706  0.94529  1.0000
  S   S265      1.0  0.43234  0.18016  0.73870  1.0000
  H   H776      1.0  0.40120  0.39141  0.82087  1.0000
  H   H777      1.0  0.43706  0.10687  0.79596  1.0000
  H   H778      1.0  0.40983  0.39243  0.78512  1.0000
  H   H779      1.0  0.61664  0.08139  0.86299  1.0000
  C   C795      1.0  0.59949  0.04996  0.84694  1.0000
  H   H780      1.0  0.58954  0.03320  0.89639  1.0000
  H   H781      1.0  0.62407  0.08696  0.82800  1.0000
  H   H782      1.0  0.55512  0.31132  0.78228  1.0000
  H   H783      1.0  0.34930  0.45090  0.84684  1.0000
  C   C796      1.0  0.58456  0.29638  0.77107  1.0000
  H   H784      1.0  0.60550  0.06074  0.89500  1.0000
  N   N64       1.0  0.55057  0.23628  0.86724  1.0000
  N   N65       1.0  0.50796  0.11722  0.87646  1.0000
  C   C797      1.0  0.50545  0.10512  0.86558  1.0000
  C   C798      1.0  0.50812  0.13668  0.86842  1.0000
  C   C799      1.0  0.50282  0.11254  0.84616  1.0000
  C   C800      1.0  0.50544  0.14462  0.84907  1.0000
  C   C801      1.0  0.50278  0.13243  0.83790  1.0000
  H   H785      1.0  0.50549  0.08962  0.87188  1.0000
  H   H786      1.0  0.51015  0.14620  0.87711  1.0000
  H   H787      1.0  0.50077  0.10293  0.83758  1.0000
  H   H788      1.0  0.50525  0.16015  0.84283  1.0000
  H   H789      1.0  0.50064  0.13839  0.82289  1.0000
  C   C802      1.0  0.63700  0.18020  0.82277  1.0000
  Fe  Fe131     1.0  0.35277  0.41607  0.78652  1.0000
  H   H790      1.0  0.46745  0.19934  0.86388  1.0000
  H   H791      1.0  0.49595  0.11636  0.90677  1.0000
  H   H792      1.0  0.41317  0.14703  0.76073  1.0000
  H   H793      1.0  0.41514  0.25372  0.82705  1.0000
  C   C803      1.0  0.61061  0.06883  0.86330  1.0000
  C   C804      1.0  0.58414  0.07577  0.75625  1.0000
  C   C805      1.0  0.35494  0.45947  0.79698  1.0000
  N   N66       1.0  0.53303  0.10914  0.73885  1.0000
  H   H794      1.0  0.56521  0.25344  0.87715  1.0000
  N   N67       1.0  0.65047  0.18456  0.80589  1.0000
  H   H795      1.0  0.38457  0.33318  0.78947  1.0000
  C   C806      1.0  0.42087  0.15604  0.79084  1.0000
  Fe  Fe132     1.0  0.55272  0.13626  0.95466  1.0000
  C   C807      1.0  0.40624  0.30608  0.78714  1.0000
  H   H796      1.0  0.61163  0.16705  0.83640  1.0000
  H   H797      1.0  0.55805  0.16482  0.97797  1.0000
  C   C808      1.0  0.40711  0.40593  0.79061  1.0000
  C   C809      1.0  0.55528  0.29353  0.76196  1.0000
  C   C810      1.0  0.44844  0.17969  0.75385  1.0000
  C   C811      1.0  0.63582  0.16883  0.78890  1.0000
  S   S266      1.0  0.64429  0.23763  0.76659  1.0000
  C   C812      1.0  0.40229  0.40544  0.81085  1.0000
  C   C813      1.0  0.47280  0.08604  0.74932  1.0000
  H   H798      1.0  0.41070  0.42465  0.76182  1.0000
  H   H799      1.0  0.36169  0.48618  0.77737  1.0000
  C   C814      1.0  0.56412  0.30155  0.77253  1.0000
  Fe  Fe133     1.0  0.64675  0.27515  0.81689  1.0000
  C   C815      1.0  0.56706  0.28028  0.75015  1.0000
  C   C816      1.0  0.65008  0.17895  0.78911  1.0000
  H   H800      1.0  0.60752  0.16801  0.93380  1.0000
  H   H801      1.0  0.52260  0.24621  0.73960  1.0000
  H   H802      1.0  0.53858  0.08616  0.76346  1.0000
  S   S267      1.0  0.66091  0.30130  0.81121  1.0000
  S   S268      1.0  0.35851  0.48778  0.84612  1.0000
  H   H803      1.0  0.39097  0.43608  0.84301  1.0000
  N   N68       1.0  0.60705  0.16679  0.96397  1.0000
  H   H804      1.0  0.52201  0.10858  0.76930  1.0000
  H   H805      1.0  0.58461  0.18007  0.94734  1.0000
  H   H806      1.0  0.60290  0.12482  0.74099  1.0000
  C   C817      1.0  0.51575  0.20836  0.73824  1.0000
  H   H807      1.0  0.63742  0.18448  0.83614  1.0000
  H   H808      1.0  0.61171  0.27844  0.75878  1.0000
  C   C818      1.0  0.60770  0.14694  0.97011  1.0000
  H   H809      1.0  0.40353  0.41055  0.84695  1.0000
  H   H810      1.0  0.50080  0.18432  0.74396  1.0000
  H   H811      1.0  0.66055  0.18271  0.77564  1.0000
  H   H812      1.0  0.55996  0.27349  0.74263  1.0000
  H   H813      1.0  0.60944  0.19314  0.97127  1.0000
  C   C819      1.0  0.61068  0.17728  0.97578  1.0000
  H   H814      1.0  0.51386  0.08965  0.74220  1.0000
  H   H815      1.0  0.59488  0.24589  0.74388  1.0000
  S   S269      1.0  0.55647  0.12321  0.98609  1.0000
  N   N69       1.0  0.53008  0.21516  0.74253  1.0000
  H   H816      1.0  0.33329  0.48241  0.88487  1.0000
  H   H817      1.0  0.66290  0.20101  0.81914  1.0000
  S   S270      1.0  0.66305  0.24505  0.81123  1.0000
  H   H818      1.0  0.56665  0.65803  0.18964  1.0000
  C   C820      1.0  0.52023  0.68634  0.19478  1.0000
  S   S271      1.0  0.56420  0.86686  0.21949  1.0000
  H   H819      1.0  0.50917  0.82941  0.17083  1.0000
  C   C821      1.0  0.51410  0.62113  0.22595  1.0000
  S   S272      1.0  0.52859  0.86960  0.19626  1.0000
  H   H820      1.0  0.53940  0.95321  0.16608  1.0000
  Fe  Fe134     1.0  0.55393  0.84654  0.20638  1.0000
  S   S273      1.0  0.57200  0.82264  0.18993  1.0000
  Fe  Fe135     1.0  0.53701  0.88892  0.21205  1.0000
  S   S274      1.0  0.53425  0.92199  0.20161  1.0000
  H   H821      1.0  0.62345  0.58857  0.22428  1.0000
  H   H822      1.0  0.55041  0.63917  0.17619  1.0000
  C   C822      1.0  0.54516  0.98903  0.16404  1.0000
  Fe  Fe136     1.0  0.61194  0.65326  0.19834  1.0000
  S   S275      1.0  0.59850  0.62972  0.22041  1.0000
  S   S276      1.0  0.62101  0.65095  0.16663  1.0000
  H   H823      1.0  0.40598  0.58139  0.13450  1.0000
  H   H824      1.0  0.48799  0.64314  0.23309  1.0000
  H   H825      1.0  0.62259  0.71305  0.14109  1.0000
  S   S277      1.0  0.59038  0.67824  0.21017  1.0000
  S   S278      1.0  0.63495  0.65235  0.21504  1.0000
  Fe  Fe137     1.0  0.47126  0.62265  0.21440  1.0000
  S   S279      1.0  0.46487  0.65547  0.20538  1.0000
  C   C823      1.0  0.49636  0.76655  0.20728  1.0000
  Fe  Fe138     1.0  0.42945  0.62018  0.21447  1.0000
  S   S280      1.0  0.41931  0.65309  0.20571  1.0000
  S   S281      1.0  0.41040  0.59758  0.22167  1.0000
  Fe  Fe139     1.0  0.44848  0.65117  0.18457  1.0000
  S   S282      1.0  0.45509  0.66871  0.15392  1.0000
  H   H826      1.0  0.33834  0.63460  0.18921  1.0000
  N   N70       1.0  0.54223  0.78639  0.01597  1.0000
  S   S283      1.0  0.45736  0.61810  0.19150  1.0000
  C   C824      1.0  0.54439  0.62690  0.23098  1.0000
  H   H827      1.0  0.49286  0.83544  0.19285  1.0000
  C   C825      1.0  0.49511  0.77825  0.22066  1.0000
  Fe  Fe140     1.0  0.53490  0.78097  0.11896  1.0000
  S   S284      1.0  0.55038  0.77123  0.09053  1.0000
  S   S285      1.0  0.53315  0.81123  0.12419  1.0000
  Fe  Fe141     1.0  0.51845  0.74381  0.13561  1.0000
  S   S286      1.0  0.53266  0.73051  0.10891  1.0000
  S   S287      1.0  0.49785  0.73195  0.16263  1.0000
  Fe  Fe142     1.0  0.55885  0.74171  0.11011  1.0000
  S   S288      1.0  0.58982  0.72429  0.10355  1.0000
  Fe  Fe143     1.0  0.52295  0.76090  0.09168  1.0000
  S   S289      1.0  0.50621  0.76756  0.06691  1.0000
  S   S290      1.0  0.54557  0.75228  0.13840  1.0000
  S   S291      1.0  0.50660  0.77337  0.11843  1.0000
  H   H828      1.0  0.62016  0.57092  0.21180  1.0000
  S   S292      1.0  0.35942  0.53924  0.18398  1.0000
  S   S293      1.0  0.36147  0.59506  0.16032  1.0000
  H   H829      1.0  0.50401  0.75472  0.00358  1.0000
  Fe  Fe144     1.0  0.35254  0.52717  0.16109  1.0000
  H   H830      1.0  0.54245  0.60137  0.22121  1.0000
  H   H831      1.0  0.34181  0.49660  0.09234  1.0000
  C   C826      1.0  0.42265  0.54747  0.18113  1.0000
  S   S294      1.0  0.48303  0.84857  0.22922  1.0000
  H   H832      1.0  0.50246  0.76498  0.17663  1.0000
  S   S295      1.0  0.53597  0.83403  0.23494  1.0000
  H   H833      1.0  0.56667  0.76662  0.00246  1.0000
  H   H834      1.0  0.49826  0.65568  0.16922  1.0000
  C   C827      1.0  0.51216  0.75086  0.01535  1.0000
  C   C828      1.0  0.55256  0.77662  0.00118  1.0000
  C   C829      1.0  0.33950  0.62423  0.20304  1.0000
  C   C830      1.0  0.45548  0.69490  0.23458  1.0000
  H   H835      1.0  0.61935  0.73206  0.19381  1.0000
  N   N71       1.0  0.33274  0.59428  0.22511  1.0000
  N   N72       1.0  0.52231  0.65878  0.18031  1.0000
  C   C831      1.0  0.51523  0.75491  0.04723  1.0000
  C   C832      1.0  0.53325  0.74129  0.04588  1.0000
  C   C833      1.0  0.54084  0.73273  0.02915  1.0000
  H   H836      1.0  0.43849  0.58761  0.18116  1.0000
  C   C834      1.0  0.61586  0.73496  0.17930  1.0000
  H   H837      1.0  0.54153  0.73764  0.05753  1.0000
  H   H838      1.0  0.55498  0.72248  0.02801  1.0000
  C   C835      1.0  0.39725  0.59709  0.20421  1.0000
  C   C836      1.0  0.39626  0.61180  0.18722  1.0000
  C   C837      1.0  0.38522  0.61109  0.17377  1.0000
  C   C838      1.0  0.37530  0.59562  0.17724  1.0000
  C   C839      1.0  0.37650  0.58086  0.19415  1.0000
  C   C840      1.0  0.38747  0.58157  0.20757  1.0000
  H   H839      1.0  0.40380  0.62382  0.18456  1.0000
  H   H840      1.0  0.38431  0.62257  0.16070  1.0000
  H   H841      1.0  0.36877  0.56903  0.19707  1.0000
  H   H842      1.0  0.38822  0.57017  0.22072  1.0000
  C   C841      1.0  0.48556  0.71513  0.15937  1.0000
  C   C842      1.0  0.49256  0.70546  0.14349  1.0000
  C   C843      1.0  0.48294  0.69147  0.14156  1.0000
  C   C844      1.0  0.46631  0.68712  0.15555  1.0000
  C   C845      1.0  0.45912  0.69701  0.17126  1.0000
  C   C846      1.0  0.46875  0.71099  0.17318  1.0000
  H   H843      1.0  0.50567  0.70833  0.13296  1.0000
  H   H844      1.0  0.48861  0.68374  0.12946  1.0000
  H   H845      1.0  0.44618  0.69380  0.18206  1.0000
  H   H846      1.0  0.46332  0.71834  0.18558  1.0000
  C   C847      1.0  0.50455  0.75939  0.03210  1.0000
  H   H847      1.0  0.51095  0.63345  0.18297  1.0000
  H   H848      1.0  0.52222  0.64373  0.15823  1.0000
  H   H849      1.0  0.54554  0.97904  0.21986  1.0000
  C   C848      1.0  0.57576  0.97019  0.17211  1.0000
  C   C849      1.0  0.61113  0.67108  0.14950  1.0000
  C   C850      1.0  0.62120  0.67357  0.12994  1.0000
  C   C851      1.0  0.61429  0.68981  0.11597  1.0000
  C   C852      1.0  0.59698  0.70343  0.12131  1.0000
  C   C853      1.0  0.58654  0.70077  0.14080  1.0000
  C   C854      1.0  0.59380  0.68473  0.15497  1.0000
  H   H850      1.0  0.63458  0.66310  0.12560  1.0000
  H   H851      1.0  0.62242  0.69183  0.10094  1.0000
  H   H852      1.0  0.57320  0.71131  0.14504  1.0000
  H   H853      1.0  0.58592  0.68295  0.17001  1.0000
  C   C855      1.0  0.57059  0.95475  0.22158  1.0000
  C   C856      1.0  0.60542  0.75374  0.17189  1.0000
  H   H854      1.0  0.63093  0.69803  0.19222  1.0000
  C   C857      1.0  0.41099  0.54136  0.17169  1.0000
  H   H855      1.0  0.50162  0.81070  0.99695  1.0000
  S   S296      1.0  0.61705  0.70437  0.23142  1.0000
  C   C858      1.0  0.56116  0.81948  0.17171  1.0000
  C   C859      1.0  0.56173  0.80038  0.16953  1.0000
  C   C860      1.0  0.55333  0.79762  0.15489  1.0000
  C   C861      1.0  0.54453  0.81398  0.14223  1.0000
  C   C862      1.0  0.54401  0.83306  0.14441  1.0000
  C   C863      1.0  0.55216  0.83582  0.15920  1.0000
  H   H856      1.0  0.56837  0.78775  0.17941  1.0000
  H   H857      1.0  0.55358  0.78288  0.15350  1.0000
  H   H858      1.0  0.53718  0.84578  0.13470  1.0000
  H   H859      1.0  0.55182  0.85060  0.16067  1.0000
  C   C864      1.0  0.60087  0.75764  0.15325  1.0000
  C   C865      1.0  0.44068  0.57125  0.18384  1.0000
  H   H860      1.0  0.62873  0.68914  0.17185  1.0000
  N   N73       1.0  0.42820  0.56528  0.17390  1.0000
  H   H861      1.0  0.40633  0.52738  0.17758  1.0000
  H   H862      1.0  0.43679  0.56628  0.20008  1.0000
  C   C866      1.0  0.55120  0.66321  0.18868  1.0000
  H   H863      1.0  0.55891  0.95570  0.14449  1.0000
  C   C867      1.0  0.54027  0.68028  0.19540  1.0000
  H   H864      1.0  0.60098  0.76521  0.18054  1.0000
  C   C868      1.0  0.42280  0.57714  0.15706  1.0000
  H   H865      1.0  0.49054  0.76985  0.03310  1.0000
  H   H866      1.0  0.57317  0.90967  0.21174  1.0000
  H   H867      1.0  0.51596  0.80627  0.02631  1.0000
  H   H868      1.0  0.49117  0.77256  0.23636  1.0000
  Fe  Fe145     1.0  0.57874  0.65469  0.23392  1.0000
  S   S297      1.0  0.37062  0.50138  0.14809  1.0000
  H   H869      1.0  0.49339  0.75176  0.21255  1.0000
  C   C869      1.0  0.55164  0.96397  0.21810  1.0000
  C   C870      1.0  0.54058  0.95372  0.21210  1.0000
  C   C871      1.0  0.54819  0.93405  0.20999  1.0000
  C   C872      1.0  0.56707  0.92476  0.21359  1.0000
  H   H870      1.0  0.45649  0.56492  0.17861  1.0000
  H   H871      1.0  0.56063  0.79489  0.03007  1.0000
  H   H872      1.0  0.52602  0.96102  0.20920  1.0000
  C   C873      1.0  0.55086  0.78424  0.03315  1.0000
  H   H873      1.0  0.51151  0.69948  0.20013  1.0000
  H   H874      1.0  0.53918  0.78688  0.04632  1.0000
  H   H875      1.0  0.42701  0.53802  0.19442  1.0000
  N   N74       1.0  0.62164  0.72051  0.16838  1.0000
  C   C874      1.0  0.61760  0.72435  0.14993  1.0000
  N   N75       1.0  0.55869  0.97153  0.16598  1.0000
  C   C875      1.0  0.57830  0.93516  0.21916  1.0000
  C   C876      1.0  0.35066  0.62657  0.21543  1.0000
  H   H876      1.0  0.45909  0.68793  0.22211  1.0000
  H   H877      1.0  0.55951  0.76898  0.03713  1.0000
  N   N76       1.0  0.45744  0.74278  0.12453  1.0000
  C   C877      1.0  0.47115  0.74494  0.10743  1.0000
  C   C878      1.0  0.44628  0.72878  0.12860  1.0000
  C   C879      1.0  0.47447  0.73245  0.09419  1.0000
  C   C880      1.0  0.44923  0.71602  0.11570  1.0000
  C   C881      1.0  0.46350  0.71783  0.09845  1.0000
  C   C882      1.0  0.45424  0.75606  0.13816  1.0000
  H   H878      1.0  0.47972  0.75628  0.10397  1.0000
  H   H879      1.0  0.43547  0.72694  0.14220  1.0000
  H   H880      1.0  0.48559  0.73409  0.08078  1.0000
  H   H881      1.0  0.44095  0.70437  0.11945  1.0000
  H   H882      1.0  0.46615  0.70784  0.08847  1.0000
  H   H883      1.0  0.44750  0.74946  0.15334  1.0000
  H   H884      1.0  0.46853  0.75883  0.13916  1.0000
  H   H885      1.0  0.44451  0.77035  0.13307  1.0000
  N   N77       1.0  0.50329  0.80466  0.19388  1.0000
  C   C883      1.0  0.50476  0.79322  0.18064  1.0000
  C   C884      1.0  0.49879  0.79735  0.21364  1.0000
  C   C885      1.0  0.50136  0.77400  0.18714  1.0000
  C   C886      1.0  0.52427  0.79873  0.01446  1.0000
  C   C887      1.0  0.54191  0.65256  0.18116  1.0000
  C   C888      1.0  0.50627  0.82499  0.18711  1.0000
  H   H886      1.0  0.50851  0.79893  0.16494  1.0000
  C   C889      1.0  0.65918  0.60493  0.17315  1.0000
  C   C890      1.0  0.51139  0.67518  0.18740  1.0000
  C   C891      1.0  0.51377  0.65074  0.23684  1.0000
  H   H887      1.0  0.54716  0.68850  0.20162  1.0000
  H   H888      1.0  0.60344  0.74565  0.12767  1.0000
  H   H889      1.0  0.49573  0.67969  0.18747  1.0000
  H   H890      1.0  0.39559  0.54926  0.14755  1.0000
  H   H891      1.0  0.59281  0.77213  0.14730  1.0000
  H   H892      1.0  0.42705  0.59133  0.15139  1.0000
  C   C892      1.0  0.51298  0.64736  0.17230  1.0000
  C   C893      1.0  0.41103  0.57155  0.14733  1.0000
  H   H893      1.0  0.51898  0.82662  0.19246  1.0000
  N   N78       1.0  0.64693  0.58113  0.20067  1.0000
  H   H894      1.0  0.65706  0.61970  0.16410  1.0000
  C   C894      1.0  0.63321  0.70113  0.17591  1.0000
  S   S298      1.0  0.50186  0.60659  0.21871  1.0000
  H   H895      1.0  0.64917  0.70058  0.16982  1.0000
  H   H896      1.0  0.63066  0.61034  0.19181  1.0000
  C   C895      1.0  0.53047  0.73771  0.01371  1.0000
  C   C896      1.0  0.60693  0.74284  0.14219  1.0000
  C   C897      1.0  0.40506  0.55357  0.15475  1.0000
  Fe  Fe146     1.0  0.51129  0.85827  0.22573  1.0000
  H   H897      1.0  0.59299  0.92794  0.22177  1.0000
  C   C898      1.0  0.35289  0.61253  0.23264  1.0000
  C   C899      1.0  0.55514  0.95440  0.16068  1.0000
  Fe  Fe147     1.0  0.34725  0.56880  0.16662  1.0000
  S   S299      1.0  0.58490  0.96704  0.22925  1.0000
  S   S300      1.0  0.54139  0.72807  0.99221  1.0000
  H   H898      1.0  0.58636  0.95625  0.17398  1.0000
  H   H899      1.0  0.59270  0.98531  0.18227  1.0000
  H   H900      1.0  0.35816  0.63883  0.21138  1.0000
  H   H901      1.0  0.51716  0.67511  0.98942  1.0000
  Fe  Fe148     1.0  0.61200  0.67546  0.22904  1.0000
  C   C900      1.0  0.50378  0.63882  0.23185  1.0000
  Fe  Fe149     1.0  0.43666  0.65469  0.22734  1.0000
  H   H902      1.0  0.47958  0.71024  0.22402  1.0000
  H   H903      1.0  0.55993  0.62194  0.23116  1.0000
  H   H904      1.0  0.63700  0.56387  0.22878  1.0000
  H   H905      1.0  0.53165  0.99010  0.15918  1.0000
  C   C901      1.0  0.64427  0.59956  0.18893  1.0000
  H   H906      1.0  0.56399  0.94030  0.16763  1.0000
  C   C902      1.0  0.57948  0.98659  0.17675  1.0000
  S   S301      1.0  0.34315  0.55657  0.14222  1.0000
  H   H907      1.0  0.49790  0.80641  0.22404  1.0000
  C   C903      1.0  0.51607  0.80128  0.99792  1.0000
  C   C904      1.0  0.53444  0.61516  0.22556  1.0000
  C   C905      1.0  0.53404  0.64473  0.23660  1.0000
  H   H908      1.0  0.36236  0.49388  0.19021  1.0000
  C   C906      1.0  0.46698  0.70770  0.23560  1.0000
  C   C907      1.0  0.33072  0.60782  0.20806  1.0000
  C   C908      1.0  0.63108  0.57580  0.21710  1.0000
  H   H909      1.0  0.35074  0.50090  0.11189  1.0000
  H   H910      1.0  0.54748  0.68360  0.99321  1.0000
  H   H911      1.0  0.33474  0.56516  0.22190  1.0000
  H   H912      1.0  0.33029  0.49942  0.14312  1.0000
  C   C909      1.0  0.34383  0.59634  0.23725  1.0000
  C   C910      1.0  0.47831  0.83450  0.25302  1.0000
  H   H913      1.0  0.45413  0.76970  0.38693  1.0000
  C   C911      1.0  0.36296  0.69272  0.37305  1.0000
  S   S302      1.0  0.61525  0.77755  0.34026  1.0000
  C   C912      1.0  0.35304  0.68418  0.40834  1.0000
  Fe  Fe150     1.0  0.63454  0.72887  0.32032  1.0000
  S   S303      1.0  0.61943  0.72923  0.35174  1.0000
  C   C913      1.0  0.47377  0.81007  0.29043  1.0000
  Fe  Fe151     1.0  0.59817  0.75561  0.33928  1.0000
  S   S304      1.0  0.56498  0.76240  0.34697  1.0000
  H   H914      1.0  0.57700  0.79032  0.30575  1.0000
  S   S305      1.0  0.61161  0.75351  0.30807  1.0000
  H   H915      1.0  0.53690  0.82418  0.32189  1.0000
  Fe  Fe152     1.0  0.47127  0.76397  0.31082  1.0000
  S   S306      1.0  0.49644  0.74583  0.29322  1.0000
  Fe  Fe153     1.0  0.44829  0.73152  0.32612  1.0000
  S   S307      1.0  0.47168  0.70990  0.31038  1.0000
  S   S308      1.0  0.41806  0.72683  0.34250  1.0000
  Fe  Fe154     1.0  0.49322  0.72182  0.31989  1.0000
  S   S309      1.0  0.52168  0.70407  0.32875  1.0000
  Fe  Fe155     1.0  0.47319  0.73554  0.28489  1.0000
  H   H916      1.0  0.38934  0.77912  0.36918  1.0000
  S   S310      1.0  0.46966  0.74076  0.33838  1.0000
  S   S311      1.0  0.44811  0.75634  0.29971  1.0000
  S   S312      1.0  0.54584  0.65954  0.24399  1.0000
  C   C914      1.0  0.65440  0.81570  0.39797  1.0000
  H   H917      1.0  0.45087  0.77890  0.35210  1.0000
  Fe  Fe156     1.0  0.36182  0.72776  0.44753  1.0000
  S   S313      1.0  0.39410  0.72600  0.43368  1.0000
  H   H918      1.0  0.51645  0.92122  0.27361  1.0000
  H   H919      1.0  0.50540  0.69344  0.27670  1.0000
  H   H920      1.0  0.50567  0.66453  0.24113  1.0000
  C   C915      1.0  0.48158  0.82691  0.28714  1.0000
  S   S314      1.0  0.63438  0.60163  0.25504  1.0000
  S   S315      1.0  0.47807  0.73126  0.25387  1.0000
  C   C916      1.0  0.62607  0.70290  0.25250  1.0000
  C   C917      1.0  0.42312  0.76993  0.39796  1.0000
  H   H921      1.0  0.44230  0.72094  0.27902  1.0000
  C   C918      1.0  0.41188  0.72786  0.36754  1.0000
  C   C919      1.0  0.39194  0.73305  0.37630  1.0000
  C   C920      1.0  0.38638  0.73266  0.39656  1.0000
  C   C921      1.0  0.40073  0.72691  0.40820  1.0000
  C   C922      1.0  0.42073  0.72213  0.39937  1.0000
  C   C923      1.0  0.42632  0.72269  0.37903  1.0000
  H   H922      1.0  0.38073  0.73726  0.36740  1.0000
  H   H923      1.0  0.37102  0.73701  0.40307  1.0000
  H   H924      1.0  0.43192  0.71784  0.40830  1.0000
  H   H925      1.0  0.44174  0.71857  0.37238  1.0000
  H   H926      1.0  0.55605  0.80481  0.33109  1.0000
  H   H927      1.0  0.46151  0.79287  0.27765  1.0000
  S   S316      1.0  0.42534  0.67433  0.24966  1.0000
  H   H928      1.0  0.66132  0.84722  0.40963  1.0000
  H   H929      1.0  0.43127  0.78902  0.32791  1.0000
  H   H930      1.0  0.40102  0.68660  0.39588  1.0000
  C   C924      1.0  0.55316  0.74573  0.34245  1.0000
  C   C925      1.0  0.56180  0.72559  0.34413  1.0000
  C   C926      1.0  0.55188  0.71264  0.34047  1.0000
  C   C927      1.0  0.53360  0.71992  0.33459  1.0000
  C   C928      1.0  0.52506  0.74005  0.33295  1.0000
  C   C929      1.0  0.53468  0.75284  0.33710  1.0000
  H   H931      1.0  0.57592  0.71996  0.34863  1.0000
  H   H932      1.0  0.55839  0.69703  0.34208  1.0000
  H   H933      1.0  0.51092  0.74585  0.32863  1.0000
  H   H934      1.0  0.52774  0.76829  0.33604  1.0000
  C   C930      1.0  0.52653  0.92581  0.25959  1.0000
  C   C931      1.0  0.34831  0.68899  0.38966  1.0000
  H   H935      1.0  0.39352  0.69483  0.36251  1.0000
  H   H936      1.0  0.55765  0.73763  0.29137  1.0000
  H   H937      1.0  0.53137  0.80087  0.33673  1.0000
  H   H938      1.0  0.41672  0.77033  0.33408  1.0000
  C   C932      1.0  0.63344  0.71943  0.27474  1.0000
  C   C933      1.0  0.63898  0.70120  0.28696  1.0000
  C   C934      1.0  0.63873  0.68376  0.28154  1.0000
  H   H939      1.0  0.40502  0.79579  0.33525  1.0000
  H   H940      1.0  0.64313  0.66962  0.29089  1.0000
  H   H941      1.0  0.63432  0.73288  0.27841  1.0000
  H   H942      1.0  0.48582  0.83060  0.29902  1.0000
  C   C935      1.0  0.51105  0.64448  0.28458  1.0000
  C   C936      1.0  0.61179  0.81356  0.28180  1.0000
  C   C937      1.0  0.46774  0.80574  0.27515  1.0000
  H   H943      1.0  0.52355  0.92000  0.24782  1.0000
  H   H944      1.0  0.57079  0.83721  0.30937  1.0000
  H   H945      1.0  0.36425  0.67402  0.44180  1.0000
  H   H946      1.0  0.55539  0.78529  0.25686  1.0000
  C   C938      1.0  0.58603  0.90338  0.26659  1.0000
  S   S317      1.0  0.47236  0.79417  0.31348  1.0000
  H   H947      1.0  0.60404  0.81645  0.31211  1.0000
  C   C939      1.0  0.58043  0.83199  0.29665  1.0000
  N   N79       1.0  0.57925  0.71151  0.29818  1.0000
  C   C940      1.0  0.59349  0.70362  0.30930  1.0000
  C   C941      1.0  0.57074  0.69944  0.29231  1.0000
  C   C942      1.0  0.59926  0.68316  0.31522  1.0000
  C   C943      1.0  0.57631  0.67889  0.29780  1.0000
  C   C944      1.0  0.59070  0.67074  0.30930  1.0000
  C   C945      1.0  0.57367  0.73298  0.29174  1.0000
  H   H948      1.0  0.60054  0.71312  0.31368  1.0000
  H   H949      1.0  0.55950  0.70569  0.28344  1.0000
  H   H950      1.0  0.61075  0.67709  0.32387  1.0000
  H   H951      1.0  0.56956  0.66938  0.29308  1.0000
  H   H952      1.0  0.59535  0.65483  0.31348  1.0000
  H   H953      1.0  0.63898  0.79966  0.38704  1.0000
  N   N80       1.0  0.41986  0.77981  0.35863  1.0000
  H   H954      1.0  0.58255  0.73755  0.27693  1.0000
  C   C946      1.0  0.59921  0.82025  0.29822  1.0000
  C   C947      1.0  0.37653  0.67879  0.43006  1.0000
  C   C948      1.0  0.55268  0.78897  0.27123  1.0000
  H   H955      1.0  0.63549  0.77446  0.41785  1.0000
  C   C949      1.0  0.43977  0.77213  0.38319  1.0000
  H   H956      1.0  0.46455  0.81507  0.24485  1.0000
  H   H957      1.0  0.42189  0.69847  0.27713  1.0000
  C   C950      1.0  0.47215  0.65531  0.27968  1.0000
  S   S318      1.0  0.33895  0.72624  0.43172  1.0000
  C   C951      1.0  0.48219  0.63573  0.28021  1.0000
  H   H958      1.0  0.50927  0.67946  0.30084  1.0000
  N   N81       1.0  0.54594  0.80019  0.30715  1.0000
  C   C952      1.0  0.53040  0.80205  0.29845  1.0000
  C   C953      1.0  0.56470  0.79205  0.29871  1.0000
  C   C954      1.0  0.46243  0.71691  0.25174  1.0000
  C   C955      1.0  0.56841  0.78655  0.28051  1.0000
  C   C956      1.0  0.57703  0.92293  0.26794  1.0000
  C   C957      1.0  0.54236  0.80791  0.32512  1.0000
  H   H959      1.0  0.51552  0.80817  0.30536  1.0000
  N   N82       1.0  0.54712  0.91823  0.26189  1.0000
  H   H960      1.0  0.50981  0.61510  0.28280  1.0000
  H   H961      1.0  0.33332  0.68994  0.38815  1.0000
  H   H962      1.0  0.52108  0.79849  0.27337  1.0000
  C   C958      1.0  0.38209  0.69156  0.37531  1.0000
  C   C959      1.0  0.44601  0.71375  0.26658  1.0000
  C   C960      1.0  0.57398  0.83655  0.27882  1.0000
  H   H963      1.0  0.47495  0.62497  0.27821  1.0000
  S   S319      1.0  0.64438  0.69998  0.30993  1.0000
  H   H964      1.0  0.62271  0.73443  0.24814  1.0000
  H   H965      1.0  0.63163  0.67111  0.26048  1.0000
  N   N83       1.0  0.50124  0.66376  0.28352  1.0000
  C   C961      1.0  0.41815  0.78395  0.33795  1.0000
  H   H966      1.0  0.37942  0.69219  0.43306  1.0000
  H   H967      1.0  0.52642  0.64022  0.28597  1.0000
  S   S320      1.0  0.35297  0.70487  0.47402  1.0000
  C   C962      1.0  0.38626  0.68684  0.39423  1.0000
  S   S321      1.0  0.63478  0.79793  0.28401  1.0000
  C   C963      1.0  0.43446  0.70103  0.26550  1.0000
  H   H968      1.0  0.38988  0.66677  0.43106  1.0000
  C   C964      1.0  0.62701  0.72028  0.25752  1.0000
  C   C965      1.0  0.43930  0.69136  0.24964  1.0000
  C   C966      1.0  0.51126  0.67861  0.28516  1.0000
  H   H969      1.0  0.55065  0.94542  0.26645  1.0000
  H   H970      1.0  0.49098  0.85145  0.26568  1.0000
  H   H971      1.0  0.34154  0.68141  0.42113  1.0000
  H   H972      1.0  0.52731  0.67497  0.27892  1.0000
  H   H973      1.0  0.47407  0.68434  0.28109  1.0000
  C   C967      1.0  0.55737  0.93010  0.26575  1.0000
  C   C968      1.0  0.53349  0.79648  0.28038  1.0000
  H   H974      1.0  0.57625  0.74081  0.30215  1.0000
  Fe  Fe157     1.0  0.33233  0.73032  0.48610  1.0000
  S   S322      1.0  0.54987  0.84980  0.27761  1.0000
  Fe  Fe158     1.0  0.63060  0.77317  0.30987  1.0000
  N   N84       1.0  0.37182  0.68317  0.41042  1.0000
  C   C969      1.0  0.40348  0.77762  0.37302  1.0000
  C   C970      1.0  0.64256  0.78653  0.41682  1.0000
  H   H975      1.0  0.39185  0.77085  0.40429  1.0000
  C   C971      1.0  0.48192  0.66917  0.28155  1.0000
  C   C972      1.0  0.43784  0.77722  0.36348  1.0000
  C   C973      1.0  0.58660  0.83004  0.26233  1.0000
  C   C974      1.0  0.60560  0.81873  0.26377  1.0000
  C   C975      1.0  0.40481  0.77292  0.39288  1.0000
  H   H976      1.0  0.45698  0.65980  0.27754  1.0000
  H   H977      1.0  0.64899  0.77661  0.44601  1.0000
  H   H978      1.0  0.58167  0.83338  0.24855  1.0000
  C   C976      1.0  0.64450  0.80071  0.39948  1.0000
  Fe  Fe159     1.0  0.63802  0.75095  0.34999  1.0000
  C   C977      1.0  0.63208  0.68461  0.26442  1.0000
  C   C978      1.0  0.48437  0.83880  0.26831  1.0000
  C   C979      1.0  0.50172  0.63019  0.28283  1.0000
  H   H979      1.0  0.54757  0.88955  0.25794  1.0000
  H   H980      1.0  0.58533  0.93268  0.27015  1.0000
  H   H981      1.0  0.65574  0.56173  0.26412  1.0000
  C   C980      1.0  0.46953  0.81826  0.25656  1.0000
  C   C981      1.0  0.57532  0.89128  0.26307  1.0000
  H   H982      1.0  0.60130  0.89765  0.26811  1.0000
  S   S323      1.0  0.59858  0.65387  0.25400  1.0000
  H   H983      1.0  0.42440  0.76555  0.41332  1.0000
  H   H984      1.0  0.65652  0.82624  0.38418  1.0000
  C   C982      1.0  0.55576  0.89899  0.26079  1.0000
  S   S324      1.0  0.34350  0.75330  0.46126  1.0000
  H   H985      1.0  0.61531  0.81350  0.25107  1.0000
  H   H986      1.0  0.58346  0.78104  0.27348  1.0000
  H   H987      1.0  0.35948  0.69668  0.35846  1.0000
  S   S325      1.0  0.65496  0.74832  0.31950  1.0000
  H   H988      1.0  0.58209  0.87602  0.26206  1.0000
  S   S326      1.0  0.65290  0.74736  0.37549  1.0000
  C   C983      1.0  0.65024  0.78766  0.43252  1.0000
  Fe  Fe160     1.0  0.54364  0.85622  0.24716  1.0000
  H   H989      1.0  0.34613  0.58519  0.25035  1.0000
  C   C984      1.0  0.65746  0.58936  0.24367  1.0000
  H   H990      1.0  0.52316  0.94219  0.25516  1.0000
  C   C985      1.0  0.65979  0.80303  0.43062  1.0000
  H   H991      1.0  0.36225  0.61380  0.24192  1.0000
  S   S327      1.0  0.51711  0.87956  0.24069  1.0000
  N   N85       1.0  0.66187  0.81671  0.41343  1.0000
  Fe  Fe161     1.0  0.61973  0.63071  0.23837  1.0000
  S   S328      1.0  0.44423  0.62188  0.23809  1.0000
  H   H992      1.0  0.66290  0.78195  0.34654  1.0000
  Fe  Fe162     1.0  0.44829  0.78360  0.70796  1.0000
  S   S329      1.0  0.47529  0.75998  0.70201  1.0000
  S   S330      1.0  0.41829  0.78317  0.70317  1.0000
  Fe  Fe163     1.0  0.47144  0.80938  0.71783  1.0000
  H   H993      1.0  0.56873  0.81455  0.69975  1.0000
  Fe  Fe164     1.0  0.48990  0.78525  0.68594  1.0000
  S   S331      1.0  0.50606  0.78731  0.65463  1.0000
  H   H994      1.0  0.37210  0.77751  0.54708  1.0000
  S   S332      1.0  0.46252  0.80866  0.69022  1.0000
  H   H995      1.0  0.43066  0.71713  0.56803  1.0000
  Fe  Fe165     1.0  0.60410  0.77537  0.71215  1.0000
  S   S333      1.0  0.61508  0.79154  0.68186  1.0000
  H   H996      1.0  0.36232  0.78190  0.50870  1.0000
  Fe  Fe166     1.0  0.62731  0.73554  0.70382  1.0000
  S   S334      1.0  0.64001  0.74784  0.67265  1.0000
  S   S335      1.0  0.63064  0.70317  0.71663  1.0000
  Fe  Fe167     1.0  0.64458  0.77163  0.68522  1.0000
  S   S336      1.0  0.45430  0.78671  0.73636  1.0000
  Fe  Fe168     1.0  0.60991  0.76666  0.67150  1.0000
  S   S337      1.0  0.59856  0.77355  0.64354  1.0000
  S   S338      1.0  0.63412  0.75782  0.71689  1.0000
  S   S339      1.0  0.59662  0.75192  0.70139  1.0000
  Fe  Fe169     1.0  0.38915  0.74775  0.62338  1.0000
  C   C986      1.0  0.52748  0.82574  0.67010  1.0000
  S   S340      1.0  0.41532  0.73822  0.63843  1.0000
  Fe  Fe170     1.0  0.38111  0.74602  0.58409  1.0000
  C   C987      1.0  0.59437  0.81815  0.73511  1.0000
  S   S341      1.0  0.39393  0.73703  0.55484  1.0000
  C   C988      1.0  0.52303  0.82745  0.68982  1.0000
  H   H997      1.0  0.65333  0.82079  0.61217  1.0000
  S   S342      1.0  0.39361  0.76708  0.59335  1.0000
  S   S343      1.0  0.37940  0.72513  0.61324  1.0000
  C   C989      1.0  0.37521  0.73416  0.54454  1.0000
  C   C990      1.0  0.35677  0.73241  0.55635  1.0000
  C   C991      1.0  0.44432  0.72388  0.59643  1.0000
  H   H998      1.0  0.51743  0.83255  0.72549  1.0000
  H   H999      1.0  0.53642  0.74000  0.73523  1.0000
  H   H1000     1.0  0.37106  0.80072  0.52957  1.0000
  C   C992      1.0  0.36299  0.73301  0.51611  1.0000
  H   H1001     1.0  0.43422  0.73864  0.59563  1.0000
  C   C993      1.0  0.34439  0.73181  0.52799  1.0000
  H   H1002     1.0  0.45615  0.72407  0.58302  1.0000
  H   H1003     1.0  0.34569  0.68883  0.58340  1.0000
  H   H1004     1.0  0.51572  0.82809  0.66211  1.0000
  H   H1005     1.0  0.34937  0.71088  0.60331  1.0000
  C   C994      1.0  0.33540  0.70671  0.60553  1.0000
  C   C995      1.0  0.65091  0.77951  0.62476  1.0000
  N   N86       1.0  0.53778  0.82369  0.70016  1.0000
  C   C996      1.0  0.37843  0.73419  0.52442  1.0000
  Fe  Fe171     1.0  0.34886  0.74321  0.62062  1.0000
  H   H1006     1.0  0.34015  0.65607  0.54404  1.0000
  C   C997      1.0  0.36238  0.79186  0.54209  1.0000
  C   C998      1.0  0.41704  0.76913  0.68661  1.0000
  C   C999      1.0  0.39938  0.77214  0.68000  1.0000
  C   C1000     1.0  0.39851  0.76247  0.66547  1.0000
  C   C1001     1.0  0.41527  0.74955  0.65765  1.0000
  C   C1002     1.0  0.43272  0.74604  0.66473  1.0000
  C   C1003     1.0  0.43361  0.75580  0.67913  1.0000
  H   H1007     1.0  0.38644  0.78231  0.68582  1.0000
  H   H1008     1.0  0.38492  0.76516  0.66025  1.0000
  H   H1009     1.0  0.44569  0.73591  0.65891  1.0000
  H   H1010     1.0  0.44716  0.75303  0.68434  1.0000
  C   C1004     1.0  0.53182  0.78154  0.65184  1.0000
  C   C1005     1.0  0.54083  0.77451  0.66821  1.0000
  C   C1006     1.0  0.56141  0.77152  0.66575  1.0000
  C   C1007     1.0  0.57302  0.77542  0.64692  1.0000
  C   C1008     1.0  0.56402  0.78187  0.63053  1.0000
  C   C1009     1.0  0.54345  0.78496  0.63298  1.0000
  H   H1011     1.0  0.53197  0.77156  0.68278  1.0000
  H   H1012     1.0  0.56818  0.76651  0.67845  1.0000
  H   H1013     1.0  0.57292  0.78485  0.61593  1.0000
  H   H1014     1.0  0.53653  0.79032  0.62028  1.0000
  H   H1015     1.0  0.43185  0.69879  0.62914  1.0000
  C   C1010     1.0  0.34799  0.78336  0.51847  1.0000
  H   H1016     1.0  0.60705  0.81237  0.72473  1.0000
  H   H1017     1.0  0.57734  0.81145  0.66474  1.0000
  S   S344      1.0  0.50020  0.78806  0.71202  1.0000
  C   C1011     1.0  0.34139  0.73130  0.54811  1.0000
  H   H1018     1.0  0.55078  0.81869  0.64573  1.0000
  H   H1019     1.0  0.63825  0.78522  0.63528  1.0000
  H   H1020     1.0  0.41031  0.69313  0.57072  1.0000
  H   H1021     1.0  0.36540  0.73337  0.50052  1.0000
  H   H1022     1.0  0.45139  0.72117  0.60932  1.0000
  H   H1023     1.0  0.65766  0.80888  0.63671  1.0000
  H   H1024     1.0  0.50769  0.83157  0.69684  1.0000
  H   H1025     1.0  0.35437  0.73171  0.57191  1.0000
  C   C1012     1.0  0.55709  0.81798  0.69140  1.0000
  S   S345      1.0  0.35830  0.76423  0.63347  1.0000
  H   H1026     1.0  0.39274  0.73543  0.51520  1.0000
  C   C1013     1.0  0.54715  0.82038  0.66093  1.0000
  H   H1027     1.0  0.40096  0.67124  0.60300  1.0000
  C   C1014     1.0  0.41027  0.68153  0.60162  1.0000
  N   N87       1.0  0.43803  0.79627  0.64397  1.0000
  C   C1015     1.0  0.43210  0.79002  0.63024  1.0000
  C   C1016     1.0  0.42520  0.80952  0.65448  1.0000
  C   C1017     1.0  0.41276  0.79687  0.62694  1.0000
  C   C1018     1.0  0.40574  0.81660  0.65162  1.0000
  C   C1019     1.0  0.39951  0.81020  0.63775  1.0000
  C   C1020     1.0  0.45832  0.78910  0.64730  1.0000
  H   H1028     1.0  0.44212  0.77926  0.62214  1.0000
  H   H1029     1.0  0.42977  0.81413  0.66568  1.0000
  H   H1030     1.0  0.40792  0.79144  0.61648  1.0000
  H   H1031     1.0  0.39545  0.82655  0.66051  1.0000
  H   H1032     1.0  0.38434  0.81525  0.63564  1.0000
  H   H1033     1.0  0.45839  0.78497  0.66331  1.0000
  H   H1034     1.0  0.46592  0.77564  0.64121  1.0000
  H   H1035     1.0  0.46706  0.80074  0.64053  1.0000
  N   N88       1.0  0.43308  0.70882  0.59824  1.0000
  C   C1021     1.0  0.42705  0.70735  0.58208  1.0000
  C   C1022     1.0  0.42776  0.69709  0.61614  1.0000
  S   S346      1.0  0.57858  0.78684  0.73481  1.0000
  C   C1023     1.0  0.41641  0.68318  0.61807  1.0000
  H   H1036     1.0  0.41190  0.67421  0.63237  1.0000
  C   C1024     1.0  0.56207  0.81634  0.67163  1.0000
  H   H1037     1.0  0.35757  0.80017  0.55428  1.0000
  Fe  Fe172     1.0  0.48265  0.76515  0.72873  1.0000
  C   C1025     1.0  0.41558  0.69371  0.58350  1.0000
  H   H1038     1.0  0.53528  0.80983  0.73025  1.0000
  S   S347      1.0  0.47198  0.83840  0.72437  1.0000
  Fe  Fe173     1.0  0.36216  0.78188  0.60258  1.0000
  S   S348      1.0  0.34994  0.76253  0.59071  1.0000
  S   S349      1.0  0.35213  0.81440  0.59247  1.0000
  H   H1039     1.0  0.60603  0.84281  0.73618  1.0000
  H   H1040     1.0  0.64075  0.75286  0.62749  1.0000
  N   N89       1.0  0.34551  0.78836  0.53628  1.0000
  C   C1026     1.0  0.33215  0.77970  0.51273  1.0000
  C   C1027     1.0  0.65227  0.76114  0.62042  1.0000
  C   C1028     1.0  0.33331  0.69411  0.59435  1.0000
  C   C1029     1.0  0.65917  0.65263  0.73286  1.0000
  H   H1041     1.0  0.65409  0.65747  0.71900  1.0000
  H   H1042     1.0  0.54257  0.83340  0.72397  1.0000
  C   C1030     1.0  0.53298  0.82493  0.72098  1.0000
  H   H1043     1.0  0.33416  0.77549  0.49870  1.0000
  Fe  Fe174     1.0  0.51074  0.85861  0.80602  1.0000
  S   S350      1.0  0.54109  0.84352  0.81142  1.0000
  S   S351      1.0  0.49319  0.83670  0.80562  1.0000
  Fe  Fe175     1.0  0.51758  0.89937  0.80551  1.0000
  S   S352      1.0  0.54851  0.88690  0.81044  1.0000
  S   S353      1.0  0.50441  0.93226  0.80241  1.0000
  Fe  Fe176     1.0  0.55076  0.86856  0.78847  1.0000
  S   S354      1.0  0.57679  0.86402  0.76374  1.0000
  Fe  Fe177     1.0  0.53533  0.86322  0.83280  1.0000
  S   S355      1.0  0.54462  0.85153  0.86203  1.0000
  S   S356      1.0  0.52078  0.88270  0.78161  1.0000
  S   S357      1.0  0.50411  0.87668  0.82934  1.0000
  H   H1044     1.0  0.50698  0.79026  0.88667  1.0000
  H   H1045     1.0  0.59530  0.92588  0.77868  1.0000
  C   C1031     1.0  0.42746  0.73813  0.81428  1.0000
  C   C1032     1.0  0.56251  0.73717  0.74663  1.0000
  Fe  Fe178     1.0  0.43708  0.67718  0.83133  1.0000
  S   S358      1.0  0.41146  0.68364  0.85570  1.0000
  S   S359      1.0  0.43215  0.69112  0.80077  1.0000
  Fe  Fe179     1.0  0.46142  0.64790  0.85917  1.0000
  S   S360      1.0  0.43768  0.65185  0.88587  1.0000
  S   S361      1.0  0.48911  0.62529  0.86293  1.0000
  Fe  Fe180     1.0  0.41746  0.65077  0.86670  1.0000
  S   S362      1.0  0.39262  0.63398  0.87660  1.0000
  Fe  Fe181     1.0  0.43432  0.68412  0.87207  1.0000
  S   S363      1.0  0.43295  0.71025  0.88488  1.0000
  S   S364      1.0  0.44166  0.64444  0.84109  1.0000
  S   S365      1.0  0.45953  0.68021  0.84673  1.0000
  Fe  Fe182     1.0  0.58698  0.63939  0.81804  1.0000
  S   S366      1.0  0.58698  0.61826  0.84699  1.0000
  S   S367      1.0  0.56315  0.64700  0.80042  1.0000
  Fe  Fe183     1.0  0.62222  0.65364  0.82086  1.0000
  S   S368      1.0  0.62528  0.63409  0.85039  1.0000
  S   S369      1.0  0.64137  0.67528  0.80449  1.0000
  Fe  Fe184     1.0  0.61984  0.61110  0.83718  1.0000
  C   C1033     1.0  0.54480  0.77882  0.98446  1.0000
  Fe  Fe185     1.0  0.59218  0.64295  0.85756  1.0000
  S   S370      1.0  0.57188  0.65015  0.88529  1.0000
  S   S371      1.0  0.61946  0.62983  0.80706  1.0000
  S   S372      1.0  0.58971  0.66474  0.82937  1.0000
  Fe  Fe186     1.0  0.50367  0.72656  0.94163  1.0000
  S   S373      1.0  0.51042  0.74982  0.91496  1.0000
  S   S374      1.0  0.49120  0.70039  0.94217  1.0000
  Fe  Fe187     1.0  0.52752  0.73871  0.96515  1.0000
  S   S375      1.0  0.53692  0.76262  0.94011  1.0000
  Fe  Fe188     1.0  0.50544  0.76960  0.93639  1.0000
  S   S376      1.0  0.48975  0.80120  0.92779  1.0000
  Fe  Fe189     1.0  0.54115  0.74133  0.92054  1.0000
  S   S377      1.0  0.56692  0.73592  0.89596  1.0000
  S   S378      1.0  0.49543  0.74709  0.96306  1.0000
  S   S379      1.0  0.53498  0.71678  0.94566  1.0000
  Fe  Fe190     1.0  0.36320  0.56060  0.83100  1.0000
  C   C1034     1.0  0.64604  0.69966  0.76819  1.0000
  S   S380      1.0  0.38969  0.57428  0.82574  1.0000
  C   C1035     1.0  0.52010  0.98118  0.80776  1.0000
  H   H1046     1.0  0.56764  0.77462  0.85890  1.0000
  H   H1047     1.0  0.54863  0.83914  0.77188  1.0000
  H   H1048     1.0  0.49540  0.96708  0.84625  1.0000
  H   H1049     1.0  0.58704  0.89905  0.76783  1.0000
  C   C1036     1.0  0.40648  0.64889  0.80122  1.0000
  H   H1050     1.0  0.59570  0.66453  0.93879  1.0000
  H   H1051     1.0  0.64391  0.62851  0.74347  1.0000
  S   S381      1.0  0.36412  0.54019  0.81130  1.0000
  C   C1037     1.0  0.55675  0.69977  0.76622  1.0000
  C   C1038     1.0  0.56969  0.67497  0.88567  1.0000
  C   C1039     1.0  0.58561  0.68429  0.87699  1.0000
  C   C1040     1.0  0.58449  0.70345  0.87943  1.0000
  C   C1041     1.0  0.56741  0.71326  0.89043  1.0000
  C   C1042     1.0  0.55115  0.70428  0.89815  1.0000
  C   C1043     1.0  0.55230  0.68515  0.89581  1.0000
  H   H1052     1.0  0.59906  0.67648  0.86902  1.0000
  H   H1053     1.0  0.59706  0.71039  0.87335  1.0000
  H   H1054     1.0  0.53769  0.71196  0.90613  1.0000
  H   H1055     1.0  0.53973  0.67822  0.90201  1.0000
  C   C1044     1.0  0.63645  0.68508  0.78078  1.0000
  Fe  Fe191     1.0  0.33265  0.55565  0.81059  1.0000
  C   C1045     1.0  0.39145  0.61782  0.86209  1.0000
  C   C1046     1.0  0.37433  0.61034  0.86534  1.0000
  C   C1047     1.0  0.37356  0.59671  0.85450  1.0000
  C   C1048     1.0  0.38998  0.59051  0.84042  1.0000
  C   C1049     1.0  0.40703  0.59794  0.83725  1.0000
  C   C1050     1.0  0.40773  0.61154  0.84799  1.0000
  H   H1056     1.0  0.36167  0.61500  0.87633  1.0000
  H   H1057     1.0  0.36029  0.59107  0.85698  1.0000
  H   H1058     1.0  0.41977  0.59318  0.82639  1.0000
  H   H1059     1.0  0.42116  0.61657  0.84571  1.0000
  C   C1051     1.0  0.44983  0.70731  0.90015  1.0000
  C   C1052     1.0  0.45402  0.72409  0.90367  1.0000
  C   C1053     1.0  0.46714  0.72212  0.91610  1.0000
  C   C1054     1.0  0.47584  0.70334  0.92538  1.0000
  C   C1055     1.0  0.47180  0.68656  0.92169  1.0000
  C   C1056     1.0  0.45898  0.68852  0.90896  1.0000
  H   H1060     1.0  0.44691  0.73866  0.89698  1.0000
  H   H1061     1.0  0.47006  0.73513  0.91899  1.0000
  H   H1062     1.0  0.47839  0.67201  0.92894  1.0000
  H   H1063     1.0  0.45569  0.67552  0.90645  1.0000
  C   C1057     1.0  0.50901  0.63003  0.84375  1.0000
  C   C1058     1.0  0.52757  0.61758  0.84428  1.0000
  C   C1059     1.0  0.54405  0.62220  0.83019  1.0000
  C   C1060     1.0  0.54207  0.63936  0.81565  1.0000
  C   C1061     1.0  0.52332  0.65125  0.81441  1.0000
  C   C1062     1.0  0.50677  0.64656  0.82847  1.0000
  H   H1064     1.0  0.52930  0.60451  0.85578  1.0000
  H   H1065     1.0  0.55830  0.61240  0.83051  1.0000
  H   H1066     1.0  0.52167  0.66440  0.80301  1.0000
  H   H1067     1.0  0.49241  0.65589  0.82757  1.0000
  C   C1063     1.0  0.47813  0.72682  0.76509  1.0000
  C   C1064     1.0  0.46057  0.72910  0.75870  1.0000
  C   C1065     1.0  0.44674  0.71762  0.76942  1.0000
  C   C1066     1.0  0.45038  0.70403  0.78663  1.0000
  C   C1067     1.0  0.46809  0.70156  0.79283  1.0000
  C   C1068     1.0  0.48197  0.71295  0.78207  1.0000
  C   C1069     1.0  0.37476  0.64226  0.81681  1.0000
  H   H1068     1.0  0.43309  0.71951  0.76452  1.0000
  H   H1069     1.0  0.47125  0.69072  0.80574  1.0000
  H   H1070     1.0  0.49563  0.71105  0.78693  1.0000
  C   C1070     1.0  0.52905  0.83791  0.88029  1.0000
  C   C1071     1.0  0.50897  0.84084  0.88003  1.0000
  C   C1072     1.0  0.49678  0.83010  0.89510  1.0000
  C   C1073     1.0  0.50475  0.81596  0.91013  1.0000
  C   C1074     1.0  0.52480  0.81311  0.91036  1.0000
  C   C1075     1.0  0.53685  0.82420  0.89561  1.0000
  H   H1071     1.0  0.50275  0.85151  0.86840  1.0000
  H   H1072     1.0  0.48125  0.83243  0.89490  1.0000
  H   H1073     1.0  0.53101  0.80262  0.92206  1.0000
  H   H1074     1.0  0.55233  0.82199  0.89597  1.0000
  C   C1076     1.0  0.51746  0.94794  0.80703  1.0000
  C   C1077     1.0  0.53471  0.94022  0.81459  1.0000
  C   C1078     1.0  0.54462  0.95282  0.81867  1.0000
  C   C1079     1.0  0.53729  0.97329  0.81548  1.0000
  H   H1075     1.0  0.54388  0.88979  0.87214  1.0000
  C   C1080     1.0  0.51025  0.96851  0.80348  1.0000
  H   H1076     1.0  0.54031  0.92451  0.81766  1.0000
  H   H1077     1.0  0.55793  0.94663  0.82462  1.0000
  H   H1078     1.0  0.44787  0.78507  0.77936  1.0000
  H   H1079     1.0  0.57207  0.95863  0.77750  1.0000
  C   C1081     1.0  0.56873  0.94685  0.77266  1.0000
  C   C1082     1.0  0.48842  0.83706  0.78256  1.0000
  C   C1083     1.0  0.48577  0.81974  0.77865  1.0000
  C   C1084     1.0  0.48100  0.81991  0.76071  1.0000
  C   C1085     1.0  0.57705  0.91342  0.76737  1.0000
  H   H1080     1.0  0.60000  0.72285  0.77145  1.0000
  C   C1086     1.0  0.48651  0.85450  0.76835  1.0000
  H   H1081     1.0  0.48756  0.80619  0.78950  1.0000
  H   H1082     1.0  0.47909  0.80651  0.75770  1.0000
  H   H1083     1.0  0.48283  0.95180  0.83978  1.0000
  H   H1084     1.0  0.48837  0.86795  0.77130  1.0000
  N   N90       1.0  0.50444  0.93610  0.85708  1.0000
  C   C1087     1.0  0.52072  0.93820  0.86255  1.0000
  C   C1088     1.0  0.50188  0.91773  0.85730  1.0000
  C   C1089     1.0  0.53524  0.92163  0.86789  1.0000
  C   C1090     1.0  0.51591  0.90086  0.86296  1.0000
  C   C1091     1.0  0.53277  0.90284  0.86808  1.0000
  C   C1092     1.0  0.48918  0.95352  0.85180  1.0000
  H   H1085     1.0  0.52284  0.95278  0.86225  1.0000
  H   H1086     1.0  0.48904  0.91604  0.85289  1.0000
  H   H1087     1.0  0.54837  0.92337  0.87172  1.0000
  H   H1088     1.0  0.51381  0.88628  0.86330  1.0000
  H   H1089     1.0  0.39397  0.67999  0.81749  1.0000
  H   H1090     1.0  0.39042  0.66143  0.83965  1.0000
  H   H1091     1.0  0.55473  0.68503  0.77385  1.0000
  H   H1092     1.0  0.52005  0.79275  0.97012  1.0000
  C   C1093     1.0  0.55245  0.78177  0.85785  1.0000
  C   C1094     1.0  0.52803  0.93812  0.75366  1.0000
  H   H1093     1.0  0.47951  0.86841  0.73980  1.0000
  H   H1094     1.0  0.65573  0.70566  0.77346  1.0000
  C   C1095     1.0  0.56156  0.83322  0.76194  1.0000
  H   H1095     1.0  0.64728  0.54381  0.87930  1.0000
  H   H1096     1.0  0.51731  0.66360  0.95943  1.0000
  C   C1096     1.0  0.56231  0.81588  0.75582  1.0000
  C   C1097     1.0  0.63175  0.69763  0.74156  1.0000
  N   N91       1.0  0.42227  0.58202  0.88648  1.0000
  C   C1098     1.0  0.43011  0.59523  0.89143  1.0000
  C   C1099     1.0  0.43273  0.57184  0.87202  1.0000
  C   C1100     1.0  0.44879  0.59871  0.88162  1.0000
  C   C1101     1.0  0.45135  0.57519  0.86172  1.0000
  C   C1102     1.0  0.45939  0.58875  0.86658  1.0000
  C   C1103     1.0  0.40289  0.57819  0.89730  1.0000
  H   H1097     1.0  0.42176  0.60345  0.90277  1.0000
  H   H1098     1.0  0.42647  0.56144  0.86802  1.0000
  H   H1099     1.0  0.45500  0.60919  0.88553  1.0000
  H   H1100     1.0  0.47378  0.59163  0.85870  1.0000
  H   H1101     1.0  0.40459  0.56647  0.91062  1.0000
  H   H1102     1.0  0.39302  0.59183  0.90178  1.0000
  H   H1103     1.0  0.39530  0.57353  0.88796  1.0000
  N   N92       1.0  0.52352  0.65403  0.87216  1.0000
  C   C1104     1.0  0.53648  0.66060  0.85572  1.0000
  C   C1105     1.0  0.50536  0.66565  0.87737  1.0000
  C   C1106     1.0  0.53122  0.67904  0.84373  1.0000
  C   C1107     1.0  0.49968  0.68429  0.86585  1.0000
  C   C1108     1.0  0.51267  0.69093  0.84884  1.0000
  C   C1109     1.0  0.52920  0.63473  0.88470  1.0000
  H   H1104     1.0  0.55092  0.65149  0.85166  1.0000
  H   H1105     1.0  0.49513  0.66046  0.89045  1.0000
  H   H1106     1.0  0.54148  0.68389  0.83051  1.0000
  H   H1107     1.0  0.48525  0.69343  0.87006  1.0000
  H   H1108     1.0  0.50838  0.70524  0.83965  1.0000
  H   H1109     1.0  0.51725  0.62633  0.88826  1.0000
  H   H1110     1.0  0.54277  0.62563  0.87727  1.0000
  H   H1111     1.0  0.53228  0.63678  0.89841  1.0000
  H   H1112     1.0  0.55874  0.79166  0.82634  1.0000
  C   C1110     1.0  0.62380  0.67753  0.77396  1.0000
  S   S382      1.0  0.35311  0.53998  0.85892  1.0000
  H   H1113     1.0  0.54763  0.66037  0.93374  1.0000
  H   H1114     1.0  0.58280  0.69734  0.77713  1.0000
  H   H1115     1.0  0.36690  0.61833  0.80907  1.0000
  H   H1116     1.0  0.43392  0.75475  0.78485  1.0000
  H   H1117     1.0  0.48809  0.80618  0.84283  1.0000
  H   H1118     1.0  0.60282  0.73351  0.74560  1.0000
  H   H1119     1.0  0.41769  0.73067  0.81083  1.0000
  C   C1111     1.0  0.59375  0.83539  0.74155  1.0000
  H   H1120     1.0  0.42421  0.63045  0.78081  1.0000
  C   C1112     1.0  0.43668  0.75175  0.79966  1.0000
  H   H1121     1.0  0.47102  0.76720  0.77852  1.0000
  S   S383      1.0  0.63598  0.57943  0.84083  1.0000
  C   C1113     1.0  0.52641  0.79121  0.98286  1.0000
  C   C1114     1.0  0.55112  0.94980  0.76607  1.0000
  C   C1115     1.0  0.65331  0.63655  0.74666  1.0000
  C   C1116     1.0  0.54743  0.79119  0.83965  1.0000
  H   H1122     1.0  0.36120  0.64491  0.82757  1.0000
  H   H1123     1.0  0.44718  0.73994  0.85214  1.0000
  C   C1117     1.0  0.56452  0.67609  0.96561  1.0000
  H   H1124     1.0  0.36973  0.67560  0.82853  1.0000
  H   H1125     1.0  0.65571  0.57637  0.87458  1.0000
  H   H1126     1.0  0.55274  0.77046  0.97312  1.0000
  H   H1127     1.0  0.36267  0.50209  0.80400  1.0000
  C   C1118     1.0  0.58179  0.66951  0.93305  1.0000
  H   H1128     1.0  0.39854  0.61079  0.78581  1.0000
  C   C1119     1.0  0.44418  0.74323  0.83738  1.0000
  C   C1120     1.0  0.58170  0.92847  0.77340  1.0000
  H   H1129     1.0  0.41786  0.65714  0.79929  1.0000
  C   C1121     1.0  0.39573  0.62294  0.79336  1.0000
  Fe  Fe192     1.0  0.35147  0.52099  0.83894  1.0000
  H   H1130     1.0  0.42418  0.72339  0.84476  1.0000
  C   C1122     1.0  0.49318  0.81059  0.85423  1.0000
  H   H1131     1.0  0.49258  0.82677  0.85002  1.0000
  C   C1123     1.0  0.57740  0.84284  0.75512  1.0000
  C   C1124     1.0  0.57264  0.70683  0.76798  1.0000
  H   H1132     1.0  0.45942  0.56744  0.84996  1.0000
  C   C1125     1.0  0.55930  0.91688  0.76092  1.0000
  C   C1126     1.0  0.41016  0.63383  0.79071  1.0000
  N   N93       1.0  0.56447  0.66970  0.94914  1.0000
  C   C1127     1.0  0.45315  0.75679  0.82242  1.0000
  C   C1128     1.0  0.64352  0.70611  0.74860  1.0000
  H   H1133     1.0  0.61583  0.66682  0.78367  1.0000
  H   H1134     1.0  0.55007  0.80842  0.76140  1.0000
  H   H1135     1.0  0.48271  0.80762  0.86843  1.0000
  C   C1129     1.0  0.51825  0.79063  0.87337  1.0000
  S   S384      1.0  0.33278  0.57794  0.82770  1.0000
  H   H1136     1.0  0.47721  0.95562  0.86481  1.0000
  C   C1130     1.0  0.52773  0.80030  0.83876  1.0000
  H   H1137     1.0  0.49687  0.97464  0.79764  1.0000
  H   H1138     1.0  0.54159  0.77448  0.88904  1.0000
  N   N94       1.0  0.51348  0.80004  0.85552  1.0000
  C   C1131     1.0  0.43122  0.73391  0.83326  1.0000
  H   H1139     1.0  0.46448  0.78493  0.79431  1.0000
  C   C1132     1.0  0.38558  0.66827  0.82546  1.0000
  C   C1133     1.0  0.53779  0.78155  0.87482  1.0000
  H   H1140     1.0  0.52389  0.80775  0.82460  1.0000
  C   C1134     1.0  0.53071  0.66655  0.96157  1.0000
  N   N95       1.0  0.38887  0.65305  0.81391  1.0000
  H   H1141     1.0  0.51669  0.95025  0.75958  1.0000
  H   H1142     1.0  0.58218  0.65935  0.92339  1.0000
  C   C1135     1.0  0.65929  0.63118  0.76479  1.0000
  C   C1136     1.0  0.45863  0.77523  0.78830  1.0000
  N   N96       1.0  0.54646  0.93479  0.76065  1.0000
  C   C1137     1.0  0.53062  0.67304  0.97841  1.0000
  H   H1143     1.0  0.46325  0.76393  0.82573  1.0000
  C   C1138     1.0  0.54765  0.67774  0.98055  1.0000
  C   C1139     1.0  0.54786  0.66496  0.94699  1.0000
  N   N97       1.0  0.44912  0.76108  0.80391  1.0000
  C   C1140     1.0  0.59212  0.73264  0.75984  1.0000
  S   S385      1.0  0.49508  0.74167  0.75237  1.0000
  N   N98       1.0  0.57528  0.72537  0.75830  1.0000
  C   C1141     1.0  0.37787  0.62724  0.80639  1.0000
  H   H1144     1.0  0.55582  0.90505  0.75628  1.0000
  C   C1142     1.0  0.48139  0.85476  0.75057  1.0000
  H   H1145     1.0  0.58135  0.68463  0.92387  1.0000
  H   H1146     1.0  0.58713  0.74767  0.76333  1.0000
  H   H1147     1.0  0.45760  0.73970  0.74550  1.0000
  C   C1143     1.0  0.62174  0.68351  0.75430  1.0000
  H   H1148     1.0  0.54099  0.96404  0.76582  1.0000
  H   H1149     1.0  0.65472  0.61864  0.77547  1.0000
  C   C1144     1.0  0.57867  0.80832  0.74241  1.0000
  C   C1145     1.0  0.54359  0.71179  0.75443  1.0000
  H   H1150     1.0  0.52149  0.92476  0.75891  1.0000
  S   S386      1.0  0.55012  0.98797  0.82189  1.0000
  C   C1146     1.0  0.54653  0.73057  0.74449  1.0000
  C   C1147     1.0  0.47846  0.83753  0.74678  1.0000
  H   H1151     1.0  0.61253  0.67702  0.74891  1.0000
  H   H1152     1.0  0.53109  0.70663  0.75298  1.0000
  H   H1153     1.0  0.57736  0.68068  0.96696  1.0000
  C   C1148     1.0  0.66152  0.57654  0.83207  1.0000
  H   H1154     1.0  0.56465  0.75180  0.73888  1.0000
  H   H1155     1.0  0.66217  0.60669  0.83116  1.0000
  C   C1149     1.0  0.66227  0.54461  0.87922  1.0000
  H   H1156     1.0  0.65141  0.71694  0.73874  1.0000
  H   H1157     1.0  0.53085  0.94182  0.73735  1.0000
  C   C1150     1.0  0.68156  0.25998  0.14939  1.0000
  C   C1151     1.0  0.85510  0.41252  0.00963  1.0000
  H   H1158     1.0  0.87686  0.45315  0.15088  1.0000
  H   H1159     1.0  0.79710  0.36861  0.06612  1.0000
  S   S387      1.0  0.96484  0.39890  0.22498  1.0000
  C   C1152     1.0  0.79507  0.42721  0.20430  1.0000
  H   H1160     1.0  0.89772  0.37989  0.19950  1.0000
  H   H1161     1.0  0.81855  0.43650  0.18101  1.0000
  H   H1162     1.0  0.68982  0.46608  0.22299  1.0000
  N   N99       1.0  0.84522  0.37405  0.07772  1.0000
  H   H1163     1.0  0.93272  0.37938  0.18796  1.0000
  S   S388      1.0  0.82279  0.48569  0.11797  1.0000
  C   C1153     1.0  0.72458  0.45144  0.17278  1.0000
  C   C1154     1.0  0.82842  0.36682  0.05603  1.0000
  H   H1164     1.0  0.85927  0.36738  0.04949  1.0000
  Fe  Fe193     1.0  0.72303  0.33391  0.21605  1.0000
  S   S389      1.0  0.75351  0.33739  0.19969  1.0000
  C   C1155     1.0  0.81134  0.42438  0.18894  1.0000
  C   C1156     1.0  0.87669  0.41835  0.22267  1.0000
  S   S390      1.0  0.74279  0.38096  0.21257  1.0000
  H   H1165     1.0  0.78067  0.44230  0.16206  1.0000
  Fe  Fe194     1.0  0.73903  0.36858  0.18829  1.0000
  S   S391      1.0  0.74711  0.38608  0.15778  1.0000
  Fe  Fe195     1.0  0.75513  0.34945  0.22519  1.0000
  S   S392      1.0  0.70826  0.36424  0.20238  1.0000
  H   H1166     1.0  0.86327  0.42397  0.23239  1.0000
  S   S393      1.0  0.82162  0.40009  0.00976  1.0000
  Fe  Fe196     1.0  0.86551  0.43334  0.08043  1.0000
  S   S394      1.0  0.87932  0.40922  0.10279  1.0000
  S   S395      1.0  0.87461  0.43218  0.04812  1.0000
  Fe  Fe197     1.0  0.84199  0.45714  0.11121  1.0000
  S   S396      1.0  0.85311  0.43477  0.13624  1.0000
  C   C1157     1.0  0.67202  0.23199  0.14415  1.0000
  Fe  Fe198     1.0  0.88250  0.43335  0.11587  1.0000
  S   S397      1.0  0.91041  0.43265  0.12560  1.0000
  Fe  Fe199     1.0  0.84873  0.41283  0.12113  1.0000
  S   S398      1.0  0.83855  0.38516  0.13823  1.0000
  S   S399      1.0  0.87174  0.45726  0.09166  1.0000
  S   S400      1.0  0.83454  0.43534  0.09793  1.0000
  C   C1158     1.0  0.83642  0.40944  0.01987  1.0000
  C   C1159     1.0  0.82938  0.41353  0.03881  1.0000
  C   C1160     1.0  0.84104  0.42039  0.04765  1.0000
  C   C1161     1.0  0.85981  0.42327  0.03754  1.0000
  H   H1167     1.0  0.88131  0.42163  0.01060  1.0000
  H   H1168     1.0  0.81482  0.41142  0.04668  1.0000
  H   H1169     1.0  0.83543  0.42355  0.06221  1.0000
  C   C1162     1.0  0.77247  0.38609  0.15222  1.0000
  C   C1163     1.0  0.78577  0.36976  0.16014  1.0000
  C   C1164     1.0  0.80602  0.36960  0.15554  1.0000
  C   C1165     1.0  0.81304  0.38603  0.14355  1.0000
  C   C1166     1.0  0.79976  0.40254  0.13576  1.0000
  C   C1167     1.0  0.77949  0.40245  0.13987  1.0000
  H   H1170     1.0  0.78055  0.35700  0.16948  1.0000
  H   H1171     1.0  0.81625  0.35671  0.16146  1.0000
  H   H1172     1.0  0.80503  0.41533  0.12654  1.0000
  H   H1173     1.0  0.76926  0.41515  0.13372  1.0000
  C   C1168     1.0  0.82033  0.45820  0.01046  1.0000
  H   H1174     1.0  0.67091  0.26945  0.20460  1.0000
  C   C1169     1.0  0.68274  0.45885  0.21535  1.0000
  C   C1170     1.0  0.69730  0.43090  0.19843  1.0000
  C   C1171     1.0  0.78423  0.45677  0.15855  1.0000
  C   C1172     1.0  0.88963  0.46383  0.16942  1.0000
  H   H1175     1.0  0.81178  0.45501  0.02525  1.0000
  C   C1173     1.0  0.90970  0.42045  0.20478  1.0000
  H   H1176     1.0  0.86556  0.39216  0.07430  1.0000
  C   C1174     1.0  0.94464  0.37022  0.22806  1.0000
  H   H1177     1.0  0.73542  0.45947  0.16303  1.0000
  H   H1178     1.0  0.67268  0.34575  0.22056  1.0000
  C   C1175     1.0  0.92525  0.45534  0.16472  1.0000
  C   C1176     1.0  0.92596  0.44477  0.15044  1.0000
  C   C1177     1.0  0.90856  0.44411  0.14520  1.0000
  C   C1178     1.0  0.89035  0.45348  0.15488  1.0000
  H   H1179     1.0  0.93883  0.45643  0.16796  1.0000
  H   H1180     1.0  0.94010  0.43762  0.14294  1.0000
  C   C1179     1.0  0.81063  0.36994  0.06949  1.0000
  H   H1181     1.0  0.67546  0.44792  0.22687  1.0000
  H   H1182     1.0  0.82734  0.38178  0.10439  1.0000
  H   H1183     1.0  0.69446  0.27343  0.22290  1.0000
  H   H1184     1.0  0.92940  0.47080  0.11060  1.0000
  H   H1185     1.0  0.83040  0.40357  0.17160  1.0000
  H   H1186     1.0  0.89091  0.44189  0.22151  1.0000
  C   C1180     1.0  0.69666  0.30281  0.20668  1.0000
  C   C1181     1.0  0.69059  0.31796  0.19142  1.0000
  C   C1182     1.0  0.67737  0.31561  0.18096  1.0000
  H   H1187     1.0  0.72076  0.41380  0.23409  1.0000
  C   C1183     1.0  0.67003  0.29823  0.18582  1.0000
  C   C1184     1.0  0.68973  0.28522  0.21115  1.0000
  H   H1188     1.0  0.69598  0.33149  0.18775  1.0000
  S   S401      1.0  0.90617  0.47931  0.19123  1.0000
  H   H1189     1.0  0.86693  0.39266  0.22135  1.0000
  C   C1185     1.0  0.71091  0.45967  0.18780  1.0000
  H   H1190     1.0  0.80709  0.45051  0.13365  1.0000
  C   C1186     1.0  0.86329  0.37704  0.08166  1.0000
  C   C1187     1.0  0.72466  0.43253  0.17085  1.0000
  C   C1188     1.0  0.90712  0.46502  0.17416  1.0000
  H   H1191     1.0  0.67124  0.47008  0.20842  1.0000
  H   H1192     1.0  0.87639  0.36615  0.07614  1.0000
  H   H1193     1.0  0.68670  0.42270  0.20837  1.0000
  Fe  Fe200     1.0  0.71342  0.37385  0.22786  1.0000
  H   H1194     1.0  0.86249  0.37520  0.09773  1.0000
  H   H1195     1.0  0.82871  0.36345  0.04198  1.0000
  H   H1196     1.0  0.80043  0.45037  0.99691  1.0000
  S   S402      1.0  0.75634  0.46405  0.19087  1.0000
  C   C1189     1.0  0.79920  0.46139  0.14248  1.0000
  H   H1197     1.0  0.92190  0.42801  0.20062  1.0000
  C   C1190     1.0  0.80821  0.39066  0.19362  1.0000
  C   C1191     1.0  0.81028  0.37523  0.08707  1.0000
  H   H1198     1.0  0.94268  0.39973  0.18822  1.0000
  H   H1199     1.0  0.92822  0.40206  0.16992  1.0000
  C   C1192     1.0  0.89224  0.42830  0.21674  1.0000
  H   H1200     1.0  0.95770  0.36348  0.21870  1.0000
  C   C1193     1.0  0.89621  0.39365  0.20408  1.0000
  C   C1194     1.0  0.86678  0.41940  0.01849  1.0000
  Fe  Fe201     1.0  0.93229  0.46944  0.20634  1.0000
  H   H1201     1.0  0.69078  0.23001  0.16435  1.0000
  C   C1195     1.0  0.82780  0.37736  0.09088  1.0000
  C   C1196     1.0  0.71095  0.42214  0.18372  1.0000
  C   C1197     1.0  0.68242  0.23967  0.15358  1.0000
  S   S403      1.0  0.96229  0.45214  0.19551  1.0000
  C   C1198     1.0  0.92967  0.39577  0.18548  1.0000
  H   H1202     1.0  0.78426  0.38217  0.21613  1.0000
  C   C1199     1.0  0.79182  0.39410  0.20868  1.0000
  H   H1203     1.0  0.87553  0.47125  0.17671  1.0000
  H   H1204     1.0  0.71103  0.40736  0.18231  1.0000
  C   C1200     1.0  0.77420  0.47066  0.17027  1.0000
  C   C1201     1.0  0.87865  0.40091  0.21632  1.0000
  S   S404      1.0  0.71169  0.30578  0.22144  1.0000
  H   H1205     1.0  0.84360  0.46547  0.01974  1.0000
  C   C1202     1.0  0.84566  0.36907  0.06036  1.0000
  C   C1203     1.0  0.67638  0.28295  0.20082  1.0000
  C   C1204     1.0  0.83817  0.46413  0.00735  1.0000
  H   H1206     1.0  0.78996  0.44159  0.20836  1.0000
  N   N100      1.0  0.69751  0.44941  0.20039  1.0000
  H   H1207     1.0  0.67263  0.32743  0.16923  1.0000
  Fe  Fe202     1.0  0.95759  0.43145  0.22458  1.0000
  Fe  Fe203     1.0  0.97353  0.46912  0.21135  1.0000
  N   N101      1.0  0.91153  0.40331  0.19866  1.0000
  H   H1208     1.0  0.79653  0.37787  0.09765  1.0000
  H   H1209     1.0  0.71135  0.47420  0.18948  1.0000
  H   H1210     1.0  0.73545  0.42592  0.15947  1.0000
  H   H1211     1.0  0.86068  0.40930  0.99505  1.0000
  C   C1205     1.0  0.81393  0.45565  0.99456  1.0000
  C   C1206     1.0  0.81790  0.40597  0.18358  1.0000
  S   S405      1.0  0.92691  0.44760  0.23434  1.0000
  H   H1212     1.0  0.81324  0.37623  0.18969  1.0000
  C   C1207     1.0  0.80374  0.48013  0.13775  1.0000
  N   N102      1.0  0.78538  0.41223  0.21377  1.0000
  S   S406      1.0  0.78416  0.34152  0.23521  1.0000
  C   C1208     1.0  0.67042  0.27230  0.13584  1.0000
  H   H1213     1.0  0.68909  0.26628  0.15697  1.0000
  S   S407      1.0  0.94367  0.48844  0.21976  1.0000
  C   C1209     1.0  0.77868  0.48941  0.16556  1.0000
  Fe  Fe204     1.0  0.74689  0.48419  0.21237  1.0000
  H   H1214     1.0  0.75834  0.42993  0.22563  1.0000
  C   C1210     1.0  0.89204  0.48868  0.11118  1.0000
  H   H1215     1.0  0.92810  0.34850  0.22914  1.0000
  C   C1211     1.0  0.92596  0.48552  0.11472  1.0000
  H   H1216     1.0  0.93389  0.48377  0.12678  1.0000
  H   H1217     1.0  0.89782  0.48065  0.09926  1.0000
  C   C1212     1.0  0.76846  0.41560  0.22990  1.0000
  H   H1218     1.0  0.67253  0.21621  0.14774  1.0000
  H   H1219     1.0  0.75972  0.40392  0.23374  1.0000
  C   C1213     1.0  0.84934  0.46754  0.98827  1.0000
  C   C1214     1.0  0.94437  0.38755  0.23393  1.0000
  C   C1215     1.0  0.92789  0.36178  0.23390  1.0000
  H   H1220     1.0  0.66926  0.28818  0.13294  1.0000
  C   C1216     1.0  0.66838  0.33892  0.23631  1.0000
  C   C1217     1.0  0.67861  0.43839  0.27176  1.0000
  C   C1218     1.0  0.80548  0.35508  0.25367  1.0000
  C   C1219     1.0  0.93508  0.22913  0.43163  1.0000
  H   H1221     1.0  0.78760  0.15862  0.48008  1.0000
  C   C1220     1.0  0.93863  0.23203  0.46334  1.0000
  C   C1221     1.0  0.79488  0.10694  0.44138  1.0000
  H   H1222     1.0  0.89452  0.25820  0.45381  1.0000
  C   C1222     1.0  0.90138  0.43222  0.32207  1.0000
  C   C1223     1.0  0.71565  0.22884  0.46453  1.0000
  C   C1224     1.0  0.92752  0.39599  0.24624  1.0000
  H   H1223     1.0  0.88742  0.20610  0.45103  1.0000
  N   N103      1.0  0.82682  0.31449  0.32565  1.0000
  Fe  Fe205     1.0  0.85677  0.36540  0.32224  1.0000
  S   S408      1.0  0.83337  0.39331  0.32179  1.0000
  S   S409      1.0  0.86896  0.34532  0.34814  1.0000
  Fe  Fe206     1.0  0.86812  0.37181  0.27753  1.0000
  S   S410      1.0  0.84562  0.39996  0.27310  1.0000
  H   H1224     1.0  0.75650  0.19838  0.47930  1.0000
  Fe  Fe207     1.0  0.85534  0.40702  0.29747  1.0000
  S   S411      1.0  0.86379  0.43639  0.29192  1.0000
  Fe  Fe208     1.0  0.82563  0.38383  0.29745  1.0000
  S   S412      1.0  0.79394  0.38752  0.29553  1.0000
  S   S413      1.0  0.87940  0.38002  0.30001  1.0000
  S   S414      1.0  0.84733  0.35470  0.29983  1.0000
  Fe  Fe209     1.0  0.71078  0.15810  0.40667  1.0000
  S   S415      1.0  0.74166  0.14232  0.40947  1.0000
  S   S416      1.0  0.70021  0.16287  0.37835  1.0000
  Fe  Fe210     1.0  0.70101  0.16775  0.44720  1.0000
  S   S417      1.0  0.73074  0.15240  0.45414  1.0000
  Fe  Fe211     1.0  0.74228  0.16683  0.42338  1.0000
  S   S418      1.0  0.76989  0.17870  0.41570  1.0000
  Fe  Fe212     1.0  0.72802  0.12896  0.43997  1.0000
  S   S419      1.0  0.73936  0.09745  0.45367  1.0000
  S   S420      1.0  0.71278  0.18431  0.41742  1.0000
  S   S421      1.0  0.69681  0.14263  0.43616  1.0000
  Fe  Fe213     1.0  0.82824  0.26712  0.43373  1.0000
  S   S422      1.0  0.82298  0.23957  0.42817  1.0000
  S   S423      1.0  0.81457  0.29607  0.41590  1.0000
  Fe  Fe214     1.0  0.84891  0.24452  0.46740  1.0000
  H   H1225     1.0  0.76798  0.22418  0.40858  1.0000
  Fe  Fe215     1.0  0.85396  0.22617  0.43273  1.0000
  S   S424      1.0  0.87588  0.20551  0.41496  1.0000
  Fe  Fe216     1.0  0.81450  0.23109  0.46100  1.0000
  H   H1226     1.0  0.84112  0.29850  0.30270  1.0000
  S   S425      1.0  0.86024  0.25444  0.43522  1.0000
  S   S426      1.0  0.81735  0.25962  0.46657  1.0000
  C   C1225     1.0  0.89815  0.19615  0.42352  1.0000
  C   C1226     1.0  0.89984  0.19827  0.44192  1.0000
  C   C1227     1.0  0.93248  0.17897  0.41804  1.0000
  C   C1228     1.0  0.91443  0.18625  0.41175  1.0000
  H   H1227     1.0  0.94516  0.17182  0.40858  1.0000
  H   H1228     1.0  0.91323  0.18458  0.39751  1.0000
  C   C1229     1.0  0.76469  0.09442  0.45328  1.0000
  C   C1230     1.0  0.71073  0.43747  0.25035  1.0000
  C   C1231     1.0  0.77453  0.10957  0.44283  1.0000
  C   C1232     1.0  0.84285  0.30649  0.33670  1.0000
  H   H1229     1.0  0.76663  0.12332  0.43559  1.0000
  C   C1233     1.0  0.77643  0.18510  0.43491  1.0000
  C   C1234     1.0  0.76299  0.18720  0.45255  1.0000
  C   C1235     1.0  0.76733  0.19580  0.46615  1.0000
  C   C1236     1.0  0.78514  0.20217  0.46208  1.0000
  C   C1237     1.0  0.79925  0.19834  0.44535  1.0000
  C   C1238     1.0  0.79483  0.19003  0.43168  1.0000
  H   H1230     1.0  0.74876  0.18342  0.45520  1.0000
  S   S427      1.0  0.90971  0.07204  0.47922  1.0000
  H   H1231     1.0  0.81339  0.20236  0.44259  1.0000
  H   H1232     1.0  0.80537  0.18819  0.41816  1.0000
  C   C1239     1.0  0.85363  0.33198  0.36703  1.0000
  C   C1240     1.0  0.86226  0.31468  0.37886  1.0000
  C   C1241     1.0  0.85042  0.30348  0.39380  1.0000
  C   C1242     1.0  0.82987  0.30968  0.39719  1.0000
  C   C1243     1.0  0.82123  0.32706  0.38541  1.0000
  C   C1244     1.0  0.83308  0.33817  0.37031  1.0000
  H   H1233     1.0  0.87817  0.30985  0.37637  1.0000
  H   H1234     1.0  0.85721  0.29014  0.40277  1.0000
  H   H1235     1.0  0.80534  0.33201  0.38811  1.0000
  H   H1236     1.0  0.82636  0.35168  0.36144  1.0000
  H   H1237     1.0  0.81423  0.31232  0.28374  1.0000
  C   C1245     1.0  0.77003  0.36664  0.26138  1.0000
  C   C1246     1.0  0.77239  0.37701  0.27461  1.0000
  C   C1247     1.0  0.79129  0.37631  0.27745  1.0000
  C   C1248     1.0  0.80786  0.36566  0.26666  1.0000
  H   H1238     1.0  0.76149  0.46186  0.31039  1.0000
  Fe  Fe217     1.0  0.95922  0.16843  0.47475  1.0000
  H   H1239     1.0  0.75953  0.38527  0.28293  1.0000
  H   H1240     1.0  0.82249  0.36516  0.26866  1.0000
  S   S428      1.0  0.78895  0.21649  0.47681  1.0000
  C   C1249     1.0  0.84299  0.47093  0.34143  1.0000
  C   C1250     1.0  0.85566  0.47750  0.32416  1.0000
  C   C1251     1.0  0.86211  0.46664  0.30919  1.0000
  C   C1252     1.0  0.85592  0.44906  0.31141  1.0000
  C   C1253     1.0  0.84357  0.44214  0.32889  1.0000
  C   C1254     1.0  0.83717  0.45304  0.34397  1.0000
  C   C1255     1.0  0.73339  0.22453  0.43199  1.0000
  H   H1241     1.0  0.87218  0.47174  0.29603  1.0000
  H   H1242     1.0  0.83882  0.42852  0.33078  1.0000
  H   H1243     1.0  0.82739  0.44785  0.35739  1.0000
  H   H1244     1.0  0.66675  0.44523  0.28220  1.0000
  S   S429      1.0  0.84494  0.21527  0.46495  1.0000
  H   H1245     1.0  0.84465  0.00624  0.46728  1.0000
  H   H1246     1.0  0.88359  0.47227  0.23897  1.0000
  H   H1247     1.0  0.73480  0.21881  0.41892  1.0000
  H   H1248     1.0  0.84348  0.16191  0.42932  1.0000
  C   C1256     1.0  0.80677  0.48131  0.31114  1.0000
  H   H1249     1.0  0.80369  0.06089  0.46963  1.0000
  C   C1257     1.0  0.67503  0.13301  0.35387  1.0000
  C   C1258     1.0  0.68719  0.12796  0.38946  1.0000
  C   C1259     1.0  0.68959  0.14478  0.37488  1.0000
  H   H1250     1.0  0.67064  0.13490  0.33999  1.0000
  H   H1251     1.0  0.72797  0.12925  0.35171  1.0000
  S   S430      1.0  0.66329  0.09745  0.36439  1.0000
  H   H1252     1.0  0.69194  0.12590  0.40317  1.0000
  H   H1253     1.0  0.96040  0.21393  0.44465  1.0000
  H   H1254     1.0  0.70333  0.22683  0.47671  1.0000
  C   C1260     1.0  0.77520  0.07690  0.46313  1.0000
  H   H1255     1.0  0.81020  0.33336  0.34552  1.0000
  H   H1256     1.0  0.91912  0.19252  0.46247  1.0000
  H   H1257     1.0  0.85171  0.29209  0.33327  1.0000
  H   H1258     1.0  0.72371  0.44366  0.24412  1.0000
  H   H1259     1.0  0.74312  0.10821  0.34150  1.0000
  H   H1260     1.0  0.85285  0.31705  0.33312  1.0000
  C   C1261     1.0  0.81313  0.31663  0.29754  1.0000
  S   S431      1.0  0.67598  0.18453  0.46643  1.0000
  C   C1262     1.0  0.88300  0.12101  0.45243  1.0000
  C   C1263     1.0  0.91076  0.38759  0.25207  1.0000
  C   C1264     1.0  0.91780  0.19044  0.44849  1.0000
  H   H1261     1.0  0.90098  0.26582  0.48184  1.0000
  S   S432      1.0  0.72596  0.34321  0.24279  1.0000
  S   S433      1.0  0.97160  0.44661  0.23961  1.0000
  H   H1262     1.0  0.91098  0.14761  0.44538  1.0000
  Fe  Fe218     1.0  0.71901  0.48467  0.25109  1.0000
  C   C1265     1.0  0.80868  0.46846  0.29861  1.0000
  H   H1263     1.0  0.71651  0.11175  0.34738  1.0000
  H   H1264     1.0  0.89759  0.39467  0.26095  1.0000
  H   H1265     1.0  0.94310  0.03852  0.43786  1.0000
  C   C1266     1.0  0.79670  0.33035  0.30443  1.0000
  H   H1266     1.0  0.86064  0.49092  0.32248  1.0000
  C   C1267     1.0  0.93426  0.18104  0.43639  1.0000
  C   C1268     1.0  0.69542  0.44646  0.26388  1.0000
  C   C1269     1.0  0.89827  0.14574  0.45780  1.0000
  H   H1267     1.0  0.83688  0.30391  0.35281  1.0000
  H   H1268     1.0  0.86884  0.10022  0.44678  1.0000
  H   H1269     1.0  0.90729  0.24468  0.42336  1.0000
  C   C1270     1.0  0.91638  0.24143  0.43433  1.0000
  S   S434      1.0  0.87567  0.04651  0.46514  1.0000
  N   N104      1.0  0.78906  0.48695  0.32311  1.0000
  C   C1271     1.0  0.93711  0.03037  0.46955  1.0000
  C   C1272     1.0  0.74596  0.24041  0.45019  1.0000
  H   H1270     1.0  0.77368  0.41575  0.24323  1.0000
  C   C1273     1.0  0.66439  0.30498  0.25169  1.0000
  H   H1271     1.0  0.77790  0.23503  0.42280  1.0000
  H   H1272     1.0  0.75268  0.09891  0.40992  1.0000
  C   C1274     1.0  0.69195  0.41281  0.25233  1.0000
  H   H1273     1.0  0.73519  0.07137  0.42428  1.0000
  C   C1275     1.0  0.67284  0.11608  0.36834  1.0000
  H   H1274     1.0  0.94058  0.22268  0.41858  1.0000
  H   H1275     1.0  0.86895  0.17045  0.44161  1.0000
  N   N105      1.0  0.73099  0.10170  0.37199  1.0000
  C   C1276     1.0  0.74211  0.10626  0.38260  1.0000
  C   C1277     1.0  0.72183  0.08604  0.37953  1.0000
  C   C1278     1.0  0.74390  0.09529  0.40146  1.0000
  C   C1279     1.0  0.72308  0.07495  0.39847  1.0000
  C   C1280     1.0  0.73414  0.07969  0.40950  1.0000
  C   C1281     1.0  0.90924  0.24898  0.45159  1.0000
  Fe  Fe219     1.0  0.84506  0.06465  0.47208  1.0000
  H   H1276     1.0  0.76092  0.25062  0.40743  1.0000
  C   C1282     1.0  0.78658  0.35538  0.25117  1.0000
  C   C1283     1.0  0.93628  0.02900  0.45064  1.0000
  H   H1277     1.0  0.87398  0.41324  0.36542  1.0000
  H   H1278     1.0  0.74951  0.11857  0.37654  1.0000
  C   C1284     1.0  0.88933  0.43152  0.34080  1.0000
  C   C1285     1.0  0.91956  0.41727  0.29390  1.0000
  C   C1286     1.0  0.76437  0.23601  0.41727  1.0000
  N   N106      1.0  0.92053  0.24456  0.46562  1.0000
  H   H1279     1.0  0.68529  0.16032  0.34580  1.0000
  C   C1287     1.0  0.73005  0.23810  0.46594  1.0000
  C   C1288     1.0  0.86870  0.11569  0.44572  1.0000
  H   H1280     1.0  0.90501  0.44618  0.31375  1.0000
  C   C1289     1.0  0.89090  0.39694  0.34297  1.0000
  C   C1290     1.0  0.72964  0.11324  0.35214  1.0000
  N   N107      1.0  0.90801  0.41570  0.31403  1.0000
  H   H1281     1.0  0.71305  0.08236  0.37111  1.0000
  C   C1291     1.0  0.71727  0.22201  0.44747  1.0000
  C   C1292     1.0  0.94622  0.22421  0.44628  1.0000
  H   H1282     1.0  0.90873  0.38490  0.31819  1.0000
  N   N108      1.0  0.88281  0.14046  0.45122  1.0000
  S   S435      1.0  0.75028  0.46895  0.24299  1.0000
  H   H1283     1.0  0.70622  0.21457  0.44637  1.0000
  C   C1293     1.0  0.77298  0.47992  0.32312  1.0000
  H   H1284     1.0  0.80240  0.11861  0.43282  1.0000
  H   H1285     1.0  0.93236  0.42402  0.29241  1.0000
  C   C1294     1.0  0.77431  0.46718  0.31064  1.0000
  C   C1295     1.0  0.86888  0.15502  0.44296  1.0000
  H   H1286     1.0  0.78497  0.33659  0.29611  1.0000
  C   C1296     1.0  0.91090  0.37047  0.24590  1.0000
  H   H1287     1.0  0.94721  0.22788  0.47484  1.0000
  H   H1288     1.0  0.67703  0.10059  0.39745  1.0000
  C   C1297     1.0  0.79231  0.46141  0.29835  1.0000
  S   S436      1.0  0.92668  0.46769  0.27807  1.0000
  S   S437      1.0  0.83384  0.48553  0.35933  1.0000
  C   C1298     1.0  0.91831  0.00556  0.48374  1.0000
  H   H1289     1.0  0.93720  0.09706  0.47157  1.0000
  S   S438      1.0  0.88967  0.36036  0.25224  1.0000
  C   C1299     1.0  0.80547  0.08941  0.45100  1.0000
  C   C1300     1.0  0.91739  0.00364  0.46504  1.0000
  C   C1301     1.0  0.68343  0.14731  0.35713  1.0000
  H   H1290     1.0  0.89431  0.10949  0.45855  1.0000
  C   C1302     1.0  0.79575  0.33655  0.32167  1.0000
  C   C1303     1.0  0.79558  0.07448  0.46219  1.0000
  H   H1291     1.0  0.88660  0.38308  0.35080  1.0000
  H   H1292     1.0  0.78346  0.34795  0.32658  1.0000
  S   S439      1.0  0.95759  0.17299  0.44294  1.0000
  C   C1304     1.0  0.82823  0.30890  0.30833  1.0000
  N   N109      1.0  0.74760  0.23341  0.43361  1.0000
  H   H1293     1.0  0.91011  0.42684  0.28348  1.0000
  H   H1294     1.0  0.84330  0.12642  0.43198  1.0000
  C   C1305     1.0  0.91279  0.25229  0.48376  1.0000
  H   H1295     1.0  0.67447  0.13967  0.48080  1.0000
  S   S440      1.0  0.69625  0.46828  0.27061  1.0000
  H   H1296     1.0  0.71542  0.06283  0.40456  1.0000
  C   C1306     1.0  0.88385  0.41381  0.35117  1.0000
  H   H1297     1.0  0.88371  0.44481  0.34690  1.0000
  C   C1307     1.0  0.81101  0.32838  0.33219  1.0000
  H   H1298     1.0  0.75896  0.48427  0.33269  1.0000
  H   H1299     1.0  0.79352  0.45169  0.28845  1.0000
  C   C1308     1.0  0.90326  0.39811  0.32439  1.0000
  H   H1300     1.0  0.75539  0.36696  0.25945  1.0000
  H   H1301     1.0  0.94464  0.04108  0.47119  1.0000
  S   S441      1.0  0.83100  0.08687  0.44867  1.0000
  H   H1302     1.0  0.71019  0.17316  0.48523  1.0000
  C   C1309     1.0  0.85433  0.13043  0.43743  1.0000
  H   H1303     1.0  0.92743  0.40886  0.25147  1.0000
  S   S442      1.0  0.68788  0.39328  0.24402  1.0000
  C   C1310     1.0  0.67879  0.11366  0.38618  1.0000
  H   H1304     1.0  0.92527  0.40265  0.28955  1.0000
  C   C1311     1.0  0.92629  0.01556  0.44842  1.0000
  C   C1312     1.0  0.85440  0.15026  0.43600  1.0000
  C   C1313     1.0  0.67680  0.42179  0.26587  1.0000
  H   H1305     1.0  0.75733  0.24724  0.45157  1.0000
  H   H1306     1.0  0.81948  0.48685  0.31119  1.0000
  H   H1307     1.0  0.92530  0.01448  0.43387  1.0000
  H   H1308     1.0  0.89068  0.47079  0.26193  1.0000
  H   H1309     1.0  0.90362  0.13419  0.47004  1.0000
  N   N110      1.0  0.92785  0.01903  0.48579  1.0000
  H   H1310     1.0  0.70597  0.11487  0.47903  1.0000
  H   H1311     1.0  0.72911  0.24313  0.47929  1.0000
  Fe  Fe220     1.0  0.94099  0.46471  0.24701  1.0000
  H   H1312     1.0  0.89923  0.48164  0.31065  1.0000
  C   C1314     1.0  0.87898  0.47756  0.25307  1.0000
  H   H1313     1.0  0.82272  0.46406  0.28907  1.0000
  C   C1315     1.0  0.68148  0.19241  0.48538  1.0000
  S   S443      1.0  0.97568  0.18514  0.48527  1.0000
  C   C1316     1.0  0.70908  0.42052  0.24470  1.0000
  H   H1314     1.0  0.89269  0.15976  0.46331  1.0000
  H   H1315     1.0  0.76767  0.06515  0.47135  1.0000
  H   H1316     1.0  0.81832  0.34654  0.24562  1.0000
  H   H1317     1.0  0.78989  0.12263  0.47770  1.0000
  H   H1318     1.0  0.81124  0.10523  0.48449  1.0000
  C   C1317     1.0  0.80508  0.12125  0.47992  1.0000
  H   H1319     1.0  0.68213  0.33449  0.24240  1.0000
  H   H1320     1.0  0.67526  0.30371  0.26041  1.0000
  H   H1321     1.0  0.86528  0.47228  0.26112  1.0000
  H   H1322     1.0  0.81427  0.12683  0.46567  1.0000
  H   H1323     1.0  0.66352  0.41596  0.27177  1.0000
  H   H1324     1.0  0.90946  0.99321  0.46351  1.0000
  C   C1318     1.0  0.92842  0.09769  0.48616  1.0000
  H   H1325     1.0  0.79289  0.49078  0.35026  1.0000
  H   H1326     1.0  0.66364  0.17535  0.23927  1.0000
  C   C1319     1.0  0.91436  0.49167  0.28121  1.0000
  Fe  Fe221     1.0  0.86042  0.37304  0.70292  1.0000
  S   S444      1.0  0.89108  0.36529  0.68569  1.0000
  S   S445      1.0  0.83622  0.39631  0.69140  1.0000
  Fe  Fe222     1.0  0.88815  0.33398  0.69901  1.0000
  S   S446      1.0  0.89710  0.30986  0.68138  1.0000
  Fe  Fe223     1.0  0.86486  0.02361  0.49056  1.0000
  C   C1320     1.0  0.73110  0.10488  0.50347  1.0000
  S   S447      1.0  0.85247  0.07917  0.49273  1.0000
  S   S448      1.0  0.86985  0.37532  0.72963  1.0000
  H   H1327     1.0  0.88765  0.19045  0.51332  1.0000
  H   H1328     1.0  0.88321  0.36213  0.64623  1.0000
  H   H1329     1.0  0.68119  0.13655  0.65292  1.0000
  C   C1321     1.0  0.92875  0.02101  0.50542  1.0000
  H   H1330     1.0  0.87296  0.33554  0.59204  1.0000
  S   S449      1.0  0.87393  0.47497  0.69651  1.0000
  N   N111      1.0  0.71187  0.11861  0.50546  1.0000
  N   N112      1.0  0.76209  0.18918  0.63891  1.0000
  Fe  Fe224     1.0  0.75625  0.18059  0.56183  1.0000
  S   S450      1.0  0.75512  0.14880  0.57430  1.0000
  S   S451      1.0  0.78509  0.18898  0.55932  1.0000
  Fe  Fe225     1.0  0.71636  0.18976  0.55056  1.0000
  S   S452      1.0  0.71204  0.15876  0.56178  1.0000
  S   S453      1.0  0.69202  0.21141  0.53750  1.0000
  Fe  Fe226     1.0  0.72354  0.16043  0.58756  1.0000
  S   S454      1.0  0.70978  0.14658  0.61812  1.0000
  Fe  Fe227     1.0  0.74374  0.15019  0.54744  1.0000
  S   S455      1.0  0.75302  0.12861  0.52711  1.0000
  S   S456      1.0  0.72561  0.19230  0.57744  1.0000
  S   S457      1.0  0.74710  0.18124  0.53393  1.0000
  Fe  Fe228     1.0  0.83657  0.28049  0.62120  1.0000
  S   S458      1.0  0.83695  0.24796  0.63030  1.0000
  S   S459      1.0  0.83047  0.30148  0.64191  1.0000
  Fe  Fe229     1.0  0.83898  0.28113  0.57815  1.0000
  S   S460      1.0  0.84010  0.24870  0.58333  1.0000
  S   S461      1.0  0.83545  0.29992  0.54853  1.0000
  Fe  Fe230     1.0  0.81624  0.25356  0.60960  1.0000
  S   S462      1.0  0.78808  0.24241  0.61593  1.0000
  Fe  Fe231     1.0  0.86083  0.24579  0.60323  1.0000
  S   S463      1.0  0.88673  0.22000  0.60338  1.0000
  S   S464      1.0  0.81357  0.28627  0.60296  1.0000
  S   S465      1.0  0.86212  0.27805  0.59560  1.0000
  H   H1331     1.0  0.82604  0.30199  0.51100  1.0000
  H   H1332     1.0  0.69498  0.18901  0.61257  1.0000
  H   H1333     1.0  0.94713  0.47624  0.72084  1.0000
  C   C1322     1.0  0.67797  0.15246  0.64812  1.0000
  H   H1334     1.0  0.82624  0.40307  0.73666  1.0000
  H   H1335     1.0  0.80394  0.07106  0.51290  1.0000
  S   S466      1.0  0.96267  0.15905  0.52988  1.0000
  Fe  Fe232     1.0  0.94720  0.14450  0.51525  1.0000
  S   S467      1.0  0.92659  0.12370  0.53114  1.0000
  Fe  Fe233     1.0  0.95000  0.18705  0.51053  1.0000
  S   S468      1.0  0.93645  0.21712  0.51757  1.0000
  C   C1323     1.0  0.91615  0.44316  0.70913  1.0000
  S   S469      1.0  0.92390  0.38060  0.71352  1.0000
  H   H1336     1.0  0.73567  0.09867  0.51791  1.0000
  C   C1324     1.0  0.90628  0.09915  0.52400  1.0000
  C   C1325     1.0  0.92135  0.10990  0.51646  1.0000
  H   H1337     1.0  0.94370  0.01399  0.50860  1.0000
  H   H1338     1.0  0.83810  0.27873  0.48784  1.0000
  C   C1326     1.0  0.68296  0.13627  0.49230  1.0000
  H   H1339     1.0  0.89782  0.09950  0.53875  1.0000
  C   C1327     1.0  0.93355  0.47961  0.73131  1.0000
  H   H1340     1.0  0.73294  0.19153  0.65629  1.0000
  C   C1328     1.0  0.90172  0.21960  0.57995  1.0000
  C   C1329     1.0  0.91525  0.20228  0.57610  1.0000
  C   C1330     1.0  0.92594  0.20129  0.55694  1.0000
  C   C1331     1.0  0.92360  0.21787  0.54177  1.0000
  C   C1332     1.0  0.91059  0.23537  0.54579  1.0000
  C   C1333     1.0  0.89949  0.23616  0.56480  1.0000
  H   H1341     1.0  0.91712  0.18947  0.58786  1.0000
  H   H1342     1.0  0.93608  0.18779  0.55399  1.0000
  H   H1343     1.0  0.90891  0.24832  0.53415  1.0000
  H   H1344     1.0  0.88937  0.24965  0.56783  1.0000
  C   C1334     1.0  0.77155  0.10803  0.53330  1.0000
  C   C1335     1.0  0.78045  0.09549  0.51993  1.0000
  C   C1336     1.0  0.79675  0.08027  0.52357  1.0000
  C   C1337     1.0  0.80385  0.07722  0.54086  1.0000
  C   C1338     1.0  0.79429  0.08907  0.55470  1.0000
  C   C1339     1.0  0.77821  0.10453  0.55087  1.0000
  H   H1345     1.0  0.77521  0.09791  0.50642  1.0000
  H   H1346     1.0  0.79966  0.08663  0.56816  1.0000
  H   H1347     1.0  0.77113  0.11373  0.56149  1.0000
  C   C1340     1.0  0.78554  0.20443  0.57457  1.0000
  C   C1341     1.0  0.76809  0.21458  0.58467  1.0000
  C   C1342     1.0  0.76896  0.22655  0.59711  1.0000
  C   C1343     1.0  0.78727  0.22827  0.59951  1.0000
  C   C1344     1.0  0.80467  0.21815  0.58934  1.0000
  C   C1345     1.0  0.80381  0.20639  0.57676  1.0000
  H   H1348     1.0  0.75395  0.21324  0.58291  1.0000
  H   H1349     1.0  0.75545  0.23441  0.60493  1.0000
  H   H1350     1.0  0.81881  0.21886  0.59163  1.0000
  H   H1351     1.0  0.81733  0.19847  0.56900  1.0000
  H   H1352     1.0  0.72435  0.16724  0.64224  1.0000
  S   S470      1.0  0.90064  0.33251  0.72541  1.0000
  S   S471      1.0  0.86711  0.24159  0.48969  1.0000
  C   C1346     1.0  0.66731  0.20660  0.49451  1.0000
  C   C1347     1.0  0.85913  0.25911  0.50471  1.0000
  C   C1348     1.0  0.86734  0.25568  0.52136  1.0000
  C   C1349     1.0  0.86047  0.26868  0.53441  1.0000
  C   C1350     1.0  0.84550  0.28527  0.53080  1.0000
  C   C1351     1.0  0.83765  0.28912  0.51381  1.0000
  H   H1353     1.0  0.87588  0.27821  0.70783  1.0000
  H   H1354     1.0  0.87882  0.24281  0.52442  1.0000
  H   H1355     1.0  0.86671  0.26589  0.54735  1.0000
  C   C1352     1.0  0.67081  0.21264  0.51025  1.0000
  Fe  Fe234     1.0  0.90046  0.36475  0.71357  1.0000
  H   H1356     1.0  0.78282  0.20401  0.64319  1.0000
  C   C1353     1.0  0.73880  0.17100  0.63720  1.0000
  C   C1354     1.0  0.68995  0.16141  0.63138  1.0000
  S   S472      1.0  0.82547  0.05972  0.54456  1.0000
  N   N113      1.0  0.86170  0.29079  0.73312  1.0000
  H   H1357     1.0  0.90649  0.24093  0.49552  1.0000
  C   C1355     1.0  0.90222  0.08777  0.51260  1.0000
  C   C1356     1.0  0.70253  0.18991  0.50817  1.0000
  C   C1357     1.0  0.68832  0.20417  0.51726  1.0000
  H   H1358     1.0  0.92594  0.45149  0.71116  1.0000
  C   C1358     1.0  0.81378  0.12381  0.51022  1.0000
  H   H1359     1.0  0.67257  0.18807  0.57451  1.0000
  H   H1360     1.0  0.71609  0.18324  0.51350  1.0000
  H   H1361     1.0  0.92721  0.44694  0.67780  1.0000
  C   C1359     1.0  0.69924  0.18424  0.49205  1.0000
  C   C1360     1.0  0.80315  0.15422  0.52229  1.0000
  H   H1362     1.0  0.76298  0.20004  0.66371  1.0000
  Fe  Fe235     1.0  0.84366  0.05367  0.51565  1.0000
  C   C1361     1.0  0.68579  0.18196  0.62535  1.0000
  S   S473      1.0  0.93246  0.17295  0.49830  1.0000
  S   S474      1.0  0.87260  0.47007  0.64497  1.0000
  C   C1362     1.0  0.77560  0.18081  0.62448  1.0000
  H   H1363     1.0  0.91766  0.01410  0.51706  1.0000
  H   H1364     1.0  0.78647  0.17841  0.50435  1.0000
  C   C1363     1.0  0.74379  0.18463  0.64513  1.0000
  H   H1365     1.0  0.80238  0.16264  0.53319  1.0000
  H   H1366     1.0  0.92467  0.25601  0.48875  1.0000
  C   C1364     1.0  0.87879  0.30753  0.67007  1.0000
  C   C1365     1.0  0.88261  0.29262  0.65926  1.0000
  C   C1366     1.0  0.86787  0.29038  0.65061  1.0000
  C   C1367     1.0  0.84922  0.30293  0.65298  1.0000
  C   C1368     1.0  0.84538  0.31761  0.66397  1.0000
  C   C1369     1.0  0.86019  0.32012  0.67217  1.0000
  H   H1367     1.0  0.89699  0.28279  0.65756  1.0000
  H   H1368     1.0  0.87092  0.27896  0.64214  1.0000
  H   H1369     1.0  0.83098  0.32738  0.66582  1.0000
  H   H1370     1.0  0.85718  0.33197  0.67991  1.0000
  C   C1370     1.0  0.84579  0.41679  0.67736  1.0000
  C   C1371     1.0  0.83567  0.43572  0.68006  1.0000
  C   C1372     1.0  0.84386  0.45211  0.66994  1.0000
  C   C1373     1.0  0.86181  0.44969  0.65653  1.0000
  C   C1374     1.0  0.87159  0.43081  0.65324  1.0000
  C   C1375     1.0  0.86374  0.41431  0.66390  1.0000
  H   H1371     1.0  0.82169  0.43770  0.69027  1.0000
  H   H1372     1.0  0.83613  0.46665  0.67239  1.0000
  H   H1373     1.0  0.88548  0.42890  0.64286  1.0000
  H   H1374     1.0  0.87148  0.39975  0.66153  1.0000
  N   N114      1.0  0.79544  0.25673  0.54715  1.0000
  C   C1376     1.0  0.77883  0.25206  0.54495  1.0000
  C   C1377     1.0  0.81362  0.24887  0.53727  1.0000
  C   C1378     1.0  0.78019  0.23916  0.53261  1.0000
  C   C1379     1.0  0.81552  0.23612  0.52463  1.0000
  C   C1380     1.0  0.79867  0.23123  0.52235  1.0000
  C   C1381     1.0  0.79352  0.27102  0.55942  1.0000
  H   H1375     1.0  0.76443  0.25817  0.55290  1.0000
  H   H1376     1.0  0.82676  0.25251  0.53906  1.0000
  H   H1377     1.0  0.76708  0.23513  0.53114  1.0000
  H   H1378     1.0  0.82994  0.23021  0.51656  1.0000
  H   H1379     1.0  0.79988  0.22123  0.51273  1.0000
  H   H1380     1.0  0.78344  0.26750  0.57378  1.0000
  H   H1381     1.0  0.80793  0.27098  0.56267  1.0000
  H   H1382     1.0  0.78783  0.28620  0.55167  1.0000
  N   N115      1.0  0.86209  0.34247  0.62042  1.0000
  C   C1382     1.0  0.84297  0.35257  0.62466  1.0000
  C   C1383     1.0  0.87649  0.34601  0.62779  1.0000
  C   C1384     1.0  0.83780  0.36636  0.63690  1.0000
  C   C1385     1.0  0.87183  0.35973  0.64004  1.0000
  C   C1386     1.0  0.85234  0.36990  0.64466  1.0000
  C   C1387     1.0  0.86737  0.32830  0.60733  1.0000
  H   H1383     1.0  0.83152  0.34957  0.61903  1.0000
  H   H1384     1.0  0.89160  0.33787  0.62463  1.0000
  H   H1385     1.0  0.82257  0.37404  0.64059  1.0000
  Fe  Fe236     1.0  0.86590  0.48892  0.66731  1.0000
  H   H1386     1.0  0.84844  0.38034  0.65442  1.0000
  H   H1387     1.0  0.73075  0.09227  0.49721  1.0000
  C   C1388     1.0  0.76683  0.20363  0.64740  1.0000
  H   H1388     1.0  0.85445  0.32229  0.60744  1.0000
  S   S475      1.0  0.85669  0.34190  0.71418  1.0000
  H   H1389     1.0  0.74883  0.15166  0.61644  1.0000
  C   C1389     1.0  0.84439  0.27593  0.50079  1.0000
  H   H1390     1.0  0.75854  0.21871  0.64202  1.0000
  C   C1390     1.0  0.91349  0.08684  0.49373  1.0000
  C   C1391     1.0  0.67647  0.14639  0.50779  1.0000
  S   S476      1.0  0.87427  0.03495  0.51265  1.0000
  C   C1392     1.0  0.75254  0.16228  0.62263  1.0000
  H   H1391     1.0  0.81641  0.43949  0.72571  1.0000
  H   H1392     1.0  0.89067  0.07944  0.51859  1.0000
  H   H1393     1.0  0.94376  0.11759  0.49135  1.0000
  H   H1394     1.0  0.71445  0.12580  0.53176  1.0000
  N   N116      1.0  0.88569  0.18805  0.54411  1.0000
  C   C1393     1.0  0.87645  0.19662  0.55998  1.0000
  C   C1394     1.0  0.89586  0.16884  0.54673  1.0000
  C   C1395     1.0  0.87671  0.18568  0.57911  1.0000
  C   C1396     1.0  0.89672  0.15757  0.56562  1.0000
  C   C1397     1.0  0.88705  0.16607  0.58191  1.0000
  C   C1398     1.0  0.88553  0.19984  0.52420  1.0000
  H   H1395     1.0  0.86920  0.21213  0.55793  1.0000
  H   H1396     1.0  0.90347  0.16211  0.53419  1.0000
  H   H1397     1.0  0.86970  0.19265  0.59166  1.0000
  H   H1398     1.0  0.90505  0.14239  0.56748  1.0000
  H   H1399     1.0  0.88790  0.15764  0.59666  1.0000
  H   H1400     1.0  0.89756  0.20822  0.51974  1.0000
  H   H1401     1.0  0.87883  0.31538  0.61224  1.0000
  H   H1402     1.0  0.87118  0.21043  0.52349  1.0000
  C   C1399     1.0  0.90390  0.43061  0.68726  1.0000
  C   C1400     1.0  0.81302  0.13446  0.52440  1.0000
  C   C1401     1.0  0.68786  0.14256  0.52207  1.0000
  H   H1403     1.0  0.78993  0.18479  0.61914  1.0000
  C   C1402     1.0  0.70562  0.12853  0.52068  1.0000
  C   C1403     1.0  0.79491  0.15184  0.49242  1.0000
  C   C1404     1.0  0.79417  0.16304  0.50613  1.0000
  H   H1404     1.0  0.81306  0.29855  0.71508  1.0000
  H   H1405     1.0  0.98133  0.37408  0.72947  1.0000
  S   S477      1.0  0.82544  0.47719  0.73423  1.0000
  H   H1406     1.0  0.78157  0.16108  0.60427  1.0000
  H   H1407     1.0  0.82135  0.10844  0.51211  1.0000
  H   H1408     1.0  0.88005  0.41548  0.70104  1.0000
  H   H1409     1.0  0.68329  0.15083  0.53380  1.0000
  C   C1405     1.0  0.89028  0.42321  0.70323  1.0000
  C   C1406     1.0  0.84448  0.28714  0.70983  1.0000
  C   C1407     1.0  0.77099  0.16734  0.61603  1.0000
  S   S478      1.0  0.83348  0.04062  0.49553  1.0000
  C   C1408     1.0  0.66955  0.19347  0.63580  1.0000
  H   H1410     1.0  0.90414  0.42881  0.67261  1.0000
  H   H1411     1.0  0.81981  0.12732  0.53706  1.0000
  C   C1409     1.0  0.82664  0.29608  0.72036  1.0000
  H   H1412     1.0  0.74250  0.11276  0.49354  1.0000
  C   C1410     1.0  0.91605  0.48943  0.72462  1.0000
  H   H1413     1.0  0.67431  0.15327  0.59293  1.0000
  H   H1414     1.0  0.81139  0.99925  0.50716  1.0000
  H   H1415     1.0  0.66631  0.20936  0.63097  1.0000
  H   H1416     1.0  0.94220  0.40438  0.72736  1.0000
  Fe  Fe237     1.0  0.98751  0.15604  0.50361  1.0000
  C   C1411     1.0  0.91693  0.44066  0.69018  1.0000
  C   C1412     1.0  0.70083  0.12239  0.49132  1.0000
  C   C1413     1.0  0.86199  0.28467  0.71641  1.0000
  N   N117      1.0  0.90294  0.43562  0.72478  1.0000
  H   H1417     1.0  0.84485  0.28260  0.69634  1.0000
  H   H1418     1.0  0.92547  0.03690  0.50629  1.0000
  C   C1414     1.0  0.89003  0.42583  0.72202  1.0000
  C   C1415     1.0  0.93218  0.10935  0.49737  1.0000
  N   N118      1.0  0.80455  0.13247  0.49463  1.0000
  H   H1419     1.0  0.89232  0.29122  0.72689  1.0000
  Fe  Fe238     1.0  0.88221  0.05946  0.48771  1.0000
  S   S479      1.0  0.97317  0.13893  0.49073  1.0000
  H   H1420     1.0  0.91105  0.99642  0.49657  1.0000
  H   H1421     1.0  0.87943  0.42001  0.73437  1.0000
  H   H1422     1.0  0.67251  0.33394  0.81803  1.0000
  C   C1416     1.0  0.76774  0.48480  0.90011  1.0000
  S   S480      1.0  0.85605  0.33098  0.77042  1.0000
  C   C1417     1.0  0.83486  0.32944  0.90018  1.0000
  H   H1423     1.0  0.82689  0.34929  0.74583  1.0000
  Fe  Fe239     1.0  0.72951  0.33214  0.85820  1.0000
  S   S481      1.0  0.72025  0.35961  0.83634  1.0000
  S   S482      1.0  0.71528  0.30559  0.86660  1.0000
  Fe  Fe240     1.0  0.76447  0.34643  0.86311  1.0000
  S   S483      1.0  0.75804  0.37472  0.84156  1.0000
  S   S484      1.0  0.79156  0.34295  0.87523  1.0000
  Fe  Fe241     1.0  0.72657  0.37538  0.85668  1.0000
  S   S485      1.0  0.70880  0.40390  0.86484  1.0000
  Fe  Fe242     1.0  0.75259  0.35611  0.82352  1.0000
  S   S486      1.0  0.76346  0.36030  0.79090  1.0000
  S   S487      1.0  0.73327  0.34832  0.87985  1.0000
  S   S488      1.0  0.76163  0.32746  0.84375  1.0000
  C   C1418     1.0  0.74035  0.29795  0.81851  1.0000
  H   H1424     1.0  0.98479  0.40957  0.85266  1.0000
  C   C1419     1.0  0.88768  0.44985  0.85915  1.0000
  C   C1420     1.0  0.67305  0.30292  0.82913  1.0000
  Fe  Fe243     1.0  0.94689  0.40252  0.80427  1.0000
  S   S489      1.0  0.92449  0.42325  0.82156  1.0000
  S   S490      1.0  0.93774  0.37720  0.79801  1.0000
  S   S491      1.0  0.96027  0.44616  0.81771  1.0000
  Fe  Fe244     1.0  0.94807  0.42081  0.83796  1.0000
  S   S492      1.0  0.94157  0.42103  0.87021  1.0000
  Fe  Fe245     1.0  0.93830  0.44679  0.79990  1.0000
  C   C1421     1.0  0.81480  0.41174  0.74606  1.0000
  Fe  Fe246     1.0  0.85115  0.39096  0.93851  1.0000
  S   S493      1.0  0.85134  0.41480  0.95375  1.0000
  S   S494      1.0  0.87676  0.37305  0.92086  1.0000
  Fe  Fe247     1.0  0.80656  0.39735  0.94679  1.0000
  S   S495      1.0  0.80262  0.42194  0.96249  1.0000
  S   S496      1.0  0.78021  0.38690  0.94460  1.0000
  Fe  Fe248     1.0  0.82663  0.43197  0.93827  1.0000
  S   S497      1.0  0.82598  0.46307  0.92164  1.0000
  C   C1422     1.0  0.87025  0.44664  0.87226  1.0000
  S   S498      1.0  0.82833  0.40924  0.92119  1.0000
  S   S499      1.0  0.82946  0.37704  0.96306  1.0000
  C   C1423     1.0  0.82613  0.48202  0.75680  1.0000
  S   S500      1.0  0.95912  0.42625  0.78123  1.0000
  H   H1425     1.0  0.81268  0.30889  0.74600  1.0000
  C   C1424     1.0  0.92335  0.40784  0.88394  1.0000
  C   C1425     1.0  0.91260  0.41242  0.90201  1.0000
  C   C1426     1.0  0.89793  0.40211  0.91316  1.0000
  C   C1427     1.0  0.89433  0.38681  0.90653  1.0000
  C   C1428     1.0  0.90507  0.38224  0.88843  1.0000
  C   C1429     1.0  0.91935  0.39296  0.87699  1.0000
  H   H1426     1.0  0.91566  0.42394  0.90741  1.0000
  H   H1427     1.0  0.88990  0.40555  0.92720  1.0000
  H   H1428     1.0  0.90234  0.37043  0.88323  1.0000
  H   H1429     1.0  0.92757  0.38939  0.86302  1.0000
  C   C1430     1.0  0.82532  0.45949  0.97565  1.0000
  H   H1430     1.0  0.84370  0.35536  0.92900  1.0000
  H   H1431     1.0  0.83956  0.32640  0.88544  1.0000
  H   H1432     1.0  0.79037  0.38952  0.80113  1.0000
  C   C1431     1.0  0.78597  0.46763  0.92603  1.0000
  Fe  Fe249     1.0  0.86911  0.34324  0.73935  1.0000
  H   H1433     1.0  0.88981  0.45223  0.74714  1.0000
  C   C1432     1.0  0.69017  0.32204  0.84037  1.0000
  C   C1433     1.0  0.93859  0.39412  0.75881  1.0000
  H   H1434     1.0  0.80059  0.46980  0.77201  1.0000
  H   H1435     1.0  0.75461  0.47070  0.92889  1.0000
  C   C1434     1.0  0.78700  0.35712  0.89324  1.0000
  C   C1435     1.0  0.80018  0.36888  0.89251  1.0000
  C   C1436     1.0  0.79805  0.37836  0.90808  1.0000
  C   C1437     1.0  0.78284  0.37593  0.92449  1.0000
  C   C1438     1.0  0.76940  0.36454  0.92499  1.0000
  C   C1439     1.0  0.77139  0.35524  0.90933  1.0000
  H   H1436     1.0  0.81225  0.37039  0.88004  1.0000
  H   H1437     1.0  0.80830  0.38732  0.90744  1.0000
  H   H1438     1.0  0.75763  0.36260  0.93769  1.0000
  H   H1439     1.0  0.76131  0.34598  0.91005  1.0000
  C   C1440     1.0  0.71760  0.42329  0.84748  1.0000
  C   C1441     1.0  0.72618  0.42091  0.82820  1.0000
  C   C1442     1.0  0.73481  0.43576  0.81479  1.0000
  C   C1443     1.0  0.73550  0.45268  0.82084  1.0000
  C   C1444     1.0  0.72688  0.45507  0.84012  1.0000
  C   C1445     1.0  0.71758  0.44056  0.85333  1.0000
  C   C1446     1.0  0.73109  0.28394  0.81625  1.0000
  H   H1440     1.0  0.74109  0.43405  0.79981  1.0000
  H   H1441     1.0  0.67602  0.27228  0.84348  1.0000
  H   H1442     1.0  0.71102  0.44238  0.86826  1.0000
  H   H1443     1.0  0.94689  0.40395  0.76062  1.0000
  H   H1444     1.0  0.74993  0.41071  0.86623  1.0000
  N   N119      1.0  0.84277  0.46537  0.97269  1.0000
  C   C1447     1.0  0.93146  0.38042  0.77500  1.0000
  C   C1448     1.0  0.92089  0.36760  0.77237  1.0000
  H   H1445     1.0  0.79767  0.48104  0.80238  1.0000
  H   H1446     1.0  0.81014  0.38684  0.76933  1.0000
  H   H1447     1.0  0.69387  0.33593  0.83953  1.0000
  H   H1448     1.0  0.91535  0.35695  0.78483  1.0000
  H   H1449     1.0  0.77345  0.44217  0.77927  1.0000
  C   C1449     1.0  0.83035  0.33945  0.77600  1.0000
  C   C1450     1.0  0.82054  0.33780  0.79564  1.0000
  C   C1451     1.0  0.80000  0.34441  0.80029  1.0000
  C   C1452     1.0  0.78915  0.35217  0.78530  1.0000
  C   C1453     1.0  0.79892  0.35376  0.76564  1.0000
  C   C1454     1.0  0.81951  0.34765  0.76100  1.0000
  H   H1450     1.0  0.82885  0.33162  0.80731  1.0000
  H   H1451     1.0  0.79266  0.34350  0.81550  1.0000
  C   C1455     1.0  0.78091  0.40368  0.79517  1.0000
  H   H1452     1.0  0.70186  0.31360  0.78515  1.0000
  H   H1453     1.0  0.72737  0.46809  0.84487  1.0000
  S   S501      1.0  0.96943  0.39756  0.82295  1.0000
  C   C1456     1.0  0.85957  0.35010  0.89264  1.0000
  H   H1454     1.0  0.77693  0.41315  0.80632  1.0000
  C   C1457     1.0  0.76809  0.47420  0.91933  1.0000
  H   H1455     1.0  0.70585  0.35166  0.79811  1.0000
  C   C1458     1.0  0.71667  0.34372  0.78711  1.0000
  C   C1459     1.0  0.78509  0.43348  0.77004  1.0000
  C   C1460     1.0  0.81919  0.32157  0.91282  1.0000
  C   C1461     1.0  0.91782  0.36814  0.75362  1.0000
  H   H1456     1.0  0.94714  0.46700  0.75666  1.0000
  S   S502      1.0  0.77390  0.48134  0.83989  1.0000
  H   H1457     1.0  0.83848  0.45491  0.87780  1.0000
  H   H1458     1.0  0.73374  0.26902  0.82483  1.0000
  C   C1462     1.0  0.83695  0.34576  0.92442  1.0000
  H   H1459     1.0  0.72974  0.35073  0.78191  1.0000
  C   C1463     1.0  0.69208  0.28736  0.85480  1.0000
  N   N120      1.0  0.74695  0.41013  0.89670  1.0000
  C   C1464     1.0  0.75388  0.41637  0.87710  1.0000
  C   C1465     1.0  0.75188  0.41727  0.91043  1.0000
  C   C1466     1.0  0.76580  0.43039  0.87078  1.0000
  C   C1467     1.0  0.76419  0.43088  0.90467  1.0000
  C   C1468     1.0  0.77095  0.43770  0.88471  1.0000
  C   C1469     1.0  0.73315  0.39674  0.90283  1.0000
  H   H1460     1.0  0.81552  0.34250  0.95160  1.0000
  H   H1461     1.0  0.74652  0.41226  0.92600  1.0000
  H   H1462     1.0  0.79060  0.36000  0.75399  1.0000
  H   H1463     1.0  0.76835  0.43616  0.91567  1.0000
  H   H1464     1.0  0.69771  0.27430  0.86491  1.0000
  H   H1465     1.0  0.71805  0.40526  0.90127  1.0000
  H   H1466     1.0  0.73751  0.38538  0.89355  1.0000
  C   C1470     1.0  0.85210  0.45733  0.86765  1.0000
  N   N121      1.0  0.84342  0.34151  0.90602  1.0000
  H   H1467     1.0  0.85611  0.36639  0.89149  1.0000
  H   H1468     1.0  0.73273  0.38884  0.91834  1.0000
  Fe  Fe250     1.0  0.82739  0.40266  0.97686  1.0000
  H   H1469     1.0  0.70958  0.27901  0.80256  1.0000
  N   N122      1.0  0.79100  0.41354  0.77626  1.0000
  C   C1471     1.0  0.81139  0.47744  0.77303  1.0000
  C   C1472     1.0  0.79409  0.44305  0.75175  1.0000
  C   C1473     1.0  0.71332  0.30918  0.79384  1.0000
  C   C1474     1.0  0.73586  0.31743  0.80825  1.0000
  H   H1470     1.0  0.74273  0.32835  0.81045  1.0000
  C   C1475     1.0  0.82117  0.33834  0.93736  1.0000
  H   H1471     1.0  0.86336  0.47178  0.98609  1.0000
  C   C1476     1.0  0.67975  0.28621  0.84274  1.0000
  C   C1477     1.0  0.85168  0.47115  0.84991  1.0000
  H   H1472     1.0  0.78614  0.45929  0.94081  1.0000
  C   C1478     1.0  0.90169  0.43911  0.74441  1.0000
  H   H1473     1.0  0.98282  0.35714  0.79056  1.0000
  C   C1479     1.0  0.67789  0.32092  0.82834  1.0000
  H   H1474     1.0  0.85825  0.45594  0.94614  1.0000
  H   H1475     1.0  0.90039  0.46608  0.83146  1.0000
  H   H1476     1.0  0.98346  0.33403  0.75923  1.0000
  C   C1480     1.0  0.88674  0.46380  0.84161  1.0000
  H   H1477     1.0  0.70989  0.34557  0.77422  1.0000
  S   S503      1.0  0.74782  0.47031  0.80440  1.0000
  H   H1478     1.0  0.87346  0.34392  0.89841  1.0000
  C   C1481     1.0  0.80555  0.40264  0.76448  1.0000
  H   H1479     1.0  0.86213  0.34724  0.87757  1.0000
  C   C1482     1.0  0.84417  0.29880  0.74400  1.0000
  C   C1483     1.0  0.71761  0.28952  0.80371  1.0000
  H   H1480     1.0  0.90985  0.35800  0.75172  1.0000
  H   H1481     1.0  0.82018  0.45765  0.96333  1.0000
  H   H1482     1.0  0.81186  0.31279  0.90777  1.0000
  H   H1483     1.0  0.77076  0.43571  0.85519  1.0000
  H   H1484     1.0  0.79949  0.32096  0.94103  1.0000
  H   H1485     1.0  0.88443  0.27262  0.74771  1.0000
  H   H1486     1.0  0.89858  0.42602  0.75595  1.0000
  H   H1487     1.0  0.78003  0.44871  0.88009  1.0000
  C   C1484     1.0  0.80341  0.47221  0.91374  1.0000
  C   C1485     1.0  0.69774  0.30517  0.85328  1.0000
  H   H1488     1.0  0.86649  0.48143  0.80734  1.0000
  H   H1489     1.0  0.83753  0.47932  0.84628  1.0000
  H   H1490     1.0  0.87082  0.43585  0.88594  1.0000
  C   C1486     1.0  0.81220  0.32623  0.93144  1.0000
  C   C1487     1.0  0.98645  0.36659  0.77631  1.0000
  H   H1491     1.0  0.72601  0.40767  0.82359  1.0000
  H   H1492     1.0  0.90188  0.44157  0.86247  1.0000
  H   H1493     1.0  0.84537  0.48137  0.94322  1.0000
  H   H1494     1.0  0.91580  0.44189  0.74591  1.0000
  N   N123      1.0  0.72245  0.32284  0.79617  1.0000
  Fe  Fe251     1.0  0.98003  0.42316  0.80125  1.0000
  H   H1495     1.0  0.75023  0.29398  0.82884  1.0000
  C   C1488     1.0  0.93355  0.47429  0.75155  1.0000
  C   C1489     1.0  0.85428  0.46936  0.95264  1.0000
  C   C1490     1.0  0.91612  0.47918  0.76506  1.0000
  C   C1491     1.0  0.78518  0.48944  0.88784  1.0000
  H   H1496     1.0  0.76719  0.40038  0.79328  1.0000
  C   C1492     1.0  0.99482  0.39170  0.74034  1.0000
  H   H1497     1.0  0.96211  0.35103  0.75100  1.0000
  C   C1493     1.0  0.86818  0.48868  0.81868  1.0000
  N   N124      1.0  0.86890  0.47441  0.83731  1.0000
  S   S504      1.0  0.91585  0.47359  0.79035  1.0000
  H   H1498     1.0  0.87894  0.29828  0.74958  1.0000
  C   C1494     1.0  0.99273  0.42964  0.86572  1.0000
  C   C1495     1.0  0.88025  0.28804  0.73969  1.0000
  C   C1496     1.0  0.98553  0.37612  0.74226  1.0000
  C   C1497     1.0  0.80964  0.48398  0.79029  1.0000
  C   C1498     1.0  0.80912  0.43212  0.73978  1.0000
  H   H1499     1.0  0.96250  0.34415  0.77661  1.0000
  H   H1500     1.0  0.66681  0.20715  0.79286  1.0000
  H   H1501     1.0  0.81631  0.48730  0.88531  1.0000
  C   C1499     1.0  0.66591  0.19470  0.80575  1.0000
  H   H1502     1.0  0.97749  0.43661  0.87082  1.0000
  C   C1500     1.0  0.89866  0.48899  0.75836  1.0000
  H   H1503     1.0  0.84384  0.30320  0.75752  1.0000
  H   H1504     1.0  0.86817  0.47386  0.95214  1.0000
  N   N125      1.0  0.98128  0.36395  0.76014  1.0000
  C   C1501     1.0  0.97198  0.34741  0.76179  1.0000
  H   H1505     1.0  0.78960  0.45891  0.74694  1.0000
  H   H1506     1.0  0.68041  0.18420  0.80509  1.0000
  C   C1502     1.0  0.80292  0.48349  0.89478  1.0000
  C   C1503     1.0  0.93602  0.39428  0.73995  1.0000
  S   S505      1.0  0.74569  0.49150  0.89126  1.0000
  C   C1504     1.0  0.99599  0.38184  0.77485  1.0000
  C   C1505     1.0  0.82643  0.30188  0.73764  1.0000
  C   C1506     1.0  0.92578  0.38118  0.73732  1.0000
  H   H1507     1.0  0.77077  0.50027  0.17440  1.0000
  H   H1508     1.0  0.69527  0.59630  0.20472  1.0000
  C   C1507     1.0  0.66869  0.59907  0.22696  1.0000
  H   H1509     1.0  0.68863  0.59532  0.15732  1.0000
  Fe  Fe252     1.0  0.72582  0.52345  0.22438  1.0000
  H   H1510     1.0  0.89386  0.53715  0.21809  1.0000
  S   S506      1.0  0.71497  0.55564  0.21182  1.0000
  C   C1508     1.0  0.89731  0.50218  0.13606  1.0000
  H   H1511     1.0  0.79681  0.50872  0.14548  1.0000
  C   C1509     1.0  0.87691  0.50854  0.14208  1.0000
  S   S507      1.0  0.75768  0.51059  0.21330  1.0000
  H   H1512     1.0  0.93167  0.49634  0.10188  1.0000
  S   S508      1.0  0.71495  0.49828  0.22025  1.0000
  C   C1510     1.0  0.68666  0.58871  0.21768  1.0000
  H   H1513     1.0  0.66624  0.55290  0.20610  1.0000
  H   H1514     1.0  0.87118  0.51591  0.15448  1.0000
  C   C1511     1.0  0.69326  0.56851  0.22479  1.0000
  H   H1515     1.0  0.90721  0.50475  0.14400  1.0000
  H   H1516     1.0  0.84811  0.50940  0.13690  1.0000
  C   C1512     1.0  0.86400  0.50486  0.13232  1.0000
  H   H1517     1.0  0.69305  0.56171  0.17851  1.0000
  H   H1518     1.0  0.75245  0.55799  0.22357  1.0000
  C   C1513     1.0  0.79334  0.49421  0.14916  1.0000
  N   N126      1.0  0.90459  0.49209  0.12099  1.0000
  C   C1514     1.0  0.67680  0.59124  0.16928  1.0000
  H   H1519     1.0  0.89801  0.50090  0.22351  1.0000
  C   C1515     1.0  0.88696  0.50896  0.23368  1.0000
  C   C1516     1.0  0.88460  0.52949  0.23045  1.0000
  C   C1517     1.0  0.67921  0.57233  0.18104  1.0000
  C   C1518     1.0  0.87161  0.49508  0.11664  1.0000
  H   H1520     1.0  0.77469  0.55558  0.23219  1.0000
  H   H1521     1.0  0.66358  0.61455  0.22120  1.0000
  C   C1519     1.0  0.66398  0.56746  0.19670  1.0000
  C   C1520     1.0  0.75939  0.55301  0.23677  1.0000
  H   H1522     1.0  0.86165  0.49233  0.10891  1.0000
  C   C1521     1.0  0.71608  0.57426  0.27235  1.0000
  Fe  Fe253     1.0  0.85079  0.54825  0.31327  1.0000
  S   S509      1.0  0.85344  0.53706  0.34499  1.0000
  S   S510      1.0  0.87621  0.55228  0.28790  1.0000
  Fe  Fe254     1.0  0.80664  0.55025  0.32158  1.0000
  S   S511      1.0  0.80545  0.53973  0.35392  1.0000
  S   S512      1.0  0.77881  0.55434  0.31022  1.0000
  Fe  Fe255     1.0  0.82574  0.56023  0.35046  1.0000
  S   S513      1.0  0.81936  0.57901  0.37329  1.0000
  S   S514      1.0  0.82447  0.57286  0.31862  1.0000
  C   C1522     1.0  0.91715  0.50816  0.26628  1.0000
  C   C1523     1.0  0.88989  0.51299  0.30113  1.0000
  H   H1523     1.0  0.96334  0.70731  0.43189  1.0000
  Fe  Fe256     1.0  0.84793  0.87417  0.45761  1.0000
  S   S515      1.0  0.82567  0.89872  0.44381  1.0000
  S   S516      1.0  0.87078  0.85396  0.43970  1.0000
  C   C1524     1.0  0.66438  0.56930  0.25115  1.0000
  C   C1525     1.0  0.90619  0.52704  0.26875  1.0000
  Fe  Fe257     1.0  0.80341  0.88576  0.46814  1.0000
  S   S517      1.0  0.77460  0.88266  0.46317  1.0000
  H   H1524     1.0  0.83865  0.55326  0.40798  1.0000
  H   H1525     1.0  0.85829  0.93291  0.47907  1.0000
  Fe  Fe258     1.0  0.89871  0.65837  0.42005  1.0000
  S   S518      1.0  0.87093  0.67177  0.43866  1.0000
  S   S519      1.0  0.92827  0.65980  0.42485  1.0000
  Fe  Fe259     1.0  0.87634  0.64490  0.39629  1.0000
  S   S520      1.0  0.84658  0.65770  0.41276  1.0000
  S   S521      1.0  0.88174  0.62810  0.37201  1.0000
  Fe  Fe260     1.0  0.85989  0.68359  0.41053  1.0000
  S   S522      1.0  0.84590  0.71592  0.40504  1.0000
  Fe  Fe261     1.0  0.86035  0.64479  0.43929  1.0000
  H   H1526     1.0  0.86922  0.55574  0.24193  1.0000
  S   S523      1.0  0.88860  0.67207  0.39157  1.0000
  S   S524      1.0  0.88924  0.62996  0.42316  1.0000
  Fe  Fe262     1.0  0.72223  0.79961  0.39961  1.0000
  S   S525      1.0  0.71089  0.78112  0.42832  1.0000
  S   S526      1.0  0.70808  0.80473  0.37330  1.0000
  Fe  Fe263     1.0  0.75442  0.80806  0.41597  1.0000
  S   S527      1.0  0.74538  0.79006  0.44591  1.0000
  S   S528      1.0  0.78131  0.82102  0.41103  1.0000
  Fe  Fe264     1.0  0.74279  0.76847  0.42928  1.0000
  S   S529      1.0  0.75381  0.73572  0.43681  1.0000
  Fe  Fe265     1.0  0.71452  0.80467  0.44169  1.0000
  S   S530      1.0  0.68907  0.81784  0.46316  1.0000
  S   S531      1.0  0.75409  0.78529  0.39946  1.0000
  S   S532      1.0  0.72368  0.82446  0.41289  1.0000
  H   H1527     1.0  0.75244  0.51310  0.28241  1.0000
  C   C1526     1.0  0.84928  0.56117  0.40909  1.0000
  C   C1527     1.0  0.89213  0.52935  0.28597  1.0000
  H   H1528     1.0  0.71500  0.70985  0.38862  1.0000
  C   C1528     1.0  0.90110  0.49421  0.29883  1.0000
  C   C1529     1.0  0.92973  0.68307  0.42762  1.0000
  H   H1529     1.0  0.92971  0.75158  0.38771  1.0000
  H   H1530     1.0  0.69381  0.72398  0.36419  1.0000
  C   C1530     1.0  0.91490  0.71743  0.42882  1.0000
  C   C1531     1.0  0.91330  0.69872  0.42741  1.0000
  H   H1531     1.0  0.90220  0.72955  0.42834  1.0000
  H   H1532     1.0  0.89946  0.69659  0.42571  1.0000
  C   C1532     1.0  0.82032  0.72111  0.41403  1.0000
  C   C1533     1.0  0.80974  0.70598  0.42117  1.0000
  C   C1534     1.0  0.78928  0.71047  0.42823  1.0000
  C   C1535     1.0  0.77940  0.73010  0.42826  1.0000
  C   C1536     1.0  0.79005  0.74518  0.42155  1.0000
  C   C1537     1.0  0.81045  0.74071  0.41432  1.0000
  H   H1533     1.0  0.81723  0.69083  0.42117  1.0000
  H   H1534     1.0  0.78113  0.69874  0.43356  1.0000
  H   H1535     1.0  0.78265  0.76032  0.42204  1.0000
  H   H1536     1.0  0.81858  0.75246  0.40901  1.0000
  N   N127      1.0  0.92668  0.72493  0.38152  1.0000
  H   H1537     1.0  0.84591  0.61284  0.42994  1.0000
  S   S533      1.0  0.98073  0.72598  0.45727  1.0000
  H   H1538     1.0  0.95534  0.71811  0.36423  1.0000
  C   C1538     1.0  0.67072  0.77924  0.35843  1.0000
  C   C1539     1.0  0.84103  0.95998  0.46549  1.0000
  H   H1539     1.0  0.92916  0.64182  0.46606  1.0000
  C   C1540     1.0  0.76535  0.51825  0.28252  1.0000
  C   C1541     1.0  0.75153  0.82454  0.47777  1.0000
  S   S534      1.0  0.78569  0.49544  0.25527  1.0000
  H   H1540     1.0  0.76493  0.73635  0.48036  1.0000
  N   N128      1.0  0.74766  0.56348  0.25242  1.0000
  C   C1542     1.0  0.68216  0.55882  0.24163  1.0000
  C   C1543     1.0  0.76442  0.72045  0.48566  1.0000
  C   C1544     1.0  0.83751  0.98070  0.46193  1.0000
  S   S535      1.0  0.96885  0.77404  0.44236  1.0000
  S   S536      1.0  0.72692  0.51127  0.25626  1.0000
  Fe  Fe266     1.0  0.82835  0.91556  0.46534  1.0000
  C   C1545     1.0  0.88661  0.74181  0.38497  1.0000
  H   H1541     1.0  0.87951  0.51485  0.31466  1.0000
  H   H1542     1.0  0.83029  0.70850  0.45567  1.0000
  C   C1546     1.0  0.89085  0.84080  0.45102  1.0000
  H   H1543     1.0  0.71635  0.58956  0.29466  1.0000
  H   H1544     1.0  0.87064  0.55184  0.38437  1.0000
  C   C1547     1.0  0.72770  0.56468  0.25728  1.0000
  C   C1548     1.0  0.91672  0.81132  0.45621  1.0000
  C   C1549     1.0  0.90130  0.82246  0.44656  1.0000
  H   H1545     1.0  0.79994  0.81056  0.48091  1.0000
  C   C1550     1.0  0.75664  0.57130  0.26255  1.0000
  H   H1546     1.0  0.92448  0.79703  0.45292  1.0000
  H   H1547     1.0  0.89728  0.81669  0.43586  1.0000
  C   C1551     1.0  0.85187  0.59762  0.43742  1.0000
  H   H1548     1.0  0.75479  0.71685  0.47764  1.0000
  H   H1549     1.0  0.79693  0.51092  0.32988  1.0000
  C   C1552     1.0  0.93296  0.72065  0.43025  1.0000
  H   H1550     1.0  0.94989  0.69974  0.38627  1.0000
  H   H1551     1.0  0.95488  0.72228  0.38826  1.0000
  N   N129      1.0  0.85745  0.58419  0.42356  1.0000
  C   C1553     1.0  0.77652  0.86512  0.44914  1.0000
  C   C1554     1.0  0.75966  0.86357  0.44348  1.0000
  C   C1555     1.0  0.76088  0.84959  0.43228  1.0000
  C   C1556     1.0  0.77902  0.83720  0.42666  1.0000
  C   C1557     1.0  0.79581  0.83854  0.43260  1.0000
  C   C1558     1.0  0.79461  0.85258  0.44370  1.0000
  H   H1552     1.0  0.74562  0.87323  0.44773  1.0000
  H   H1553     1.0  0.74786  0.84865  0.42774  1.0000
  H   H1554     1.0  0.80980  0.82876  0.42853  1.0000
  H   H1555     1.0  0.80767  0.85363  0.44808  1.0000
  H   H1556     1.0  0.83016  0.57444  0.43261  1.0000
  C   C1559     1.0  0.87070  0.53993  0.24369  1.0000
  S   S537      1.0  0.83282  0.52683  0.31335  1.0000
  C   C1560     1.0  0.83558  0.59467  0.37082  1.0000
  C   C1561     1.0  0.85326  0.59358  0.35694  1.0000
  C   C1562     1.0  0.86701  0.60456  0.35689  1.0000
  C   C1563     1.0  0.86314  0.61665  0.37069  1.0000
  C   C1564     1.0  0.84512  0.61830  0.38405  1.0000
  C   C1565     1.0  0.83139  0.60733  0.38411  1.0000
  H   H1557     1.0  0.85658  0.58390  0.34659  1.0000
  H   H1558     1.0  0.88089  0.60330  0.34644  1.0000
  H   H1559     1.0  0.84188  0.62772  0.39455  1.0000
  H   H1560     1.0  0.81766  0.60832  0.39477  1.0000
  H   H1561     1.0  0.67830  0.83129  0.42450  1.0000
  C   C1566     1.0  0.78077  0.53771  0.29522  1.0000
  C   C1567     1.0  0.76402  0.53119  0.29484  1.0000
  C   C1568     1.0  0.91174  0.83715  0.47432  1.0000
  H   H1562     1.0  0.77582  0.80357  0.46517  1.0000
  H   H1563     1.0  0.75002  0.53618  0.30407  1.0000
  H   H1564     1.0  0.75206  0.74566  0.39461  1.0000
  H   H1565     1.0  0.71526  0.71976  0.34482  1.0000
  C   C1569     1.0  0.91410  0.71482  0.37871  1.0000
  H   H1566     1.0  0.88619  0.61977  0.46482  1.0000
  Fe  Fe267     1.0  0.99368  0.75219  0.45511  1.0000
  C   C1570     1.0  0.68306  0.79181  0.35818  1.0000
  C   C1571     1.0  0.69313  0.78847  0.37361  1.0000
  C   C1572     1.0  0.69103  0.77229  0.38909  1.0000
  H   H1567     1.0  0.88232  0.69823  0.48129  1.0000
  C   C1573     1.0  0.78348  0.51170  0.27070  1.0000
  H   H1568     1.0  0.68471  0.80422  0.34605  1.0000
  H   H1569     1.0  0.69909  0.76915  0.40072  1.0000
  H   H1570     1.0  0.83520  0.67294  0.47212  1.0000
  H   H1571     1.0  0.77235  0.50819  0.34069  1.0000
  H   H1572     1.0  0.84046  0.59309  0.45031  1.0000
  C   C1574     1.0  0.89960  0.75220  0.38740  1.0000
  C   C1575     1.0  0.94776  0.71586  0.37989  1.0000
  H   H1573     1.0  0.70021  0.57529  0.27600  1.0000
  C   C1576     1.0  0.66837  0.76332  0.37419  1.0000
  S   S538      1.0  0.84416  0.63106  0.46832  1.0000
  C   C1577     1.0  0.92192  0.81865  0.47014  1.0000
  S   S539      1.0  0.93527  0.74486  0.42875  1.0000
  H   H1574     1.0  0.89409  0.76664  0.39126  1.0000
  S   S540      1.0  0.93853  0.75155  0.47824  1.0000
  H   H1575     1.0  0.74105  0.82215  0.47043  1.0000
  Fe  Fe268     1.0  0.83296  0.51767  0.34551  1.0000
  C   C1578     1.0  0.84773  0.99027  0.46980  1.0000
  H   H1576     1.0  0.88841  0.86240  0.46817  1.0000
  N   N130      1.0  0.80834  0.86963  0.39439  1.0000
  C   C1579     1.0  0.81745  0.85218  0.38839  1.0000
  C   C1580     1.0  0.81816  0.87863  0.40254  1.0000
  C   C1581     1.0  0.83662  0.84290  0.39123  1.0000
  C   C1582     1.0  0.83741  0.86985  0.40537  1.0000
  C   C1583     1.0  0.84659  0.85178  0.39990  1.0000
  C   C1584     1.0  0.78808  0.87901  0.39178  1.0000
  H   H1577     1.0  0.80959  0.84491  0.38213  1.0000
  H   H1578     1.0  0.81095  0.89245  0.40733  1.0000
  H   H1579     1.0  0.84350  0.82874  0.38709  1.0000
  H   H1580     1.0  0.84516  0.87681  0.41206  1.0000
  H   H1581     1.0  0.86133  0.84467  0.40260  1.0000
  H   H1582     1.0  0.78826  0.89089  0.37839  1.0000
  H   H1583     1.0  0.78009  0.86809  0.39045  1.0000
  H   H1584     1.0  0.77949  0.88539  0.40480  1.0000
  H   H1585     1.0  0.86478  0.59789  0.44329  1.0000
  C   C1585     1.0  0.72510  0.58232  0.28273  1.0000
  H   H1586     1.0  0.88386  0.71506  0.37834  1.0000
  C   C1586     1.0  0.84452  0.57332  0.42289  1.0000
  Fe  Fe269     1.0  0.95457  0.74811  0.44779  1.0000
  H   H1587     1.0  0.79749  0.73048  0.46260  1.0000
  C   C1587     1.0  0.79881  0.53130  0.28323  1.0000
  H   H1588     1.0  0.68713  0.54323  0.24722  1.0000
  H   H1589     1.0  0.71815  0.79127  0.48479  1.0000
  H   H1590     1.0  0.91956  0.70003  0.37564  1.0000
  C   C1588     1.0  0.87503  0.58368  0.41042  1.0000
  S   S541      1.0  0.94031  0.80446  0.48328  1.0000
  C   C1589     1.0  0.88025  0.57171  0.39642  1.0000
  C   C1590     1.0  0.86726  0.56041  0.39578  1.0000
  S   S542      1.0  0.82645  0.94860  0.45705  1.0000
  N   N131      1.0  0.71854  0.73485  0.36545  1.0000
  C   C1591     1.0  0.72184  0.72255  0.38287  1.0000
  C   C1592     1.0  0.72726  0.75084  0.35815  1.0000
  C   C1593     1.0  0.73390  0.72631  0.39363  1.0000
  C   C1594     1.0  0.73933  0.75507  0.36857  1.0000
  C   C1595     1.0  0.74270  0.74264  0.38636  1.0000
  C   C1596     1.0  0.70623  0.73038  0.35421  1.0000
  H   H1591     1.0  0.69931  0.74397  0.34472  1.0000
  H   H1592     1.0  0.72449  0.76075  0.34447  1.0000
  H   H1593     1.0  0.73639  0.71674  0.40757  1.0000
  H   H1594     1.0  0.74568  0.76813  0.36305  1.0000
  H   H1595     1.0  0.98087  0.80372  0.45821  1.0000
  C   C1597     1.0  0.81821  0.70273  0.46604  1.0000
  C   C1598     1.0  0.89618  0.84816  0.46484  1.0000
  H   H1596     1.0  0.75279  0.58649  0.28623  1.0000
  H   H1597     1.0  0.66573  0.80379  0.44291  1.0000
  C   C1599     1.0  0.94767  0.68611  0.42963  1.0000
  H   H1598     1.0  0.81156  0.53692  0.28285  1.0000
  H   H1599     1.0  0.88479  0.59317  0.41014  1.0000
  H   H1600     1.0  0.77256  0.56977  0.25926  1.0000
  C   C1600     1.0  0.74552  0.58079  0.27787  1.0000
  C   C1601     1.0  0.78767  0.49975  0.33671  1.0000
  H   H1601     1.0  0.96045  0.67404  0.42975  1.0000
  C   C1602     1.0  0.80021  0.51816  0.27115  1.0000
  C   C1603     1.0  0.89391  0.72314  0.38032  1.0000
  H   H1602     1.0  0.89380  0.57205  0.38549  1.0000
  C   C1604     1.0  0.91977  0.74359  0.38536  1.0000
  C   C1605     1.0  0.94929  0.70489  0.43099  1.0000
  H   H1603     1.0  0.87084  0.74803  0.38687  1.0000
  H   H1604     1.0  0.92783  0.50644  0.25292  1.0000
  C   C1606     1.0  0.78459  0.81814  0.48358  1.0000
  C   C1607     1.0  0.67190  0.83279  0.41142  1.0000
  C   C1608     1.0  0.93848  0.67970  0.47807  1.0000
  H   H1605     1.0  0.81421  0.51324  0.26186  1.0000
  C   C1609     1.0  0.90969  0.70612  0.48060  1.0000
  C   C1610     1.0  0.77107  0.81420  0.47477  1.0000
  C   C1611     1.0  0.85930  0.62898  0.48486  1.0000
  C   C1612     1.0  0.82094  0.68279  0.47511  1.0000
  S   S543      1.0  0.85272  0.89215  0.47694  1.0000
  N   N132      1.0  0.92714  0.66727  0.47726  1.0000
  Fe  Fe270     1.0  0.95478  0.77565  0.47368  1.0000
  H   H1606     1.0  0.90825  0.53978  0.25715  1.0000
  S   S544      1.0  0.82530  0.85993  0.48041  1.0000
  H   H1607     1.0  0.91575  0.84290  0.48504  1.0000
  C   C1613     1.0  0.85529  0.94886  0.47647  1.0000
  H   H1608     1.0  0.82655  0.98937  0.45337  1.0000
  C   C1614     1.0  0.67867  0.75982  0.38941  1.0000
  Fe  Fe271     1.0  0.75812  0.49663  0.24492  1.0000
  H   H1609     1.0  0.67707  0.74740  0.40152  1.0000
  C   C1615     1.0  0.79959  0.71507  0.46994  1.0000
  C   C1616     1.0  0.85938  0.52978  0.25990  1.0000
  C   C1617     1.0  0.93626  0.64676  0.47559  1.0000
  H   H1610     1.0  0.84914  0.53777  0.27061  1.0000
  C   C1618     1.0  0.89813  0.69320  0.48034  1.0000
  C   C1619     1.0  0.87981  0.62395  0.47888  1.0000
  H   H1611     1.0  0.68420  0.83277  0.39839  1.0000
  N   N133      1.0  0.78415  0.70773  0.48249  1.0000
  H   H1612     1.0  0.95216  0.64511  0.46862  1.0000
  H   H1613     1.0  0.89814  0.66371  0.47840  1.0000
  H   H1614     1.0  0.90300  0.72138  0.48161  1.0000
  C   C1620     1.0  0.90716  0.67368  0.47868  1.0000
  C   C1621     1.0  0.86168  0.97913  0.48113  1.0000
  H   H1615     1.0  0.90801  0.62004  0.48650  1.0000
  H   H1616     1.0  0.76028  0.53687  0.24196  1.0000
  C   C1622     1.0  0.69568  0.81797  0.48511  1.0000
  H   H1617     1.0  0.95426  0.67459  0.47731  1.0000
  C   C1623     1.0  0.92998  0.69934  0.47950  1.0000
  H   H1618     1.0  0.93913  0.70917  0.47978  1.0000
  C   C1624     1.0  0.99433  0.80290  0.46309  1.0000
  C   C1625     1.0  0.99359  0.80348  0.48256  1.0000
  C   C1626     1.0  0.86225  0.50924  0.26279  1.0000
  C   C1627     1.0  0.86564  0.95843  0.48419  1.0000
  H   H1619     1.0  0.72068  0.55810  0.24954  1.0000
  S   S545      1.0  0.98049  0.75579  0.48621  1.0000
  H   H1620     1.0  0.85385  0.50143  0.27581  1.0000
  N   N134      1.0  0.87572  0.49914  0.24959  1.0000
  C   C1628     1.0  0.70396  0.74281  0.64117  1.0000
  H   H1621     1.0  0.95777  0.68841  0.55809  1.0000
  S   S546      1.0  0.83293  0.55893  0.66634  1.0000
  H   H1622     1.0  0.70418  0.72764  0.64110  1.0000
  H   H1623     1.0  0.93442  0.68094  0.52002  1.0000
  C   C1629     1.0  0.79893  0.74384  0.60542  1.0000
  H   H1624     1.0  0.85724  0.63921  0.52929  1.0000
  H   H1625     1.0  0.92553  0.62960  0.61179  1.0000
  H   H1626     1.0  0.89723  0.69110  0.60215  1.0000
  H   H1627     1.0  0.82702  0.74865  0.58756  1.0000
  S   S547      1.0  0.83059  0.86979  0.53017  1.0000
  H   H1628     1.0  0.81653  0.57742  0.70119  1.0000
  H   H1629     1.0  0.95328  0.63725  0.58456  1.0000
  Fe  Fe272     1.0  0.87195  0.68016  0.56874  1.0000
  S   S548      1.0  0.85931  0.67359  0.54617  1.0000
  S   S549      1.0  0.87804  0.71033  0.56486  1.0000
  Fe  Fe273     1.0  0.87440  0.63871  0.59339  1.0000
  S   S550      1.0  0.86178  0.62825  0.57315  1.0000
  S   S551      1.0  0.88730  0.61854  0.61857  1.0000
  Fe  Fe274     1.0  0.88148  0.64501  0.54915  1.0000
  S   S552      1.0  0.89983  0.63302  0.52293  1.0000
  Fe  Fe275     1.0  0.84059  0.65760  0.57203  1.0000
  S   S553      1.0  0.80806  0.66085  0.57431  1.0000
  S   S554      1.0  0.89602  0.65288  0.56942  1.0000
  S   S555      1.0  0.85139  0.66668  0.59468  1.0000
  Fe  Fe276     1.0  0.77821  0.78312  0.56072  1.0000
  S   S556      1.0  0.76992  0.79071  0.53116  1.0000
  S   S557      1.0  0.80490  0.78841  0.56807  1.0000
  Fe  Fe277     1.0  0.74540  0.76067  0.58039  1.0000
  S   S558      1.0  0.73413  0.76579  0.55259  1.0000
  S   S559      1.0  0.73278  0.74119  0.60812  1.0000
  Fe  Fe278     1.0  0.76599  0.75948  0.53778  1.0000
  S   S560      1.0  0.78000  0.73939  0.51638  1.0000
  Fe  Fe279     1.0  0.73883  0.79653  0.54829  1.0000
  S   S561      1.0  0.71592  0.82283  0.53887  1.0000
  S   S562      1.0  0.77687  0.75133  0.56594  1.0000
  S   S563      1.0  0.74746  0.79203  0.57739  1.0000
  C   C1630     1.0  0.90019  0.71090  0.54775  1.0000
  C   C1631     1.0  0.91047  0.72586  0.54522  1.0000
  C   C1632     1.0  0.92944  0.72468  0.53335  1.0000
  C   C1633     1.0  0.93822  0.70824  0.52461  1.0000
  C   C1634     1.0  0.92772  0.69362  0.52681  1.0000
  C   C1635     1.0  0.90851  0.69530  0.53782  1.0000
  H   H1630     1.0  0.90408  0.73795  0.55293  1.0000
  H   H1631     1.0  0.93762  0.73600  0.53166  1.0000
  H   H1632     1.0  0.90029  0.68430  0.53880  1.0000
  C   C1636     1.0  0.79900  0.68069  0.55653  1.0000
  C   C1637     1.0  0.78037  0.69255  0.56156  1.0000
  C   C1638     1.0  0.77427  0.71035  0.54891  1.0000
  C   C1639     1.0  0.78649  0.71594  0.53085  1.0000
  C   C1640     1.0  0.80442  0.70329  0.52507  1.0000
  C   C1641     1.0  0.81072  0.68569  0.53797  1.0000
  H   H1633     1.0  0.77094  0.68831  0.57554  1.0000
  H   H1634     1.0  0.76022  0.71993  0.55329  1.0000
  H   H1635     1.0  0.81383  0.70750  0.51105  1.0000
  H   H1636     1.0  0.82465  0.67605  0.53359  1.0000
  H   H1637     1.0  0.83532  0.63773  0.50807  1.0000
  H   H1638     1.0  0.83783  0.91540  0.51027  1.0000
  C   C1642     1.0  0.82788  0.97272  0.52253  1.0000
  Fe  Fe280     1.0  0.85026  0.52905  0.67770  1.0000
  C   C1643     1.0  0.80116  0.82510  0.54352  1.0000
  C   C1644     1.0  0.81007  0.81200  0.55852  1.0000
  C   C1645     1.0  0.82458  0.81711  0.56509  1.0000
  C   C1646     1.0  0.83026  0.83519  0.55672  1.0000
  H   H1639     1.0  0.78990  0.82118  0.53850  1.0000
  H   H1640     1.0  0.83153  0.80700  0.57663  1.0000
  C   C1647     1.0  0.88642  0.79051  0.50954  1.0000
  C   C1648     1.0  0.84782  0.57605  0.65431  1.0000
  C   C1649     1.0  0.86789  0.57147  0.65499  1.0000
  C   C1650     1.0  0.87986  0.58491  0.64446  1.0000
  C   C1651     1.0  0.87183  0.60274  0.63300  1.0000
  C   C1652     1.0  0.85168  0.60745  0.63255  1.0000
  C   C1653     1.0  0.83963  0.59418  0.64340  1.0000
  H   H1641     1.0  0.87424  0.55761  0.66360  1.0000
  H   H1642     1.0  0.89544  0.58129  0.64486  1.0000
  H   H1643     1.0  0.84541  0.62126  0.62376  1.0000
  H   H1644     1.0  0.82407  0.59776  0.64293  1.0000
  H   H1645     1.0  0.79218  0.51835  0.72436  1.0000
  C   C1654     1.0  0.84664  0.52663  0.62633  1.0000
  C   C1655     1.0  0.82183  0.84807  0.54139  1.0000
  H   H1646     1.0  0.84154  0.83899  0.56186  1.0000
  H   H1647     1.0  0.81040  0.69571  0.58587  1.0000
  C   C1656     1.0  0.83179  0.95205  0.52654  1.0000
  C   C1657     1.0  0.71698  0.75301  0.62675  1.0000
  C   C1658     1.0  0.71687  0.77249  0.62721  1.0000
  H   H1648     1.0  0.97203  0.66451  0.56641  1.0000
  H   H1649     1.0  0.72717  0.78033  0.61651  1.0000
  Fe  Fe281     1.0  0.82804  0.87996  0.49859  1.0000
  C   C1659     1.0  0.86744  0.82462  0.50483  1.0000
  H   H1650     1.0  0.87176  0.74749  0.53312  1.0000
  H   H1651     1.0  0.67515  0.67589  0.72682  1.0000
  Fe  Fe282     1.0  0.88565  0.50194  0.69303  1.0000
  H   H1652     1.0  0.68063  0.74414  0.66672  1.0000
  S   S564      1.0  0.85715  0.51896  0.70798  1.0000
  S   S565      1.0  0.91609  0.49574  0.69934  1.0000
  C   C1660     1.0  0.68599  0.83329  0.49518  1.0000
  H   H1653     1.0  0.67420  0.84458  0.48969  1.0000
  C   C1661     1.0  0.80439  0.97300  0.50338  1.0000
  C   C1662     1.0  0.68111  0.78299  0.60245  1.0000
  C   C1663     1.0  0.68308  0.76454  0.59796  1.0000
  H   H1654     1.0  0.80907  0.54447  0.70270  1.0000
  C   C1664     1.0  0.66347  0.80933  0.62071  1.0000
  N   N135      1.0  0.75880  0.84164  0.49912  1.0000
  H   H1655     1.0  0.85446  0.83372  0.51301  1.0000
  H   H1656     1.0  0.70325  0.79698  0.64193  1.0000
  C   C1665     1.0  0.88706  0.55506  0.60549  1.0000
  H   H1657     1.0  0.84301  0.94400  0.53506  1.0000
  C   C1666     1.0  0.80870  0.95233  0.50764  1.0000
  C   C1667     1.0  0.85284  0.77648  0.53024  1.0000
  C   C1668     1.0  0.69195  0.83442  0.51201  1.0000
  N   N136      1.0  0.66538  0.79003  0.61603  1.0000
  N   N137      1.0  0.85701  0.54287  0.61718  1.0000
  S   S566      1.0  0.87374  0.99053  0.49245  1.0000
  H   H1658     1.0  0.89734  0.65651  0.62068  1.0000
  S   S567      1.0  0.96264  0.70518  0.51184  1.0000
  C   C1669     1.0  0.79735  0.52792  0.73066  1.0000
  C   C1670     1.0  0.77821  0.83219  0.49560  1.0000
  H   H1659     1.0  0.80057  0.85315  0.52304  1.0000
  H   H1660     1.0  0.83962  0.56234  0.70681  1.0000
  H   H1661     1.0  0.83460  0.71732  0.57536  1.0000
  S   S568      1.0  0.83568  0.50418  0.68001  1.0000
  H   H1662     1.0  0.92552  0.69824  0.57567  1.0000
  C   C1671     1.0  0.80725  0.84307  0.53475  1.0000
  C   C1672     1.0  0.71669  0.80435  0.50930  1.0000
  H   H1663     1.0  0.95606  0.66761  0.54934  1.0000
  C   C1673     1.0  0.82097  0.72124  0.58565  1.0000
  H   H1664     1.0  0.73039  0.84638  0.49219  1.0000
  N   N138      1.0  0.94125  0.66824  0.57884  1.0000
  C   C1674     1.0  0.92575  0.68319  0.58368  1.0000
  C   C1675     1.0  0.94127  0.64919  0.58871  1.0000
  C   C1676     1.0  0.90977  0.67926  0.59882  1.0000
  C   C1677     1.0  0.92567  0.64476  0.60414  1.0000
  C   C1678     1.0  0.90981  0.65991  0.60916  1.0000
  C   C1679     1.0  0.95756  0.67238  0.56242  1.0000
  C   C1680     1.0  0.81675  0.73875  0.59257  1.0000
  C   C1681     1.0  0.80723  0.70903  0.59171  1.0000
  C   C1682     1.0  0.70336  0.78188  0.64168  1.0000
  C   C1683     1.0  0.71086  0.80334  0.49232  1.0000
  H   H1665     1.0  0.88577  0.52475  0.61828  1.0000
  H   H1666     1.0  0.83918  0.52393  0.61570  1.0000
  H   H1667     1.0  0.79522  0.75783  0.61020  1.0000
  S   S569      1.0  0.87995  0.51467  0.66250  1.0000
  N   N139      1.0  0.78990  0.71399  0.60451  1.0000
  C   C1684     1.0  0.86359  0.63479  0.51532  1.0000
  C   C1685     1.0  0.85116  0.63394  0.50331  1.0000
  H   H1668     1.0  0.69253  0.79137  0.59534  1.0000
  N   N140      1.0  0.81410  0.55427  0.72647  1.0000
  H   H1669     1.0  0.76722  0.70136  0.62535  1.0000
  C   C1686     1.0  0.78555  0.73123  0.61125  1.0000
  C   C1687     1.0  0.87090  0.76319  0.52727  1.0000
  H   H1670     1.0  0.82544  0.58052  0.72125  1.0000
  H   H1671     1.0  0.83309  0.91396  0.53645  1.0000
  H   H1672     1.0  0.76420  0.70767  0.60019  1.0000
  C   C1688     1.0  0.77521  0.70159  0.60989  1.0000
  C   C1689     1.0  0.69037  0.75225  0.65551  1.0000
  C   C1690     1.0  0.82444  0.56938  0.71338  1.0000
  C   C1691     1.0  0.66860  0.75353  0.60711  1.0000
  H   H1673     1.0  0.90193  0.76002  0.51415  1.0000
  H   H1674     1.0  0.77139  0.73561  0.62066  1.0000
  C   C1692     1.0  0.85567  0.57724  0.60269  1.0000
  H   H1675     1.0  0.81348  0.91445  0.52496  1.0000
  H   H1676     1.0  0.72876  0.79329  0.51452  1.0000
  H   H1677     1.0  0.78883  0.83546  0.50210  1.0000
  C   C1693     1.0  0.88413  0.63018  0.50907  1.0000
  H   H1678     1.0  0.78216  0.68608  0.60832  1.0000
  C   C1694     1.0  0.80706  0.54259  0.71852  1.0000
  H   H1679     1.0  0.79429  0.98097  0.49358  1.0000
  H   H1680     1.0  0.76157  0.85270  0.52316  1.0000
  C   C1695     1.0  0.87619  0.57404  0.59980  1.0000
  C   C1696     1.0  0.87719  0.53949  0.61401  1.0000
  H   H1681     1.0  0.88360  0.58635  0.59353  1.0000
  C   C1697     1.0  0.68974  0.77194  0.65558  1.0000
  H   H1682     1.0  0.83609  0.98056  0.52772  1.0000
  C   C1698     1.0  0.70740  0.82006  0.51900  1.0000
  C   C1699     1.0  0.74562  0.83835  0.48999  1.0000
  C   C1700     1.0  0.82687  0.92049  0.52292  1.0000
  H   H1683     1.0  0.90300  0.55247  0.60349  1.0000
  N   N141      1.0  0.86869  0.80345  0.51279  1.0000
  H   H1684     1.0  0.67803  0.81358  0.61733  1.0000
  C   C1701     1.0  0.84625  0.56144  0.61165  1.0000
  H   H1685     1.0  0.83025  0.56420  0.61451  1.0000
  C   C1702     1.0  0.88781  0.77020  0.51672  1.0000
  N   N142      1.0  0.82204  0.94214  0.51931  1.0000
  H   H1686     1.0  0.80180  0.94451  0.50098  1.0000
  H   H1687     1.0  0.69598  0.75868  0.58777  1.0000
  H   H1688     1.0  0.83543  0.53040  0.63943  1.0000
  H   H1689     1.0  0.97951  0.80472  0.49282  1.0000
  H   H1690     1.0  0.84704  0.59201  0.59863  1.0000
  H   H1691     1.0  0.83787  0.80685  0.52470  1.0000
  C   C1703     1.0  0.81404  0.98323  0.51092  1.0000
  H   H1692     1.0  0.88510  0.50153  0.73312  1.0000
  H   H1693     1.0  0.83955  0.77126  0.53842  1.0000
  C   C1704     1.0  0.85197  0.79665  0.52263  1.0000
  H   H1694     1.0  0.87652  0.94974  0.49283  1.0000
  H   H1695     1.0  0.68474  0.84658  0.51946  1.0000
  C   C1705     1.0  0.80514  0.67545  0.48792  1.0000
  S   S570      1.0  0.67168  0.78463  0.67233  1.0000
  H   H1696     1.0  0.67006  0.73912  0.60393  1.0000
  H   H1697     1.0  0.80713  0.65992  0.49487  1.0000
  S   S571      1.0  0.80396  0.90464  0.48862  1.0000
  H   H1698     1.0  0.73683  0.85593  0.52010  1.0000
  H   H1699     1.0  0.88068  0.82924  0.50612  1.0000
  H   H1700     1.0  0.89963  0.79585  0.50141  1.0000
  C   C1706     1.0  0.75224  0.85611  0.51194  1.0000
  C   C1707     1.0  0.78673  0.68821  0.49148  1.0000
  Fe  Fe283     1.0  0.84512  0.49259  0.70898  1.0000
  H   H1701     1.0  0.86624  0.82802  0.48912  1.0000
  H   H1702     1.0  0.85684  0.51260  0.63131  1.0000
  C   C1708     1.0  0.89219  0.62419  0.49112  1.0000
  H   H1703     1.0  0.75775  0.71848  0.50160  1.0000
  H   H1704     1.0  0.93457  0.63703  0.49042  1.0000
  H   H1705     1.0  0.77449  0.68242  0.50144  1.0000
  H   H1706     1.0  0.75288  0.87114  0.50297  1.0000
  Fe  Fe284     1.0  0.96570  0.73135  0.48741  1.0000
  C   C1709     1.0  0.67702  0.52748  0.88100  1.0000
  Fe  Fe285     1.0  0.74429  0.53465  0.82454  1.0000
  S   S572      1.0  0.76487  0.51796  0.80228  1.0000
  S   S573      1.0  0.72874  0.56648  0.81726  1.0000
  C   C1710     1.0  0.69154  0.58921  0.82404  1.0000
  N   N143      1.0  0.70094  0.54711  0.87706  1.0000
  H   H1707     1.0  0.85565  0.50149  0.82041  1.0000
  S   S574      1.0  0.76622  0.52773  0.84422  1.0000
  N   N144      1.0  0.67043  0.64182  0.76921  1.0000
  C   C1711     1.0  0.68661  0.56397  0.87510  1.0000
  C   C1712     1.0  0.69349  0.55478  0.82465  1.0000
  C   C1713     1.0  0.70288  0.57037  0.82211  1.0000
  H   H1708     1.0  0.72758  0.55424  0.85936  1.0000
  H   H1709     1.0  0.70207  0.54039  0.82255  1.0000
  C   C1714     1.0  0.67633  0.63597  0.78838  1.0000
  H   H1710     1.0  0.78726  0.51401  0.76057  1.0000
  H   H1711     1.0  0.69879  0.60128  0.82217  1.0000
  C   C1715     1.0  0.83836  0.49836  0.77580  1.0000
  H   H1712     1.0  0.88519  0.49282  0.76877  1.0000
  H   H1713     1.0  0.78506  0.49764  0.87299  1.0000
  H   H1714     1.0  0.72214  0.55910  0.88393  1.0000
  H   H1715     1.0  0.70777  0.51561  0.88141  1.0000
  H   H1716     1.0  0.67357  0.51315  0.88279  1.0000
  H   H1717     1.0  0.88185  0.49468  0.81322  1.0000
  S   S575      1.0  0.72931  0.50951  0.84055  1.0000
  Fe  Fe286     1.0  0.78538  0.50844  0.82358  1.0000
  C   C1716     1.0  0.81219  0.55138  0.74643  1.0000
  S   S576      1.0  0.81779  0.50631  0.81172  1.0000
  H   H1718     1.0  0.66565  0.54564  0.83195  1.0000
  H   H1719     1.0  0.73091  0.53424  0.88018  1.0000
  H   H1720     1.0  0.80088  0.53469  0.77483  1.0000
  C   C1717     1.0  0.72140  0.54872  0.87505  1.0000
  C   C1718     1.0  0.67284  0.55784  0.82969  1.0000
  H   H1721     1.0  0.68864  0.62280  0.78857  1.0000
  C   C1719     1.0  0.66701  0.56296  0.87655  1.0000
  C   C1720     1.0  0.69638  0.52900  0.88003  1.0000
  C   C1721     1.0  0.80233  0.53703  0.75900  1.0000
  H   H1722     1.0  0.68510  0.66604  0.75921  1.0000
  H   H1723     1.0  0.69036  0.57835  0.87196  1.0000
  H   H1724     1.0  0.81831  0.56013  0.75279  1.0000
  Fe  Fe287     1.0  0.75271  0.50139  0.85862  1.0000
  H   H1725     1.0  0.68093  0.64816  0.79198  1.0000
  H   H1726     1.0  0.84853  0.50683  0.77669  1.0000
  C   C1722     1.0  0.67085  0.59231  0.82902  1.0000
  C   C1723     1.0  0.79474  0.52536  0.75101  1.0000
  C   C1724     1.0  0.67650  0.65742  0.75565  1.0000
  C   C1725     1.0  0.82273  0.49492  0.79155  1.0000
  H   H1727     1.0  0.85177  0.49498  0.74607  1.0000
  C   C1726     1.0  0.89858  0.49388  0.73818  1.0000
  Fe  Fe288     1.0  0.75200  0.49203  0.82001  1.0000
  C   C1727     1.0  0.67103  0.66301  0.73727  1.0000
  C   C1728     1.0  0.84004  0.49190  0.75838  1.0000
  H   H1728     1.0  0.66363  0.63252  0.80025  1.0000
