data_image0
_chemical_formula_structural       SFeS2FeS2FeSFeS3CH2FeS2CFeSFeCH3CSCSNC6H4C3HC2H2CHCSCH2C2HCHC6H4C3H2SCHC2HSH3CH4CHCHCH2CHCH2FeCSH2C2NC6H4CH3NSCHCNC2FeH3SH4C2HCH2SCN2SH3CSC2HCFeCH2C2H2C3HSCHCH3CSC2SH2SHCHCHCHSHFeHSFeHC2HS3C3H2C5HC6H5NCH3C2NCHSH2SH3CHC2SC4NCHFeH2CHSC2FeHC4H2NCHCH2SHFeCHCH2C2HC2HCS2CSFeHS2CH2FeHNFeSH2FeSFe2S2HCFeSFeNS2C2HCSH2NCSH2C3SHC2HCH7NHC6H3CFe2C4HC2HC6H4SC3H2SFeCSNC2FeCHCH7CH2CHFeH2C2SHCH2SFeCSC3S2HCH3C2H2FeH3C2SH2CHCSCH4CH2CNH2SC3H2C3SC2H4C3HSC2H2SH4FeS2CSFeSFeSCSFeSFeS2FeSFeS3HFeSHSNHFeS2CH2C3H2CSC7H4C6H4C6H4C6H6NC2HNFeH3CHCHCNC2HSHCHCHNH2C4H5FeHCHCFeC3HSCHCHNHCH3C3H4CSCH5CHC2HCSHCNC6H9SH2C3NCHCHCSCH3CHSCHSHCH3FeCHFeSCFeS2FeS2FeHFeHS3C3SHC2FeSH2C2HFeS2FeS2FeSFeHS3C6HCH2CH3C2HCHNHC2HSC3HCHNHC2H3C6H4C6H4C3HC3HCHSC2HCFeH2SH3C3HCH3NC6H5CH2CHCNFeNH2CH6CH3CSHSC3HCSHC2SFeH3FeCH3C2HCH3SC2SH2FeS2H3FeSCHCHC2FeCFeHSFeS2C2HS2CHSHCHC3HC6H4SHCSH2CHNHC2HCNH2NCHC2HFeHNC4HC3H2CFeH3SH3C2H3CHNHC2S2FeSHFeSFeSCS2C2HCFeCSCFeSHFeS2FeSFeS4C7H7CHFeCFeCH2C7H5FeH3CH2C3HCSHSC4H2CHC4H2CSC2HNH5CHFeCNC2HSH3CHCHCHFeC2H2S2H2CHCHC2HCSNH2CHNCHNCHCH2CHSCH5C5H2FeH3CHC3FeS2FeSHFeHS2FeS2FeS2Fe2S3FeS2FeS2FeSFeS2HCSH3CHC2HCFeCHCH2C6H4FeCHFeNH3CHCHCH2C6H4C6H3C6HC8H4CSNCH2SH2CH2CHC3H2CHCFeSC2H4SNC6H8NC2HSCH2CFe2HCHCH3SHCH2SH2SC2HNH2C4HCSHNC6SH2C2FeCHC2HCH2CH2SH2NSH2CH2C2H2CHC2H4CHCHCSFeS2FeSCHS2CFeS2FeS2FeSFeS3C2NHCSCSHFeHC6H4C10H5CHC3H3C3SC6H4C5FeH2NH2NC6H4FeCNHNC6H3C2H3NHCHCHSH2C3SC3H6NFeH2CSCH2CSHCH4SCH2C3HC3FeHFeHC2H3SHCHCSCH2CH2CFeS2H6C2NSCHCS2HC2H3C3H2CFeCHSNH3C2SHSFeSH2FeHNH2CHFe2SFeSFeS2H2FeS2FeS2FeSFeS3C6H3C6H3C6H4C6H6CH2CH2SCHCH3CHN2CHCHCHFeC5FeC3HS2HFeHNC6H8CHCHC4HCSH2SCFeHCH2CH2CHSC2FeHNCSCNC6H6SH2FeCHS2NC2H4CSHSC2H2CH2C2HCH2CHC2H2FeCH2S3HC3S2CHC3H2SHCHCHCH3CHC3H2SFeHFeS2FeS2FeSFeS3FeS2H2C2FeSHSH3C2HSCHC2NC6H4C2NHC2H6CH2FeSH3C6H3SC3NH3SHC2H3C3HNC2H2CSCNCH2C2H3CHCNHC3HC5FeHCH3SC2HC3H2CFeCHSCHCHCSFeHSCH3CSCFeSCFeCSFeHSHCFeCS2FeSFeS2FeSFeS3C2HC4HCH2C3H2C6H5C2HC2H3CH4CHC4HC2H3CSH3CH2SC8SC2FeH3C2HC2NC2H3CHCNSHCHSCHSCHCHSCH3CH2CH3NC3H4CHN2H3C2SHFe2H2C2H2C4SC3HFeHCHCFeS2CHC4HS2FeHCNCFeCH2C3HSH2CH3SCSHCH2SFeCH3FeHC3H2FeSC5HC4H2SHC3NSC3NSH2NH3C3HC3SH2C3H3CSHCH2CHCH3CSH2CHFeHFeSC2HSCH2SHSHFeSHSHCS2C2SC4H3CSCH2CHCHC9H4CFeH2SC2HNHNCHNHCFeH3CH4SH2CHCFeCHSC3FeSH2SCSC2SC3HCH2SHFeS2FeS2FeSFeS3NSCSHFe2S2FeS2HSFeSFeCHFeC3H2C2H6SHC6H4CH2C4H3C2HC2HC2HCHSHC2SC6H2C3FeHC2SHFeHCHCHNCS2CH3NC6H10CH3NH2CHC2FeSCHCHCH5CH3S2HC3HNC4H2C3HCH3C3H2NHCNHSHCHSHSCHCH3CHFeHFeS2FeS2FeS2FeHFeCS2H3FeS2FeS2FeSFeS3HCHC2H2CH2C2H2C2NC6SH3FeHC6S2H2CHC4HCHSHCHSNHSHC6NH3CHC3HCH3C2H4CSHCHC2H2CNC3HN2C5H2C4H3CHC2H2CNHCHCHC3H2C2HCHCH3NCH2FeH3CH5C2HCHFeHSHCSH2C2SCH2SHCFeCS2H2C3H2CFeSHNSHFeSCSCFeS2CHFeSCSC6H4C8HNC4HCH3FeC3HC6H2NHCHCH4C2H2SFeC2HC2SCFeSCS2H3C3H2NC7H4SHC2FeHCH2SHFe2CNCFeCHSFeHCH6CH3C2HCH3FeHSH2CSHCSC3SH2SHC2S2C2HFeC2FeCSC5SFeSHFeS2Fe2S2CSC6H4CHCH2C4H5C2HCH3SCH2C3HC6H2CHC4H4FeHS2H3FeHC2HC2HCH2CS2HCHNHCSCH3SNHSCHCH3C2HC3HCNC2SC3H2FeNH5CHSH7NH2CSH2CHSCNH3FeC3HFeHFe2HC2HCSC2NCFeS2Fe2SCSH4C3S2HC7H2SH3SHNHCFeNH2C3HCH3C3HSH3SC2SCHS2CFeC6H5SC3SH2CHFeH2C3H2CSC2S2CSFeH2SHCHCHCHSCH3FeH4CHCNC2H3CHSCHCHC2FeN2HSHCHCH3NFeC2HSHFeS2FeSFeSFeS3HFeS2FeS2FeSFeHS2FeHSHC3SFeS2FeS2FeSFeHS2HC3HC3H2CHCH2CHC3H4FeC6H5CH2CHSHSFeC6H4C2H3C6H4C6H3NH4SCHCHCH2CHFeH2C4HC2H2NC3H2NC6H8NC6H2CH3SC3SC2HC2HSH2C2H2C2NC7HCNHCH4C2H2SC2HCHC2H4NHCSC2H2C2H2CHC4HC2H5C2H3CHC2HCSH3S2NCH4C2HNHCNH3CH4FeH4NH2CSCHC2SCH2CFeS3Fe2S3HCHFe2HC2NH2CHC3SHNH2CSFeS3HSC5H3CHC6H4CHC2SH2SHC3HSC3SFeH2C2SCH3CSC7H4SH3C2H2CNCFeCHFeCNCH2SC2FeH3CSCHC3FeC2HCSH2SHSFeHNC6H4FeC5SH4CSC2H2FeCHSHC3H4C2HC2FeCHC2HCHSHFeH3C2SC2HFeCNC2HCSH3S3NHFe2CHCSH2C3FeHC4SH2CH2SHCH4SFeH2NHCSH2C2HCFeCH3C2HCHCH2S4C4HCH3CH2CHS2C2HSCSHFeHFeC3HNSCS2CHCFeCSHC3FeH3SH2C2FeH2C2H2CH3CHFeHCH2FeSC4HC3H2CHCH2NCH2CNCFeHCSHCHC2Fe2S2FeCFeS2NH2C2SHCHC2HCFeS2FeS2FeSFeS3C2SHFeCFeSH3C2HFeHC2HNFeC6H4CHC10H3CFeSH3C5SH2CNCH2SC2NCH3CHCHC2H10CS2H3N2HC2HCSHCSHC3HNC6H3CH4CNC6H8CSHC2S2HC2HCSH4CHCHC2SC3H3FeHCHSCH2CH2CH4C2FeH4CNHC2SC3H3CHCH2C2HCH2CSHCSH5CHCSCHCHSC4HSC2H2C2H2CS
_chemical_formula_sum              "S576 Fe288 C1728 H1728 N144"
_cell_length_a       61.8035
_cell_length_b       60.0877
_cell_length_c       83.1627
_cell_angle_alpha    77.8299
_cell_angle_beta     77.7796
_cell_angle_gamma    102.898

_space_group_name_H-M_alt    "P 1"
_space_group_IT_number       1

loop_
  _space_group_symop_operation_xyz
  'x, y, z'

loop_
  _atom_site_type_symbol
  _atom_site_label
  _atom_site_symmetry_multiplicity
  _atom_site_fract_x
  _atom_site_fract_y
  _atom_site_fract_z
  _atom_site_occupancy
  S   S1        1.0  0.05077  0.37660  0.16045  1.0000
  Fe  Fe1       1.0  0.10590  0.27762  0.16682  1.0000
  S   S2        1.0  0.07254  0.25972  0.16268  1.0000
  S   S3        1.0  0.11272  0.30940  0.17697  1.0000
  Fe  Fe2       1.0  0.13016  0.24273  0.15599  1.0000
  S   S4        1.0  0.09870  0.22093  0.15100  1.0000
  S   S5        1.0  0.16651  0.23944  0.14912  1.0000
  Fe  Fe3       1.0  0.09416  0.25594  0.13870  1.0000
  S   S6        1.0  0.08395  0.26577  0.11426  1.0000
  Fe  Fe4       1.0  0.07915  0.22622  0.17541  1.0000
  S   S7        1.0  0.04697  0.20006  0.19383  1.0000
  S   S8        1.0  0.12705  0.27737  0.14160  1.0000
  S   S9        1.0  0.11105  0.24445  0.18163  1.0000
  C   C1        1.0  0.01316  0.30147  0.21088  1.0000
  H   H1        1.0  0.02427  0.25173  0.19040  1.0000
  H   H2        1.0  0.00984  0.31545  0.21656  1.0000
  Fe  Fe5       1.0  0.26656  0.27062  0.18792  1.0000
  S   S10       1.0  0.28784  0.25147  0.17373  1.0000
  S   S11       1.0  0.22825  0.25529  0.19987  1.0000
  C   C2        1.0  0.32002  0.27514  0.10005  1.0000
  Fe  Fe6       1.0  0.31398  0.26360  0.18749  1.0000
  S   S12       1.0  0.29122  0.27959  0.20352  1.0000
  Fe  Fe7       1.0  0.30766  0.31290  0.18218  1.0000
  C   C3        1.0  0.01729  0.22892  0.23764  1.0000
  H   H3        1.0  0.04967  0.31848  0.20032  1.0000
  H   H4        1.0  0.31860  0.18792  0.23056  1.0000
  H   H5        1.0  0.03121  0.29380  0.10206  1.0000
  C   C4        1.0  0.26412  0.26901  0.10539  1.0000
  S   S13       1.0  0.28089  0.30561  0.16803  1.0000
  C   C5        1.0  0.30859  0.24829  0.12845  1.0000
  S   S14       1.0  0.32084  0.08040  0.05033  1.0000
  N   N1        1.0  0.06431  0.24792  0.04427  1.0000
  C   C6        1.0  0.18326  0.24432  0.16340  1.0000
  C   C7        1.0  0.17327  0.23799  0.18104  1.0000
  C   C8        1.0  0.18726  0.24104  0.19216  1.0000
  C   C9        1.0  0.21121  0.25084  0.18570  1.0000
  C   C10       1.0  0.22114  0.25771  0.16803  1.0000
  C   C11       1.0  0.20719  0.25427  0.15693  1.0000
  H   H6        1.0  0.15486  0.23010  0.18614  1.0000
  H   H7        1.0  0.17950  0.23575  0.20582  1.0000
  H   H8        1.0  0.23953  0.26571  0.16298  1.0000
  H   H9        1.0  0.21480  0.25948  0.14327  1.0000
  C   C12       1.0  0.06640  0.24287  0.10882  1.0000
  C   C13       1.0  0.05592  0.24881  0.09580  1.0000
  C   C14       1.0  0.04084  0.23108  0.09171  1.0000
  H   H10       1.0  0.04941  0.43210  0.15728  1.0000
  C   C15       1.0  0.04741  0.20124  0.11312  1.0000
  C   C16       1.0  0.06215  0.21904  0.11749  1.0000
  H   H11       1.0  0.05921  0.26722  0.08903  1.0000
  H   H12       1.0  0.03312  0.23590  0.08157  1.0000
  C   C17       1.0  0.02264  0.45325  0.12935  1.0000
  H   H13       1.0  0.07018  0.21429  0.12755  1.0000
  C   C18       1.0  0.03573  0.21087  0.21090  1.0000
  S   S15       1.0  0.00891  0.32412  0.14751  1.0000
  C   C19       1.0  0.03492  0.49328  0.14065  1.0000
  H   H14       1.0  0.04199  0.26974  0.04144  1.0000
  H   H15       1.0  0.06351  0.43683  0.13493  1.0000
  C   C20       1.0  0.04919  0.23053  0.21416  1.0000
  C   C21       1.0  0.32032  0.25602  0.09296  1.0000
  H   H16       1.0  0.32424  0.29291  0.09177  1.0000
  C   C22       1.0  0.26114  0.23140  0.09881  1.0000
  H   H17       1.0  0.06672  0.23888  0.20639  1.0000
  C   C23       1.0  0.06870  0.35840  0.16408  1.0000
  C   C24       1.0  0.08317  0.36290  0.17457  1.0000
  C   C25       1.0  0.09699  0.34800  0.17823  1.0000
  C   C26       1.0  0.09663  0.32880  0.17118  1.0000
  C   C27       1.0  0.08276  0.32478  0.16019  1.0000
  C   C28       1.0  0.06854  0.33940  0.15682  1.0000
  H   H18       1.0  0.08341  0.37768  0.18011  1.0000
  H   H19       1.0  0.10781  0.35123  0.18664  1.0000
  H   H20       1.0  0.08294  0.31043  0.15430  1.0000
  H   H21       1.0  0.05781  0.33624  0.14838  1.0000
  C   C29       1.0  0.25810  0.25720  0.12278  1.0000
  C   C30       1.0  0.02289  0.23637  0.00469  1.0000
  C   C31       1.0  0.30853  0.22909  0.12136  1.0000
  H   H22       1.0  0.31795  0.11966  0.06446  1.0000
  H   H23       1.0  0.03482  0.41720  0.14468  1.0000
  S   S16       1.0  0.00911  0.47591  0.18590  1.0000
  C   C32       1.0  0.04681  0.43424  0.14427  1.0000
  H   H24       1.0  0.29819  0.18160  0.00249  1.0000
  C   C33       1.0  0.31003  0.19749  0.00392  1.0000
  C   C34       1.0  0.32096  0.26153  0.99871  1.0000
  H   H25       1.0  0.01914  0.29754  0.12260  1.0000
  S   S17       1.0  0.31298  0.29542  0.12625  1.0000
  H   H26       1.0  0.25466  0.23258  0.15364  1.0000
  H   H27       1.0  0.32460  0.25904  0.07923  1.0000
  H   H28       1.0  0.00589  0.20007  0.01906  1.0000
  C   C35       1.0  0.03653  0.20724  0.10033  1.0000
  H   H29       1.0  0.05498  0.47463  0.15344  1.0000
  H   H30       1.0  0.07224  0.28563  0.03395  1.0000
  H   H31       1.0  0.26305  0.22117  0.08956  1.0000
  H   H32       1.0  0.30009  0.00981  0.20041  1.0000
  C   C36       1.0  0.05228  0.22591  0.04416  1.0000
  H   H33       1.0  0.22796  0.21560  0.15138  1.0000
  C   C37       1.0  0.05569  0.20549  0.05371  1.0000
  H   H34       1.0  0.08898  0.26763  0.05429  1.0000
  C   C38       1.0  0.07160  0.20769  0.06333  1.0000
  H   H35       1.0  0.25768  0.26757  0.13200  1.0000
  H   H36       1.0  0.03963  0.22407  0.03691  1.0000
  C   C39       1.0  0.01712  0.21182  0.00711  1.0000
  H   H37       1.0  0.04546  0.18804  0.05415  1.0000
  C   C40       1.0  0.04369  0.47399  0.14507  1.0000
  H   H38       1.0  0.07361  0.19195  0.07140  1.0000
  H   H39       1.0  0.25175  0.20105  0.12043  1.0000
  Fe  Fe8       1.0  0.99797  0.34375  0.12596  1.0000
  C   C41       1.0  0.05935  0.26890  0.03491  1.0000
  S   S18       1.0  0.00485  0.33473  0.10071  1.0000
  H   H40       1.0  0.99791  0.26149  0.10522  1.0000
  H   H41       1.0  0.03705  0.25792  0.14151  1.0000
  C   C42       1.0  0.03547  0.30318  0.20177  1.0000
  C   C43       1.0  0.01297  0.20021  0.22106  1.0000
  N   N2        1.0  0.18101  0.30255  0.17154  1.0000
  C   C44       1.0  0.16421  0.29230  0.18665  1.0000
  C   C45       1.0  0.20378  0.30839  0.17138  1.0000
  C   C46       1.0  0.17001  0.28806  0.20217  1.0000
  C   C47       1.0  0.21019  0.30459  0.18667  1.0000
  C   C48       1.0  0.19317  0.29423  0.20213  1.0000
  C   C49       1.0  0.17458  0.30588  0.15541  1.0000
  H   H42       1.0  0.14620  0.28707  0.18674  1.0000
  H   H43       1.0  0.21717  0.31561  0.15939  1.0000
  H   H44       1.0  0.15665  0.27954  0.21407  1.0000
  H   H45       1.0  0.22827  0.30858  0.18652  1.0000
  C   C50       1.0  0.31405  0.02331  0.20241  1.0000
  H   H46       1.0  0.15812  0.31085  0.15682  1.0000
  H   H47       1.0  0.18784  0.32029  0.14507  1.0000
  H   H48       1.0  0.17239  0.28914  0.15145  1.0000
  N   N3        1.0  0.99921  0.26396  0.20532  1.0000
  S   S19       1.0  0.01274  0.37981  0.12927  1.0000
  C   C51       1.0  0.26571  0.25600  0.09335  1.0000
  H   H49       1.0  0.26829  0.28821  0.10131  1.0000
  C   C52       1.0  0.01347  0.47221  0.12474  1.0000
  N   N4        1.0  0.01851  0.26216  0.12271  1.0000
  C   C53       1.0  0.25494  0.22014  0.11632  1.0000
  C   C54       1.0  0.07997  0.25026  0.05369  1.0000
  Fe  Fe9       1.0  0.02029  0.35970  0.15232  1.0000
  H   H50       1.0  0.30326  0.24439  0.02525  1.0000
  H   H51       1.0  0.31170  0.25340  0.22542  1.0000
  H   H52       1.0  0.05936  0.26795  0.02169  1.0000
  S   S20       1.0  0.01116  0.24876  0.02062  1.0000
  H   H53       1.0  0.27105  0.26500  0.07980  1.0000
  H   H54       1.0  0.00323  0.31279  0.07336  1.0000
  H   H55       1.0  0.00252  0.18495  0.21860  1.0000
  H   H56       1.0  0.01892  0.21464  0.15277  1.0000
  C   C55       1.0  0.08399  0.23020  0.06325  1.0000
  C   C56       1.0  0.01965  0.49233  0.13048  1.0000
  H   H57       1.0  0.05684  0.28596  0.18781  1.0000
  C   C57       1.0  0.02400  0.24936  0.13616  1.0000
  H   H58       1.0  0.30429  0.21130  0.12959  1.0000
  H   H59       1.0  0.01731  0.43745  0.12516  1.0000
  S   S21       1.0  0.31018  0.01817  0.03931  1.0000
  C   C58       1.0  0.02098  0.26567  0.19617  1.0000
  N   N5        1.0  0.03732  0.45422  0.13957  1.0000
  N   N6        1.0  0.25375  0.23308  0.12803  1.0000
  S   S22       1.0  0.01827  0.18470  0.09494  1.0000
  H   H60       1.0  0.19806  0.29023  0.21398  1.0000
  H   H61       1.0  0.09572  0.23205  0.07124  1.0000
  H   H62       1.0  0.30442  0.24523  0.14209  1.0000
  C   C59       1.0  0.02961  0.28772  0.11596  1.0000
  S   S23       1.0  0.32012  0.34718  0.18845  1.0000
  C   C60       1.0  0.03947  0.28507  0.19453  1.0000
  C   C61       1.0  0.00366  0.20935  0.23435  1.0000
  H   H63       1.0  0.30088  0.20328  0.01461  1.0000
  C   C62       1.0  0.31978  0.25364  0.01608  1.0000
  Fe  Fe10      1.0  0.30408  0.28723  0.15486  1.0000
  C   C63       1.0  0.24706  0.22091  0.14633  1.0000
  H   H64       1.0  0.25337  0.20492  0.14871  1.0000
  H   H65       1.0  0.04426  0.18280  0.11980  1.0000
  C   C64       1.0  0.00224  0.25136  0.11583  1.0000
  C   C65       1.0  0.31408  0.27128  0.11780  1.0000
  H   H66       1.0  0.00120  0.47100  0.11714  1.0000
  H   H67       1.0  0.05066  0.25454  0.23006  1.0000
  C   C66       1.0  0.31445  0.23300  0.10361  1.0000
  C   C67       1.0  0.04006  0.23938  0.22758  1.0000
  C   C68       1.0  0.01377  0.22488  0.14259  1.0000
  H   H68       1.0  0.04734  0.29247  0.11755  1.0000
  S   S24       1.0  0.31505  0.20925  0.09470  1.0000
  C   C69       1.0  0.99751  0.21365  0.13535  1.0000
  H   H69       1.0  0.01275  0.43023  0.18366  1.0000
  C   C70       1.0  0.00011  0.43426  0.17713  1.0000
  H   H70       1.0  0.31627  0.15529  0.01699  1.0000
  H   H71       1.0  0.30619  0.02859  0.21384  1.0000
  H   H72       1.0  0.32035  0.03899  0.19110  1.0000
  C   C71       1.0  0.32863  0.25367  0.22701  1.0000
  S   S25       1.0  0.01011  0.41682  0.37431  1.0000
  C   C72       1.0  0.02584  0.22352  0.47153  1.0000
  C   C73       1.0  0.01553  0.45525  0.38721  1.0000
  S   S26       1.0  0.00655  0.24099  0.25408  1.0000
  H   H73       1.0  0.00243  0.23512  0.33311  1.0000
  H   H74       1.0  0.08985  0.40815  0.42288  1.0000
  S   S27       1.0  0.13094  0.35197  0.48407  1.0000
  H   H75       1.0  0.00499  0.30163  0.46347  1.0000
  C   C74       1.0  0.26707  0.38863  0.44207  1.0000
  H   H76       1.0  0.01967  0.21265  0.46369  1.0000
  C   C75       1.0  0.22668  0.33945  0.47306  1.0000
  H   H77       1.0  0.23071  0.32737  0.46565  1.0000
  C   C76       1.0  0.03187  0.29121  0.30938  1.0000
  H   H78       1.0  0.01277  0.39966  0.40911  1.0000
  S   S28       1.0  0.08741  0.36553  0.45605  1.0000
  H   H79       1.0  0.32127  0.26122  0.25148  1.0000
  Fe  Fe11      1.0  0.01581  0.33315  0.39446  1.0000
  H   H80       1.0  0.26875  0.39805  0.42866  1.0000
  S   S29       1.0  0.04305  0.32012  0.40447  1.0000
  Fe  Fe12      1.0  0.10223  0.28903  0.48073  1.0000
  H   H81       1.0  0.02048  0.48600  0.39703  1.0000
  C   C77       1.0  0.01111  0.24986  0.32182  1.0000
  C   C78       1.0  0.03465  0.27394  0.43960  1.0000
  H   H82       1.0  0.06068  0.22132  0.46390  1.0000
  S   S30       1.0  0.18636  0.33200  0.46399  1.0000
  S   S31       1.0  0.02679  0.35887  0.36846  1.0000
  S   S32       1.0  0.02440  0.46922  0.43133  1.0000
  C   C79       1.0  0.07590  0.44730  0.42041  1.0000
  C   C80       1.0  0.01967  0.45467  0.41564  1.0000
  C   C81       1.0  0.01864  0.46713  0.39975  1.0000
  H   H83       1.0  0.03929  0.30861  0.31084  1.0000
  H   H84       1.0  0.04160  0.31121  0.47163  1.0000
  C   C82       1.0  0.01414  0.41836  0.40649  1.0000
  C   C83       1.0  0.01739  0.43026  0.41900  1.0000
  C   C84       1.0  0.01888  0.24710  0.49134  1.0000
  C   C85       1.0  0.01332  0.43088  0.39052  1.0000
  C   C86       1.0  0.04229  0.25238  0.49120  1.0000
  H   H85       1.0  0.01818  0.42053  0.43130  1.0000
  C   C87       1.0  0.07594  0.35470  0.44067  1.0000
  C   C88       1.0  0.08742  0.34246  0.43086  1.0000
  C   C89       1.0  0.07749  0.33263  0.41935  1.0000
  C   C90       1.0  0.05606  0.33507  0.41752  1.0000
  C   C91       1.0  0.04500  0.34823  0.42677  1.0000
  C   C92       1.0  0.05496  0.35808  0.43831  1.0000
  H   H86       1.0  0.10389  0.34032  0.43224  1.0000
  H   H87       1.0  0.08621  0.32263  0.41213  1.0000
  H   H88       1.0  0.02847  0.35019  0.42546  1.0000
  H   H89       1.0  0.04610  0.36772  0.44578  1.0000
  H   H90       1.0  0.07538  0.39260  0.37756  1.0000
  N   N7        1.0  0.01670  0.28171  0.44676  1.0000
  C   C93       1.0  0.02144  0.27197  0.32380  1.0000
  H   H91       1.0  0.01101  0.21117  0.30775  1.0000
  H   H92       1.0  0.30884  0.26073  0.46414  1.0000
  H   H93       1.0  0.06951  0.27246  0.43867  1.0000
  C   C94       1.0  0.20560  0.34492  0.47450  1.0000
  C   C95       1.0  0.01086  0.23325  0.48107  1.0000
  N   N8        1.0  0.28701  0.39935  0.44757  1.0000
  C   C96       1.0  0.01904  0.29507  0.45807  1.0000
  H   H94       1.0  0.02068  0.27440  0.33646  1.0000
  S   S33       1.0  0.30623  0.35635  0.47591  1.0000
  H   H95       1.0  0.25053  0.38928  0.45020  1.0000
  H   H96       1.0  0.30036  0.42561  0.47778  1.0000
  S   S34       1.0  0.32698  0.00698  0.48452  1.0000
  H   H97       1.0  0.99683  0.29095  0.42996  1.0000
  H   H98       1.0  0.02186  0.26342  0.27902  1.0000
  H   H99       1.0  0.99886  0.49961  0.30006  1.0000
  C   C97       1.0  0.02168  0.26569  0.29166  1.0000
  H   H100      1.0  0.06089  0.43801  0.43173  1.0000
  C   C98       1.0  0.32499  0.41860  0.45826  1.0000
  C   C99       1.0  0.05538  0.27890  0.44412  1.0000
  S   S35       1.0  0.08737  0.25257  0.47830  1.0000
  C   C100      1.0  0.08429  0.41316  0.41141  1.0000
  C   C101      1.0  0.32331  0.19752  0.25340  1.0000
  C   C102      1.0  0.30857  0.39919  0.43922  1.0000
  C   C103      1.0  0.00072  0.22347  0.30429  1.0000
  N   N9        1.0  0.07696  0.43310  0.40807  1.0000
  C   C104      1.0  0.07622  0.40422  0.38594  1.0000
  H   H101      1.0  0.06206  0.42890  0.37166  1.0000
  Fe  Fe13      1.0  0.00238  0.37700  0.38051  1.0000
  H   H102      1.0  0.30630  0.20008  0.25705  1.0000
  H   H103      1.0  0.26702  0.40916  0.46780  1.0000
  C   C105      1.0  0.24231  0.34892  0.48155  1.0000
  H   H104      1.0  0.03305  0.26400  0.43026  1.0000
  S   S36       1.0  0.12375  0.31858  0.45765  1.0000
  C   C106      1.0  0.08437  0.39867  0.40026  1.0000
  C   C107      1.0  0.20044  0.36044  0.48417  1.0000
  Fe  Fe14      1.0  0.14805  0.32679  0.47366  1.0000
  H   H105      1.0  0.01497  0.46506  0.37486  1.0000
  C   C108      1.0  0.30297  0.41872  0.46667  1.0000
  C   C109      1.0  0.05779  0.29220  0.45579  1.0000
  C   C110      1.0  0.06954  0.43906  0.39378  1.0000
  C   C111      1.0  0.28409  0.40918  0.46102  1.0000
  H   H106      1.0  0.99969  0.22406  0.29102  1.0000
  H   H107      1.0  0.09022  0.38290  0.40293  1.0000
  N   N10       1.0  0.01130  0.24698  0.30591  1.0000
  C   C112      1.0  0.04902  0.22837  0.47168  1.0000
  H   H108      1.0  0.07374  0.46498  0.41491  1.0000
  C   C113      1.0  0.06884  0.42461  0.38260  1.0000
  H   H109      1.0  0.03993  0.30298  0.28189  1.0000
  H   H110      1.0  0.09192  0.45026  0.42468  1.0000
  S   S37       1.0  0.29465  0.28905  0.48570  1.0000
  H   H111      1.0  0.06338  0.45465  0.39122  1.0000
  Fe  Fe15      1.0  0.10470  0.34109  0.46991  1.0000
  C   C114      1.0  0.31627  0.27452  0.48486  1.0000
  H   H112      1.0  0.31086  0.39111  0.42871  1.0000
  C   C115      1.0  0.05748  0.24348  0.48101  1.0000
  H   H113      1.0  0.18435  0.36506  0.48512  1.0000
  H   H114      1.0  0.26579  0.36961  0.44302  1.0000
  C   C116      1.0  0.03203  0.28810  0.29318  1.0000
  C   C117      1.0  0.31989  0.26201  0.47261  1.0000
  H   H115      1.0  0.07379  0.29608  0.45938  1.0000
  C   C118      1.0  0.03961  0.30050  0.46277  1.0000
  C   C119      1.0  0.32788  0.40888  0.44438  1.0000
  H   H116      1.0  0.25812  0.34391  0.48074  1.0000
  C   C120      1.0  0.23725  0.36444  0.49120  1.0000
  S   S38       1.0  0.08145  0.31083  0.49199  1.0000
  S   S39       1.0  0.32732  0.02811  0.28593  1.0000
  C   C121      1.0  0.21633  0.37032  0.49241  1.0000
  S   S40       1.0  0.99729  0.32895  0.33791  1.0000
  Fe  Fe16      1.0  0.30566  0.32228  0.49340  1.0000
  H   H117      1.0  0.32762  0.05360  0.33506  1.0000
  S   S41       1.0  0.30642  0.00509  0.24883  1.0000
  S   S42       1.0  0.12819  0.29497  0.49551  1.0000
  C   C122      1.0  0.25985  0.29458  0.74001  1.0000
  H   H118      1.0  0.10813  0.45482  0.55742  1.0000
  H   H119      1.0  0.15995  0.32769  0.50891  1.0000
  Fe  Fe17      1.0  0.28286  0.37227  0.74418  1.0000
  H   H120      1.0  0.02716  0.29456  0.67810  1.0000
  N   N11       1.0  0.03316  0.30653  0.53420  1.0000
  Fe  Fe18      1.0  0.31736  0.34364  0.74142  1.0000
  S   S43       1.0  0.10141  0.31412  0.53333  1.0000
  H   H121      1.0  0.06132  0.42746  0.70706  1.0000
  H   H122      1.0  0.25258  0.35382  0.72229  1.0000
  Fe  Fe19      1.0  0.12083  0.36951  0.72641  1.0000
  S   S44       1.0  0.09764  0.40512  0.55880  1.0000
  Fe  Fe20      1.0  0.03375  0.37551  0.61423  1.0000
  Fe  Fe21      1.0  0.12021  0.35803  0.69254  1.0000
  S   S45       1.0  0.11742  0.31971  0.70337  1.0000
  S   S46       1.0  0.12308  0.37376  0.66479  1.0000
  H   H123      1.0  0.22525  0.33494  0.70798  1.0000
  C   C123      1.0  0.01761  0.33886  0.52528  1.0000
  Fe  Fe22      1.0  0.14376  0.33341  0.71660  1.0000
  S   S47       1.0  0.17597  0.32161  0.71602  1.0000
  Fe  Fe23      1.0  0.09166  0.32211  0.72600  1.0000
  N   N12       1.0  0.08650  0.47701  0.56273  1.0000
  S   S48       1.0  0.14881  0.37160  0.70371  1.0000
  S   S49       1.0  0.09263  0.35959  0.71410  1.0000
  C   C124      1.0  0.24833  0.41299  0.71312  1.0000
  C   C125      1.0  0.20693  0.28961  0.50470  1.0000
  H   H124      1.0  0.14705  0.30223  0.52725  1.0000
  C   C126      1.0  0.18495  0.40419  0.73000  1.0000
  S   S50       1.0  0.29817  0.35745  0.72337  1.0000
  H   H125      1.0  0.10683  0.32382  0.64056  1.0000
  H   H126      1.0  0.05241  0.28126  0.53384  1.0000
  N   N13       1.0  0.09829  0.42659  0.67092  1.0000
  C   C127      1.0  0.07685  0.42622  0.69876  1.0000
  S   S51       1.0  0.25694  0.37679  0.50167  1.0000
  H   H127      1.0  0.00630  0.34611  0.51869  1.0000
  H   H128      1.0  0.08409  0.41822  0.65103  1.0000
  C   C128      1.0  0.04118  0.47480  0.60423  1.0000
  C   C129      1.0  0.11513  0.42128  0.69451  1.0000
  C   C130      1.0  0.22427  0.29789  0.51211  1.0000
  S   S52       1.0  0.28569  0.32802  0.51713  1.0000
  H   H129      1.0  0.13194  0.42197  0.66896  1.0000
  C   C131      1.0  0.19509  0.33678  0.72559  1.0000
  C   C132      1.0  0.21885  0.34049  0.71920  1.0000
  H   H130      1.0  0.24457  0.28228  0.72132  1.0000
  C   C133      1.0  0.05906  0.29703  0.69545  1.0000
  H   H131      1.0  0.06212  0.49699  0.56594  1.0000
  H   H132      1.0  0.01349  0.47193  0.64745  1.0000
  H   H133      1.0  0.12941  0.41843  0.69956  1.0000
  H   H134      1.0  0.16170  0.33012  0.52972  1.0000
  H   H135      1.0  0.11462  0.48659  0.57327  1.0000
  H   H136      1.0  0.32746  0.38420  0.54168  1.0000
  H   H137      1.0  0.05432  0.31081  0.55108  1.0000
  N   N14       1.0  0.06301  0.30211  0.67687  1.0000
  H   H138      1.0  0.02911  0.27635  0.52409  1.0000
  C   C134      1.0  0.05671  0.36408  0.64787  1.0000
  C   C135      1.0  0.07820  0.37341  0.63577  1.0000
  C   C136      1.0  0.09849  0.37661  0.64112  1.0000
  C   C137      1.0  0.09737  0.37059  0.65856  1.0000
  C   C138      1.0  0.07588  0.36196  0.67067  1.0000
  C   C139      1.0  0.05559  0.35862  0.66533  1.0000
  H   H139      1.0  0.07923  0.37735  0.62228  1.0000
  H   H140      1.0  0.11509  0.38332  0.63168  1.0000
  H   H141      1.0  0.07487  0.35754  0.68413  1.0000
  C   C140      1.0  0.09996  0.42944  0.65271  1.0000
  Fe  Fe24      1.0  0.28845  0.36332  0.49999  1.0000
  Fe  Fe25      1.0  0.01235  0.37507  0.58437  1.0000
  C   C141      1.0  0.08930  0.31653  0.64871  1.0000
  C   C142      1.0  0.06805  0.46532  0.53686  1.0000
  C   C143      1.0  0.07071  0.31428  0.64155  1.0000
  C   C144      1.0  0.08585  0.45650  0.54088  1.0000
  H   H142      1.0  0.09224  0.44452  0.53425  1.0000
  C   C145      1.0  0.09480  0.46240  0.55402  1.0000
  C   C146      1.0  0.22108  0.31294  0.52255  1.0000
  H   H143      1.0  0.02705  0.36887  0.53530  1.0000
  C   C147      1.0  0.10191  0.33983  0.54018  1.0000
  C   C148      1.0  0.10860  0.36217  0.52845  1.0000
  C   C149      1.0  0.10797  0.38237  0.53425  1.0000
  C   C150      1.0  0.10007  0.38013  0.55173  1.0000
  C   C151      1.0  0.09341  0.35779  0.56346  1.0000
  C   C152      1.0  0.09460  0.33770  0.55770  1.0000
  H   H144      1.0  0.11408  0.36393  0.51493  1.0000
  H   H145      1.0  0.11307  0.39964  0.52515  1.0000
  H   H146      1.0  0.08757  0.35605  0.57699  1.0000
  H   H147      1.0  0.08945  0.32043  0.56681  1.0000
  S   S53       1.0  0.12244  0.40006  0.73802  1.0000
  C   C153      1.0  0.04824  0.30600  0.65221  1.0000
  C   C154      1.0  0.18659  0.29654  0.50785  1.0000
  C   C155      1.0  0.02924  0.35164  0.53460  1.0000
  H   H148      1.0  0.07185  0.28850  0.69973  1.0000
  H   H149      1.0  0.08852  0.46607  0.58813  1.0000
  S   S54       1.0  0.05987  0.41077  0.60118  1.0000
  Fe  Fe26      1.0  0.03040  0.42183  0.59357  1.0000
  C   C156      1.0  0.04277  0.34162  0.54375  1.0000
  S   S55       1.0  0.00366  0.38747  0.60813  1.0000
  N   N15       1.0  0.18359  0.31122  0.51816  1.0000
  C   C157      1.0  0.20055  0.31951  0.52543  1.0000
  C   C158      1.0  0.03445  0.28232  0.53478  1.0000
  Fe  Fe27      1.0  0.32036  0.34585  0.51963  1.0000
  C   C159      1.0  0.16210  0.31817  0.52119  1.0000
  H   H150      1.0  0.19855  0.33170  0.53320  1.0000
  C   C160      1.0  0.06917  0.48591  0.55877  1.0000
  H   H151      1.0  0.03898  0.35144  0.67472  1.0000
  H   H152      1.0  0.03370  0.30527  0.64674  1.0000
  H   H153      1.0  0.17348  0.29058  0.50163  1.0000
  H   H154      1.0  0.32459  0.02089  0.72364  1.0000
  H   H155      1.0  0.06449  0.43111  0.67633  1.0000
  H   H156      1.0  0.09400  0.42105  0.71877  1.0000
  H   H157      1.0  0.06969  0.46872  0.63502  1.0000
  C   C161      1.0  0.07873  0.42821  0.68140  1.0000
  H   H158      1.0  0.24039  0.29314  0.50941  1.0000
  H   H159      1.0  0.04171  0.28471  0.70242  1.0000
  C   C162      1.0  0.08511  0.31043  0.66650  1.0000
  H   H160      1.0  0.04874  0.44504  0.61911  1.0000
  Fe  Fe28      1.0  0.06369  0.39660  0.57824  1.0000
  H   H161      1.0  0.23468  0.32009  0.52798  1.0000
  H   H162      1.0  0.06052  0.46030  0.52704  1.0000
  C   C163      1.0  0.06247  0.47729  0.62551  1.0000
  C   C164      1.0  0.05075  0.46389  0.61642  1.0000
  S   S56       1.0  0.03118  0.35729  0.64153  1.0000
  H   H163      1.0  0.20684  0.40043  0.70758  1.0000
  C   C165      1.0  0.01968  0.31613  0.52528  1.0000
  H   H164      1.0  0.05147  0.35120  0.55134  1.0000
  H   H165      1.0  0.09966  0.31312  0.67195  1.0000
  S   S57       1.0  0.32153  0.38204  0.50470  1.0000
  Fe  Fe29      1.0  0.10932  0.31941  0.50496  1.0000
  C   C166      1.0  0.06441  0.50160  0.62266  1.0000
  S   S58       1.0  0.04017  0.36005  0.59177  1.0000
  C   C167      1.0  0.11642  0.42331  0.67723  1.0000
  C   C168      1.0  0.04436  0.31882  0.54353  1.0000
  C   C169      1.0  0.04468  0.30011  0.66995  1.0000
  S   S59       1.0  0.02569  0.45832  0.59306  1.0000
  S   S60       1.0  0.03656  0.41074  0.56929  1.0000
  H   H166      1.0  0.24643  0.39983  0.70555  1.0000
  C   C170      1.0  0.23436  0.35105  0.72737  1.0000
  H   H167      1.0  0.07364  0.31980  0.62778  1.0000
  H   H168      1.0  0.00730  0.25441  0.49891  1.0000
  H   H169      1.0  0.26063  0.40897  0.72058  1.0000
  C   C171      1.0  0.09548  0.48197  0.57695  1.0000
  C   C172      1.0  0.09520  0.42272  0.70532  1.0000
  H   H170      1.0  0.11470  0.42378  0.64630  1.0000
  H   H171      1.0  0.10230  0.44831  0.64620  1.0000
  Fe  Fe30      1.0  0.32736  0.39074  0.71574  1.0000
  H   H172      1.0  0.02274  0.26992  0.54696  1.0000
  H   H173      1.0  0.16927  0.39896  0.72619  1.0000
  H   H174      1.0  0.09046  0.49705  0.58097  1.0000
  C   C173      1.0  0.20627  0.40515  0.71953  1.0000
  C   C174      1.0  0.05959  0.48011  0.54587  1.0000
  S   S61       1.0  0.31065  0.40679  0.73531  1.0000
  H   H175      1.0  0.04870  0.26365  0.49868  1.0000
  H   H176      1.0  0.00976  0.30587  0.51867  1.0000
  C   C175      1.0  0.04335  0.49917  0.60121  1.0000
  H   H177      1.0  0.06051  0.31374  0.69938  1.0000
  C   C176      1.0  0.18390  0.40981  0.74553  1.0000
  S   S62       1.0  0.05527  0.29872  0.73701  1.0000
  C   C177      1.0  0.24170  0.28819  0.73285  1.0000
  H   H178      1.0  0.32732  0.28516  0.50567  1.0000
  H   H179      1.0  0.21234  0.38241  0.49980  1.0000
  H   H180      1.0  0.20945  0.27843  0.49619  1.0000
  H   H181      1.0  0.04535  0.48660  0.54320  1.0000
  C   C178      1.0  0.22617  0.35773  0.74209  1.0000
  H   H182      1.0  0.20566  0.28514  0.73492  1.0000
  H   H183      1.0  0.25591  0.43110  0.70429  1.0000
  C   C179      1.0  0.18690  0.34408  0.74004  1.0000
  N   N16       1.0  0.22603  0.41142  0.72447  1.0000
  H   H184      1.0  0.24082  0.42181  0.74366  1.0000
  H   H185      1.0  0.00232  0.31843  0.58139  1.0000
  S   S63       1.0  0.11757  0.33213  0.74036  1.0000
  C   C180      1.0  0.21985  0.28961  0.74055  1.0000
  C   C181      1.0  0.22520  0.41714  0.73963  1.0000
  C   C182      1.0  0.00560  0.48469  0.64154  1.0000
  H   H186      1.0  0.27695  0.29350  0.73421  1.0000
  H   H187      1.0  0.16856  0.34121  0.74508  1.0000
  C   C183      1.0  0.06719  0.26176  0.75574  1.0000
  C   C184      1.0  0.05114  0.34159  0.79647  1.0000
  C   C185      1.0  0.02218  0.44825  0.88848  1.0000
  S   S64       1.0  0.31472  0.01260  0.80570  1.0000
  C   C186      1.0  0.29001  0.19431  0.91395  1.0000
  C   C187      1.0  0.16391  0.27497  0.95539  1.0000
  H   H188      1.0  0.01041  0.27048  0.89271  1.0000
  H   H189      1.0  0.17510  0.24918  0.97146  1.0000
  H   H190      1.0  0.27701  0.15729  0.88936  1.0000
  H   H191      1.0  0.15265  0.29594  0.92578  1.0000
  C   C188      1.0  0.08842  0.30680  0.86944  1.0000
  C   C189      1.0  0.19009  0.31353  0.94369  1.0000
  C   C190      1.0  0.04026  0.28522  0.85089  1.0000
  H   H192      1.0  0.00230  0.31056  0.83141  1.0000
  S   S65       1.0  0.04520  0.20545  0.96047  1.0000
  C   C191      1.0  0.02132  0.23867  0.77438  1.0000
  C   C192      1.0  0.20241  0.35435  0.74836  1.0000
  H   H193      1.0  0.26845  0.15858  0.91961  1.0000
  H   H194      1.0  0.32193  0.22825  0.87413  1.0000
  S   S66       1.0  0.03153  0.20142  0.79346  1.0000
  H   H195      1.0  0.08188  0.19596  0.84183  1.0000
  H   H196      1.0  0.01334  0.15344  0.89045  1.0000
  H   H197      1.0  0.00452  0.26793  0.86442  1.0000
  H   H198      1.0  0.19594  0.35958  0.75971  1.0000
  Fe  Fe31      1.0  0.04539  0.41042  0.84028  1.0000
  S   S67       1.0  0.06896  0.39232  0.85158  1.0000
  S   S68       1.0  0.04508  0.44866  0.83658  1.0000
  C   C193      1.0  0.04386  0.18092  0.83209  1.0000
  S   S69       1.0  0.03721  0.34273  0.84683  1.0000
  Fe  Fe32      1.0  0.03655  0.36348  0.86625  1.0000
  S   S70       1.0  0.02838  0.34492  0.89411  1.0000
  Fe  Fe33      1.0  0.06796  0.37303  0.83121  1.0000
  S   S71       1.0  0.09777  0.36165  0.81820  1.0000
  C   C194      1.0  0.31227  0.09724  0.78476  1.0000
  S   S72       1.0  0.04731  0.39376  0.81840  1.0000
  Fe  Fe34      1.0  0.07488  0.22965  0.93863  1.0000
  S   S73       1.0  0.10605  0.25205  0.94313  1.0000
  Fe  Fe35      1.0  0.09446  0.24500  0.90003  1.0000
  S   S74       1.0  0.12772  0.26828  0.90118  1.0000
  S   S75       1.0  0.08890  0.24459  0.87412  1.0000
  Fe  Fe36      1.0  0.12623  0.23877  0.92332  1.0000
  S   S76       1.0  0.15569  0.22480  0.92889  1.0000
  Fe  Fe37      1.0  0.10482  0.27948  0.92072  1.0000
  S   S77       1.0  0.11165  0.31832  0.91829  1.0000
  S   S78       1.0  0.09498  0.21407  0.92037  1.0000
  S   S79       1.0  0.07163  0.25848  0.91801  1.0000
  H   H199      1.0  0.27018  0.30745  0.76017  1.0000
  Fe  Fe38      1.0  0.29858  0.26086  0.96392  1.0000
  S   S80       1.0  0.30703  0.29573  0.94406  1.0000
  H   H200      1.0  0.08932  0.30327  0.88293  1.0000
  S   S81       1.0  0.29946  0.26418  0.91673  1.0000
  N   N17       1.0  0.04624  0.17664  0.84957  1.0000
  H   H201      1.0  0.13363  0.36246  0.75978  1.0000
  Fe  Fe39      1.0  0.27729  0.27733  0.93536  1.0000
  S   S82       1.0  0.25126  0.29390  0.92587  1.0000
  S   S83       1.0  0.26729  0.24384  0.95651  1.0000
  C   C195      1.0  0.04696  0.28761  0.88248  1.0000
  H   H202      1.0  0.08494  0.27071  0.74860  1.0000
  H   H203      1.0  0.02841  0.39418  0.88644  1.0000
  C   C196      1.0  0.02486  0.27739  0.88133  1.0000
  C   C197      1.0  0.06135  0.50088  0.85922  1.0000
  C   C198      1.0  0.03122  0.41102  0.88960  1.0000
  H   H204      1.0  0.00371  0.33912  0.76435  1.0000
  H   H205      1.0  0.00659  0.42202  0.87707  1.0000
  C   C199      1.0  0.28017  0.17379  0.90972  1.0000
  S   S84       1.0  0.30463  0.19196  0.85845  1.0000
  C   C200      1.0  0.03870  0.22842  0.77758  1.0000
  C   C201      1.0  0.18232  0.24432  0.92742  1.0000
  C   C202      1.0  0.18918  0.26798  0.91768  1.0000
  C   C203      1.0  0.21057  0.28302  0.91702  1.0000
  C   C204      1.0  0.22511  0.27448  0.92610  1.0000
  C   C205      1.0  0.21820  0.25079  0.93574  1.0000
  C   C206      1.0  0.19696  0.23577  0.93633  1.0000
  H   H206      1.0  0.17811  0.27459  0.91056  1.0000
  H   H207      1.0  0.21583  0.30132  0.90950  1.0000
  H   H208      1.0  0.22901  0.24410  0.94300  1.0000
  H   H209      1.0  0.19159  0.21754  0.94402  1.0000
  C   C207      1.0  0.10677  0.37402  0.79598  1.0000
  C   C208      1.0  0.10066  0.39399  0.78850  1.0000
  C   C209      1.0  0.10599  0.40229  0.77066  1.0000
  C   C210      1.0  0.11719  0.39046  0.76028  1.0000
  C   C211      1.0  0.12412  0.37106  0.76773  1.0000
  C   C212      1.0  0.11906  0.36296  0.78557  1.0000
  H   H210      1.0  0.09193  0.40314  0.79644  1.0000
  H   H211      1.0  0.10099  0.41759  0.76495  1.0000
  H   H212      1.0  0.28113  0.06318  0.80936  1.0000
  H   H213      1.0  0.12416  0.34775  0.79130  1.0000
  C   C213      1.0  0.05177  0.33812  0.90081  1.0000
  C   C214      1.0  0.04755  0.32079  0.91614  1.0000
  C   C215      1.0  0.06598  0.31481  0.92159  1.0000
  C   C216      1.0  0.08869  0.32679  0.91204  1.0000
  C   C217      1.0  0.09296  0.34454  0.89692  1.0000
  C   C218      1.0  0.07449  0.34989  0.89114  1.0000
  H   H214      1.0  0.03000  0.31168  0.92368  1.0000
  H   H215      1.0  0.06263  0.30106  0.93329  1.0000
  H   H216      1.0  0.11052  0.35363  0.88941  1.0000
  H   H217      1.0  0.07792  0.36320  0.87928  1.0000
  C   C219      1.0  0.03291  0.31493  0.77658  1.0000
  C   C220      1.0  0.02010  0.21283  0.88905  1.0000
  C   C221      1.0  0.04266  0.22329  0.88939  1.0000
  C   C222      1.0  0.06008  0.23373  0.87408  1.0000
  C   C223      1.0  0.05471  0.23442  0.85847  1.0000
  C   C224      1.0  0.03215  0.22401  0.85815  1.0000
  H   H218      1.0  0.03782  0.28438  0.83848  1.0000
  H   H219      1.0  0.04669  0.22258  0.90149  1.0000
  H   H220      1.0  0.06815  0.24256  0.84660  1.0000
  H   H221      1.0  0.02829  0.22416  0.84608  1.0000
  H   H222      1.0  0.03652  0.19611  0.82923  1.0000
  H   H223      1.0  0.22580  0.29749  0.78892  1.0000
  N   N18       1.0  0.16939  0.29779  0.94547  1.0000
  C   C225      1.0  0.03837  0.45425  0.89739  1.0000
  C   C226      1.0  0.05350  0.31282  0.78034  1.0000
  H   H224      1.0  0.05805  0.35212  0.80427  1.0000
  N   N19       1.0  0.06529  0.29615  0.86819  1.0000
  Fe  Fe40      1.0  0.29170  0.23202  0.93848  1.0000
  H   H225      1.0  0.07522  0.23210  0.77063  1.0000
  H   H226      1.0  0.19967  0.29934  0.76086  1.0000
  H   H227      1.0  0.06409  0.44371  0.90843  1.0000
  C   C227      1.0  0.01860  0.42654  0.88448  1.0000
  H   H228      1.0  0.07664  0.30268  0.84115  1.0000
  C   C228      1.0  0.31039  0.21300  0.88403  1.0000
  H   H229      1.0  0.19483  0.33138  0.93537  1.0000
  C   C229      1.0  0.06215  0.29537  0.85250  1.0000
  N   N20       1.0  0.02177  0.33000  0.78262  1.0000
  C   C230      1.0  0.03853  0.21747  0.97774  1.0000
  C   C231      1.0  0.30530  0.21383  0.90112  1.0000
  H   H230      1.0  0.04194  0.47149  0.89998  1.0000
  S   S85       1.0  0.31755  0.30562  0.74742  1.0000
  H   H231      1.0  0.05553  0.25372  0.96322  1.0000
  C   C232      1.0  0.20029  0.28346  0.96241  1.0000
  H   H232      1.0  0.09348  0.32631  0.86375  1.0000
  C   C233      1.0  0.00030  0.33182  0.77835  1.0000
  H   H233      1.0  0.31401  0.21194  0.99197  1.0000
  N   N21       1.0  0.30200  0.07523  0.78352  1.0000
  H   H234      1.0  0.26559  0.06377  0.79316  1.0000
  H   H235      1.0  0.13564  0.29999  0.94489  1.0000
  C   C234      1.0  0.05127  0.48631  0.85010  1.0000
  C   C235      1.0  0.05824  0.46614  0.84824  1.0000
  C   C236      1.0  0.07544  0.46056  0.85555  1.0000
  C   C237      1.0  0.08574  0.47532  0.86456  1.0000
  H   H236      1.0  0.04934  0.28859  0.89488  1.0000
  H   H237      1.0  0.03766  0.49041  0.84474  1.0000
  H   H238      1.0  0.08098  0.44508  0.85409  1.0000
  H   H239      1.0  0.09912  0.47108  0.87013  1.0000
  H   H240      1.0  0.21275  0.27768  0.96848  1.0000
  Fe  Fe41      1.0  0.32920  0.38870  0.75217  1.0000
  H   H241      1.0  0.14795  0.26220  0.95622  1.0000
  C   C238      1.0  0.20581  0.30662  0.95215  1.0000
  H   H242      1.0  0.16742  0.40906  0.75376  1.0000
  C   C239      1.0  0.15329  0.30488  0.93615  1.0000
  Fe  Fe42      1.0  0.01658  0.36489  0.83576  1.0000
  C   C240      1.0  0.28106  0.06008  0.79663  1.0000
  C   C241      1.0  0.02719  0.16495  0.86302  1.0000
  C   C242      1.0  0.17921  0.26749  0.96406  1.0000
  H   H243      1.0  0.00680  0.20414  0.90093  1.0000
  S   S86       1.0  0.32245  0.07201  0.82126  1.0000
  C   C243      1.0  0.23081  0.31273  0.77739  1.0000
  H   H244      1.0  0.32288  0.19492  0.94678  1.0000
  C   C244      1.0  0.03076  0.34346  0.79230  1.0000
  H   H245      1.0  0.07115  0.40633  0.91134  1.0000
  N   N22       1.0  0.04713  0.41707  0.89826  1.0000
  H   H246      1.0  0.31777  0.11237  0.83377  1.0000
  C   C245      1.0  0.06915  0.18300  0.86911  1.0000
  H   H247      1.0  0.22261  0.31881  0.95019  1.0000
  H   H248      1.0  0.04172  0.27045  0.98702  1.0000
  H   H249      1.0  0.21716  0.32210  0.77794  1.0000
  C   C246      1.0  0.28502  0.17305  0.89264  1.0000
  C   C247      1.0  0.07869  0.49551  0.86641  1.0000
  C   C248      1.0  0.21658  0.29776  0.75521  1.0000
  H   H250      1.0  0.10111  0.29909  0.86262  1.0000
  H   H251      1.0  0.05107  0.16956  0.89588  1.0000
  H   H252      1.0  0.02593  0.30452  0.76872  1.0000
  H   H253      1.0  0.27991  0.04100  0.79807  1.0000
  C   C249      1.0  0.20413  0.41626  0.75044  1.0000
  S   S87       1.0  0.29969  0.35561  0.76298  1.0000
  C   C250      1.0  0.02872  0.16184  0.87986  1.0000
  H   H254      1.0  0.06066  0.18504  0.82241  1.0000
  H   H255      1.0  0.06233  0.30095  0.77538  1.0000
  H   H256      1.0  0.01299  0.46073  0.88416  1.0000
  H   H257      1.0  0.08538  0.19113  0.87136  1.0000
  H   H258      1.0  0.20348  0.42035  0.76260  1.0000
  C   C251      1.0  0.04511  0.24199  0.97551  1.0000
  H   H259      1.0  0.32411  0.26278  0.76634  1.0000
  C   C252      1.0  0.30013  0.19264  0.87979  1.0000
  C   C253      1.0  0.06169  0.23995  0.76819  1.0000
  H   H260      1.0  0.04892  0.38265  0.90970  1.0000
  C   C254      1.0  0.05095  0.43846  0.90207  1.0000
  S   S88       1.0  0.28266  0.19523  0.93530  1.0000
  H   H261      1.0  0.01046  0.15877  0.86084  1.0000
  C   C255      1.0  0.04959  0.27166  0.75242  1.0000
  N   N23       1.0  0.24536  0.21536  0.90339  1.0000
  C   C256      1.0  0.25516  0.23915  0.90039  1.0000
  C   C257      1.0  0.24728  0.20498  0.89021  1.0000
  C   C258      1.0  0.26813  0.25300  0.88399  1.0000
  C   C259      1.0  0.26006  0.21829  0.87362  1.0000
  C   C260      1.0  0.27073  0.24240  0.87056  1.0000
  C   C261      1.0  0.23195  0.20106  0.92067  1.0000
  H   H262      1.0  0.25332  0.24752  0.91073  1.0000
  H   H263      1.0  0.23946  0.18613  0.89254  1.0000
  H   H264      1.0  0.27623  0.27176  0.88184  1.0000
  H   H265      1.0  0.26233  0.20977  0.86334  1.0000
  H   H266      1.0  0.28115  0.25274  0.85784  1.0000
  H   H267      1.0  0.21337  0.19978  0.92226  1.0000
  H   H268      1.0  0.23430  0.18295  0.92317  1.0000
  H   H269      1.0  0.23782  0.20888  0.93053  1.0000
  H   H270      1.0  0.02214  0.35565  0.79695  1.0000
  S   S89       1.0  0.24512  0.37042  0.75291  1.0000
  H   H271      1.0  0.31366  0.22938  0.90433  1.0000
  H   H272      1.0  0.07236  0.39962  0.89110  1.0000
  C   C262      1.0  0.01488  0.21278  0.87345  1.0000
  C   C263      1.0  0.04985  0.17097  0.88289  1.0000
  C   C264      1.0  0.02669  0.25997  0.76167  1.0000
  N   N24       1.0  0.23461  0.30449  0.76191  1.0000
  C   C265      1.0  0.06700  0.18577  0.85242  1.0000
  H   H273      1.0  0.30547  0.10325  0.79569  1.0000
  C   C266      1.0  0.03724  0.25142  0.98897  1.0000
  H   H274      1.0  0.15822  0.32433  0.93024  1.0000
  C   C267      1.0  0.25595  0.30259  0.75469  1.0000
  S   S90       1.0  0.01289  0.38304  0.85669  1.0000
  C   C268      1.0  0.02155  0.27608  0.86544  1.0000
  H   H275      1.0  0.07854  0.32480  0.79347  1.0000
  H   H276      1.0  0.99885  0.23645  0.97072  1.0000
  H   H277      1.0  0.32094  0.33446  0.80305  1.0000
  C   C269      1.0  0.06259  0.32620  0.79042  1.0000
  H   H278      1.0  0.24664  0.32585  0.77746  1.0000
  S   S91       1.0  0.29560  0.25458  0.99211  1.0000
  C   C270      1.0  0.06061  0.40070  0.90286  1.0000
  H   H279      1.0  0.00360  0.22999  0.78150  1.0000
  S   S92       1.0  0.32197  0.24567  0.94785  1.0000
  H   H280      1.0  0.01995  0.18341  0.99543  1.0000
  C   C271      1.0  0.02495  0.20240  0.99365  1.0000
  H   H281      1.0  0.03225  0.16510  0.83036  1.0000
  H   H282      1.0  0.30228  0.05036  0.76858  1.0000
  H   H283      1.0  0.32737  0.36546  0.80202  1.0000
  Fe  Fe43      1.0  0.32816  0.27901  0.92726  1.0000
  C   C272      1.0  0.31055  0.06769  0.76971  1.0000
  H   H284      1.0  0.01298  0.26743  0.75910  1.0000
  Fe  Fe44      1.0  0.99729  0.19675  0.81170  1.0000
  S   S93       1.0  0.99779  0.22610  0.82443  1.0000
  C   C273      1.0  0.04190  0.69066  0.23096  1.0000
  Fe  Fe45      1.0  0.11708  0.76350  0.16662  1.0000
  S   S94       1.0  0.08184  0.76777  0.17644  1.0000
  S   S95       1.0  0.15219  0.79107  0.15828  1.0000
  Fe  Fe46      1.0  0.09732  0.71370  0.16378  1.0000
  S   S96       1.0  0.06073  0.71339  0.17373  1.0000
  S   S97       1.0  0.10563  0.68468  0.15265  1.0000
  Fe  Fe47      1.0  0.07141  0.75032  0.15680  1.0000
  H   H285      1.0  0.27025  0.90863  0.02306  1.0000
  Fe  Fe48      1.0  0.07350  0.73032  0.19274  1.0000
  H   H286      1.0  0.21495  0.88614  0.14569  1.0000
  S   S98       1.0  0.10726  0.74951  0.14525  1.0000
  S   S99       1.0  0.10951  0.72716  0.18449  1.0000
  S   S100      1.0  0.05051  0.72071  0.21946  1.0000
  C   C274      1.0  0.28740  0.91796  0.02314  1.0000
  C   C275      1.0  0.14876  0.69182  0.17290  1.0000
  C   C276      1.0  0.01144  0.66628  0.20478  1.0000
  S   S101      1.0  0.03539  0.54406  0.16618  1.0000
  H   H287      1.0  0.02006  0.54862  0.22844  1.0000
  C   C277      1.0  0.04643  0.65096  0.23521  1.0000
  C   C278      1.0  0.02031  0.65211  0.19536  1.0000
  Fe  Fe49      1.0  0.02520  0.56139  0.18683  1.0000
  S   S102      1.0  0.04698  0.58293  0.19971  1.0000
  H   H288      1.0  0.30375  0.90840  0.00100  1.0000
  H   H289      1.0  0.31478  0.87136  0.21636  1.0000
  C   C279      1.0  0.05900  0.73132  0.99957  1.0000
  C   C280      1.0  0.03948  0.73757  0.09505  1.0000
  H   H290      1.0  0.03368  0.66012  0.18340  1.0000
  Fe  Fe50      1.0  0.28607  0.88266  0.17532  1.0000
  S   S103      1.0  0.29847  0.91874  0.17873  1.0000
  S   S104      1.0  0.01789  0.57337  0.12713  1.0000
  Fe  Fe51      1.0  0.23614  0.87610  0.19403  1.0000
  S   S105      1.0  0.24483  0.91207  0.19940  1.0000
  S   S106      1.0  0.19933  0.85170  0.20265  1.0000
  Fe  Fe52      1.0  0.26671  0.92461  0.17218  1.0000
  S   S107      1.0  0.27114  0.96023  0.15455  1.0000
  Fe  Fe53      1.0  0.27622  0.90325  0.20556  1.0000
  H   H291      1.0  0.27879  0.99673  0.12369  1.0000
  S   S108      1.0  0.25574  0.88956  0.16640  1.0000
  S   S109      1.0  0.26573  0.86622  0.20267  1.0000
  S   S110      1.0  0.29548  0.95968  0.07708  1.0000
  C   C281      1.0  0.28905  0.96021  0.09849  1.0000
  C   C282      1.0  0.28660  0.98088  0.10296  1.0000
  C   C283      1.0  0.28121  0.98089  0.12023  1.0000
  C   C284      1.0  0.27882  0.96043  0.13297  1.0000
  C   C285      1.0  0.28216  0.94012  0.12838  1.0000
  C   C286      1.0  0.28680  0.93984  0.11121  1.0000
  H   H292      1.0  0.25388  0.92361  0.04511  1.0000
  C   C287      1.0  0.17464  0.75392  0.18751  1.0000
  H   H293      1.0  0.28144  0.92465  0.13797  1.0000
  H   H294      1.0  0.28918  0.92397  0.10776  1.0000
  C   C288      1.0  0.02953  0.68603  0.13186  1.0000
  H   H295      1.0  0.27114  0.95099  0.04660  1.0000
  H   H296      1.0  0.06063  0.69797  0.13939  1.0000
  H   H297      1.0  0.18773  0.87934  0.17293  1.0000
  C   C289      1.0  0.02041  0.74109  0.10559  1.0000
  C   C290      1.0  0.04782  0.65052  0.12345  1.0000
  H   H298      1.0  0.01550  0.59988  0.09487  1.0000
  C   C291      1.0  0.09130  0.69151  0.99668  1.0000
  H   H299      1.0  0.22815  0.94936  0.14466  1.0000
  N   N25       1.0  0.16656  0.73243  0.18227  1.0000
  H   H300      1.0  0.06338  0.82547  0.09684  1.0000
  C   C292      1.0  0.18911  0.90536  0.18706  1.0000
  C   C293      1.0  0.04079  0.71352  0.01177  1.0000
  H   H301      1.0  0.03720  0.71373  0.02502  1.0000
  S   S111      1.0  0.04541  0.76022  0.14341  1.0000
  C   C294      1.0  0.21508  0.90511  0.14214  1.0000
  C   C295      1.0  0.21194  0.94502  0.17106  1.0000
  C   C296      1.0  0.00143  0.60072  0.10477  1.0000
  H   H302      1.0  0.26684  0.96277  0.00985  1.0000
  C   C297      1.0  0.04289  0.74985  0.12546  1.0000
  H   H303      1.0  0.18428  0.75067  0.19722  1.0000
  N   N26       1.0  0.20895  0.91342  0.15740  1.0000
  H   H304      1.0  0.20270  0.90721  0.13441  1.0000
  C   C298      1.0  0.06167  0.74543  0.11526  1.0000
  C   C299      1.0  0.06007  0.73969  0.09995  1.0000
  H   H305      1.0  0.31419  0.95388  0.04315  1.0000
  H   H306      1.0  0.07766  0.74720  0.11886  1.0000
  H   H307      1.0  0.07488  0.73705  0.09178  1.0000
  C   C300      1.0  0.09004  0.65623  0.16582  1.0000
  C   C301      1.0  0.08657  0.63695  0.15873  1.0000
  C   C302      1.0  0.07301  0.61439  0.16899  1.0000
  C   C303      1.0  0.06407  0.61084  0.18652  1.0000
  C   C304      1.0  0.06836  0.62991  0.19369  1.0000
  C   C305      1.0  0.08086  0.65272  0.18331  1.0000
  H   H308      1.0  0.09415  0.63941  0.14529  1.0000
  H   H309      1.0  0.06992  0.59963  0.16343  1.0000
  H   H310      1.0  0.06146  0.62707  0.20724  1.0000
  H   H311      1.0  0.08361  0.66748  0.18889  1.0000
  C   C306      1.0  0.16486  0.80770  0.17093  1.0000
  C   C307      1.0  0.15278  0.80702  0.18735  1.0000
  C   C308      1.0  0.16367  0.82033  0.19698  1.0000
  C   C309      1.0  0.18674  0.83431  0.19038  1.0000
  C   C310      1.0  0.19885  0.83484  0.17398  1.0000
  C   C311      1.0  0.18792  0.82169  0.16431  1.0000
  H   H312      1.0  0.13502  0.79636  0.19264  1.0000
  H   H313      1.0  0.15411  0.81985  0.20962  1.0000
  H   H314      1.0  0.21664  0.84536  0.16876  1.0000
  H   H315      1.0  0.19749  0.82223  0.15166  1.0000
  C   C312      1.0  0.02649  0.65227  0.12103  1.0000
  C   C313      1.0  0.05375  0.67494  0.22589  1.0000
  C   C314      1.0  0.16630  0.73406  0.16564  1.0000
  H   H316      1.0  0.06873  0.68133  0.21496  1.0000
  C   C315      1.0  0.07188  0.67180  0.00234  1.0000
  C   C316      1.0  0.19801  0.92908  0.18645  1.0000
  C   C317      1.0  0.19462  0.89784  0.17228  1.0000
  H   H317      1.0  0.28827  0.99667  0.09314  1.0000
  C   C318      1.0  0.15748  0.71378  0.16070  1.0000
  H   H318      1.0  0.17240  0.75118  0.15619  1.0000
  S   S112      1.0  0.03895  0.73280  0.07498  1.0000
  C   C319      1.0  0.01223  0.62740  0.20169  1.0000
  C   C320      1.0  0.28661  0.97194  0.23421  1.0000
  H   H319      1.0  0.14141  0.67605  0.16928  1.0000
  C   C321      1.0  0.32840  0.93098  0.00976  1.0000
  Fe  Fe54      1.0  0.00507  0.51293  0.18149  1.0000
  H   H320      1.0  0.21938  0.96345  0.17044  1.0000
  H   H321      1.0  0.27131  0.94657  0.22194  1.0000
  S   S113      1.0  0.30981  0.86439  0.16249  1.0000
  H   H322      1.0  0.15724  0.70984  0.20764  1.0000
  H   H323      1.0  0.09516  0.70262  0.00502  1.0000
  H   H324      1.0  0.05456  0.63628  0.12032  1.0000
  C   C322      1.0  0.29845  0.93664  0.23160  1.0000
  C   C323      1.0  0.28401  0.96756  0.00134  1.0000
  C   C324      1.0  0.06031  0.66730  0.12984  1.0000
  H   H325      1.0  0.14151  0.67344  0.19948  1.0000
  C   C325      1.0  0.30213  0.98372  0.00420  1.0000
  H   H326      1.0  0.17851  0.89263  0.19901  1.0000
  H   H327      1.0  0.23284  0.91529  0.13417  1.0000
  H   H328      1.0  0.02243  0.69982  0.13534  1.0000
  N   N27       1.0  0.08130  0.80704  0.11157  1.0000
  C   C326      1.0  0.08170  0.81314  0.12649  1.0000
  C   C327      1.0  0.09980  0.80157  0.10270  1.0000
  C   C328      1.0  0.10081  0.81345  0.13305  1.0000
  C   C329      1.0  0.11923  0.80180  0.10885  1.0000
  C   C330      1.0  0.11971  0.80786  0.12411  1.0000
  C   C331      1.0  0.06133  0.80736  0.10471  1.0000
  H   H329      1.0  0.06683  0.81697  0.13372  1.0000
  H   H330      1.0  0.09943  0.79661  0.09092  1.0000
  H   H331      1.0  0.10079  0.81759  0.14515  1.0000
  H   H332      1.0  0.13370  0.79704  0.10196  1.0000
  H   H333      1.0  0.13452  0.80777  0.12918  1.0000
  C   C332      1.0  0.21703  0.93688  0.15651  1.0000
  H   H334      1.0  0.05920  0.79468  0.09676  1.0000
  H   H335      1.0  0.19438  0.93500  0.19794  1.0000
  C   C333      1.0  0.02225  0.74760  0.12063  1.0000
  H   H336      1.0  0.06912  0.74536  0.00346  1.0000
  C   C334      1.0  0.05106  0.68500  0.13427  1.0000
  N   N28       1.0  0.01783  0.67011  0.12491  1.0000
  Fe  Fe55      1.0  0.00651  0.71162  0.07075  1.0000
  N   N29       1.0  0.29039  0.93101  0.03456  1.0000
  H   H337      1.0  0.27096  0.92338  0.06034  1.0000
  H   H338      1.0  0.01788  0.68548  0.20036  1.0000
  C   C335      1.0  0.27051  0.93214  0.04728  1.0000
  H   H339      1.0  0.03939  0.50856  0.14554  1.0000
  H   H340      1.0  0.07718  0.66666  0.13132  1.0000
  H   H341      1.0  0.04510  0.80168  0.11524  1.0000
  H   H342      1.0  0.27529  0.98297  0.23207  1.0000
  H   H343      1.0  0.00773  0.75119  0.12842  1.0000
  H   H344      1.0  0.01234  0.50700  0.12732  1.0000
  C   C336      1.0  0.02269  0.68229  0.24532  1.0000
  H   H345      1.0  0.32846  0.97267  0.11523  1.0000
  H   H346      1.0  0.18641  0.76864  0.17652  1.0000
  H   H347      1.0  0.01925  0.61651  0.19433  1.0000
  C   C337      1.0  0.28433  0.95135  0.22845  1.0000
  S   S114      1.0  0.29568  0.91025  0.22506  1.0000
  H   H348      1.0  0.15670  0.71510  0.14762  1.0000
  S   S115      1.0  0.00608  0.67200  0.02232  1.0000
  C   C338      1.0  0.02791  0.69515  0.00689  1.0000
  C   C339      1.0  0.31199  0.94351  0.03413  1.0000
  C   C340      1.0  0.14882  0.69037  0.18985  1.0000
  H   H349      1.0  0.29881  0.99137  0.01479  1.0000
  C   C341      1.0  0.15777  0.71100  0.19435  1.0000
  S   S116      1.0  0.99760  0.52889  0.20341  1.0000
  H   H350      1.0  0.15963  0.75991  0.19298  1.0000
  C   C342      1.0  0.30636  0.91773  0.01059  1.0000
  C   C343      1.0  0.30337  0.97831  0.24277  1.0000
  S   S117      1.0  0.00762  0.67473  0.07006  1.0000
  Fe  Fe56      1.0  0.00902  0.55768  0.15543  1.0000
  H   H351      1.0  0.00460  0.73983  0.10176  1.0000
  H   H352      1.0  0.05594  0.63893  0.23159  1.0000
  H   H353      1.0  0.01697  0.63938  0.11591  1.0000
  Fe  Fe57      1.0  0.31878  0.99467  0.06027  1.0000
  C   C344      1.0  0.01475  0.54231  0.24223  1.0000
  H   H354      1.0  0.06090  0.66766  0.01525  1.0000
  H   H355      1.0  0.32388  0.85447  0.20214  1.0000
  H   H356      1.0  0.32597  0.93152  0.24286  1.0000
  C   C345      1.0  0.31509  0.94289  0.24027  1.0000
  C   C346      1.0  0.32607  0.87272  0.20364  1.0000
  H   H357      1.0  0.32002  0.88290  0.19361  1.0000
  C   C347      1.0  0.04546  0.63833  0.99756  1.0000
  H   H358      1.0  0.32307  0.98416  0.19549  1.0000
  H   H359      1.0  0.03193  0.64126  0.00744  1.0000
  H   H360      1.0  0.04995  0.62207  0.00315  1.0000
  S   S118      1.0  0.00135  0.57773  0.17482  1.0000
  C   C348      1.0  0.99816  0.58848  0.12180  1.0000
  C   C349      1.0  0.99998  0.51962  0.25021  1.0000
  S   S119      1.0  0.01731  0.61199  0.25980  1.0000
  H   H361      1.0  0.00295  0.52905  0.30262  1.0000
  H   H362      1.0  0.14339  0.63154  0.39630  1.0000
  Fe  Fe58      1.0  0.16776  0.70974  0.47950  1.0000
  S   S120      1.0  0.15840  0.67376  0.47429  1.0000
  S   S121      1.0  0.20453  0.73425  0.47057  1.0000
  H   H363      1.0  0.02986  0.56904  0.46673  1.0000
  H   H364      1.0  0.09138  0.70899  0.46414  1.0000
  H   H365      1.0  0.08622  0.73754  0.48132  1.0000
  Fe  Fe59      1.0  0.12624  0.68229  0.46950  1.0000
  S   S122      1.0  0.10708  0.67455  0.44983  1.0000
  C   C350      1.0  0.10131  0.60119  0.39285  1.0000
  H   H366      1.0  0.99731  0.53248  0.47913  1.0000
  C   C351      1.0  0.01497  0.65815  0.25433  1.0000
  H   H367      1.0  0.05834  0.67487  0.46694  1.0000
  C   C352      1.0  0.31161  0.95902  0.48964  1.0000
  C   C353      1.0  0.09718  0.63886  0.39513  1.0000
  Fe  Fe60      1.0  0.31385  0.87157  0.47922  1.0000
  C   C354      1.0  0.07166  0.72300  0.48206  1.0000
  Fe  Fe61      1.0  0.03059  0.55305  0.39802  1.0000
  H   H368      1.0  0.21993  0.80924  0.47531  1.0000
  S   S123      1.0  0.03722  0.56873  0.36968  1.0000
  Fe  Fe62      1.0  0.05192  0.55657  0.42762  1.0000
  S   S124      1.0  0.02318  0.52634  0.44586  1.0000
  S   S125      1.0  0.08141  0.57226  0.43776  1.0000
  C   C355      1.0  0.01474  0.57658  0.34477  1.0000
  C   C356      1.0  0.99687  0.60661  0.46070  1.0000
  H   H369      1.0  0.12512  0.63617  0.41466  1.0000
  S   S126      1.0  0.05665  0.53687  0.40749  1.0000
  S   S127      1.0  0.02875  0.57536  0.41654  1.0000
  C   C357      1.0  0.04392  0.60226  0.48186  1.0000
  H   H370      1.0  0.07110  0.65048  0.38467  1.0000
  S   S128      1.0  0.32234  0.89391  0.45211  1.0000
  H   H371      1.0  0.05960  0.61433  0.37482  1.0000
  C   C358      1.0  0.05604  0.68764  0.47419  1.0000
  H   H372      1.0  0.10217  0.65467  0.39936  1.0000
  C   C359      1.0  0.25233  0.83141  0.45789  1.0000
  C   C360      1.0  0.08417  0.59862  0.38422  1.0000
  C   C361      1.0  0.23696  0.88651  0.47887  1.0000
  H   H373      1.0  0.01358  0.69447  0.24934  1.0000
  C   C362      1.0  0.08587  0.59969  0.44290  1.0000
  C   C363      1.0  0.10236  0.60541  0.45178  1.0000
  C   C364      1.0  0.10829  0.62798  0.45460  1.0000
  C   C365      1.0  0.09812  0.64523  0.44822  1.0000
  C   C366      1.0  0.08126  0.63940  0.43961  1.0000
  C   C367      1.0  0.07491  0.61658  0.43716  1.0000
  H   H374      1.0  0.11097  0.59246  0.45623  1.0000
  H   H375      1.0  0.12132  0.63229  0.46122  1.0000
  H   H376      1.0  0.07325  0.65265  0.43469  1.0000
  H   H377      1.0  0.06216  0.61236  0.43031  1.0000
  S   S129      1.0  0.13736  0.71950  0.47216  1.0000
  H   H378      1.0  0.31516  0.96281  0.47588  1.0000
  C   C368      1.0  0.07965  0.63664  0.38681  1.0000
  S   S130      1.0  0.99994  0.52278  0.41404  1.0000
  H   H379      1.0  0.99721  0.58309  0.32510  1.0000
  H   H380      1.0  0.24999  0.76494  0.46484  1.0000
  C   C369      1.0  0.02684  0.64245  0.24924  1.0000
  H   H381      1.0  0.04240  0.61133  0.46922  1.0000
  N   N30       1.0  0.00130  0.52579  0.27764  1.0000
  H   H382      1.0  0.25634  0.81719  0.45274  1.0000
  C   C370      1.0  0.01556  0.54827  0.26989  1.0000
  C   C371      1.0  0.23189  0.82693  0.47059  1.0000
  H   H383      1.0  0.07922  0.58285  0.37992  1.0000
  C   C372      1.0  0.12662  0.62413  0.40624  1.0000
  N   N31       1.0  0.10762  0.62115  0.39816  1.0000
  H   H384      1.0  0.26757  0.78980  0.48178  1.0000
  H   H385      1.0  0.28380  0.85786  0.44235  1.0000
  N   N32       1.0  0.24236  0.86750  0.47165  1.0000
  C   C373      1.0  0.02008  0.56496  0.48000  1.0000
  H   H386      1.0  0.10937  0.58702  0.39542  1.0000
  C   C374      1.0  0.07320  0.61640  0.38128  1.0000
  C   C375      1.0  0.04997  0.71988  0.49298  1.0000
  H   H387      1.0  0.03146  0.58060  0.33579  1.0000
  Fe  Fe63      1.0  0.02574  0.50814  0.42489  1.0000
  H   H388      1.0  0.22894  0.87967  0.49291  1.0000
  N   N33       1.0  0.03181  0.70099  0.49451  1.0000
  C   C376      1.0  0.02252  0.55685  0.25206  1.0000
  C   C377      1.0  0.23956  0.76572  0.47682  1.0000
  C   C378      1.0  0.21623  0.75238  0.48273  1.0000
  C   C379      1.0  0.26216  0.87219  0.45888  1.0000
  H   H389      1.0  0.12637  0.60685  0.41452  1.0000
  C   C380      1.0  0.07464  0.70679  0.47260  1.0000
  C   C381      1.0  0.03458  0.68505  0.48522  1.0000
  C   C382      1.0  0.01258  0.57010  0.36239  1.0000
  H   H390      1.0  0.01115  0.62231  0.45425  1.0000
  H   H391      1.0  0.27423  0.88980  0.45426  1.0000
  C   C383      1.0  0.00184  0.54415  0.48698  1.0000
  Fe  Fe64      1.0  0.00012  0.54366  0.43349  1.0000
  H   H392      1.0  0.30102  0.92107  0.49379  1.0000
  H   H393      1.0  0.25283  0.90096  0.47703  1.0000
  H   H394      1.0  0.22498  0.89409  0.47269  1.0000
  S   S131      1.0  0.31491  0.83390  0.48855  1.0000
  H   H395      1.0  0.04346  0.61504  0.48975  1.0000
  H   H396      1.0  0.02155  0.55986  0.27741  1.0000
  H   H397      1.0  0.99996  0.65176  0.26524  1.0000
  C   C384      1.0  0.26763  0.85417  0.45201  1.0000
  C   C385      1.0  0.22721  0.84525  0.47744  1.0000
  H   H398      1.0  0.02017  0.67017  0.48638  1.0000
  H   H399      1.0  0.21150  0.84146  0.48757  1.0000
  H   H400      1.0  0.06081  0.59820  0.48015  1.0000
  C   C386      1.0  0.24956  0.77982  0.48639  1.0000
  H   H401      1.0  0.00145  0.59129  0.43957  1.0000
  N   N34       1.0  0.02505  0.58034  0.48960  1.0000
  H   H402      1.0  0.03375  0.57472  0.24591  1.0000
  C   C387      1.0  0.31770  0.96376  0.24570  1.0000
  C   C388      1.0  0.00812  0.56142  0.58512  1.0000
  S   S132      1.0  0.15995  0.73966  0.71017  1.0000
  S   S133      1.0  0.13574  0.62624  0.51945  1.0000
  Fe  Fe65      1.0  0.11863  0.70317  0.49989  1.0000
  S   S134      1.0  0.10802  0.70280  0.72591  1.0000
  H   H403      1.0  0.04161  0.64490  0.60308  1.0000
  Fe  Fe66      1.0  0.14166  0.70318  0.70922  1.0000
  S   S135      1.0  0.14224  0.69454  0.68392  1.0000
  Fe  Fe67      1.0  0.12701  0.73721  0.72890  1.0000
  S   S136      1.0  0.15350  0.68434  0.73063  1.0000
  C   C389      1.0  0.06078  0.63110  0.58485  1.0000
  S   S137      1.0  0.28940  0.90122  0.53039  1.0000
  S   S138      1.0  0.28768  0.87255  0.72420  1.0000
  C   C390      1.0  0.32181  0.91473  0.68749  1.0000
  C   C391      1.0  0.21299  0.76728  0.50792  1.0000
  H   H404      1.0  0.20032  0.66266  0.50311  1.0000
  C   C392      1.0  0.03598  0.67213  0.53341  1.0000
  Fe  Fe68      1.0  0.16866  0.72089  0.73321  1.0000
  C   C393      1.0  0.21049  0.76034  0.74309  1.0000
  S   S139      1.0  0.14971  0.69615  0.50738  1.0000
  C   C394      1.0  0.23162  0.78470  0.70181  1.0000
  Fe  Fe69      1.0  0.04584  0.58725  0.62890  1.0000
  S   S140      1.0  0.07230  0.57893  0.60999  1.0000
  H   H405      1.0  0.00171  0.67933  0.51381  1.0000
  Fe  Fe70      1.0  0.07612  0.59228  0.65351  1.0000
  S   S141      1.0  0.10487  0.58360  0.63665  1.0000
  S   S142      1.0  0.07715  0.59896  0.67929  1.0000
  Fe  Fe71      1.0  0.09734  0.60775  0.61529  1.0000
  S   S143      1.0  0.12281  0.63710  0.59384  1.0000
  Fe  Fe72      1.0  0.07686  0.55531  0.63306  1.0000
  S   S144      1.0  0.07821  0.51745  0.63498  1.0000
  S   S145      1.0  0.07048  0.61834  0.63230  1.0000
  S   S146      1.0  0.04861  0.56180  0.65180  1.0000
  S   S147      1.0  0.29507  0.83904  0.52723  1.0000
  C   C395      1.0  0.30196  0.94923  0.52521  1.0000
  C   C396      1.0  0.12213  0.63190  0.57405  1.0000
  C   C397      1.0  0.12517  0.61079  0.57066  1.0000
  C   C398      1.0  0.12824  0.60849  0.55393  1.0000
  C   C399      1.0  0.12761  0.62704  0.54078  1.0000
  C   C400      1.0  0.12250  0.64716  0.54460  1.0000
  C   C401      1.0  0.12031  0.64985  0.56111  1.0000
  H   H406      1.0  0.12646  0.59683  0.58072  1.0000
  H   H407      1.0  0.13194  0.59277  0.55106  1.0000
  H   H408      1.0  0.12063  0.66089  0.53478  1.0000
  H   H409      1.0  0.11732  0.66593  0.56381  1.0000
  H   H410      1.0  0.21790  0.77196  0.69953  1.0000
  H   H411      1.0  0.99864  0.53931  0.64117  1.0000
  H   H412      1.0  0.25164  0.76017  0.70572  1.0000
  C   C402      1.0  0.32095  0.79347  0.57204  1.0000
  H   H413      1.0  0.06915  0.67537  0.51720  1.0000
  Fe  Fe73      1.0  0.31590  0.85653  0.72865  1.0000
  C   C403      1.0  0.26602  0.81598  0.70921  1.0000
  Fe  Fe74      1.0  0.28019  0.82884  0.50644  1.0000
  C   C404      1.0  0.27937  0.77985  0.54622  1.0000
  H   H414      1.0  0.19206  0.80953  0.74411  1.0000
  H   H415      1.0  0.31561  0.98782  0.71070  1.0000
  C   C405      1.0  0.19304  0.69681  0.53052  1.0000
  C   C406      1.0  0.12455  0.66757  0.68289  1.0000
  C   C407      1.0  0.11206  0.64931  0.69765  1.0000
  C   C408      1.0  0.09777  0.62828  0.69635  1.0000
  C   C409      1.0  0.09584  0.62534  0.68034  1.0000
  C   C410      1.0  0.10843  0.64355  0.66560  1.0000
  C   C411      1.0  0.12272  0.66455  0.66689  1.0000
  H   H416      1.0  0.11357  0.65135  0.71002  1.0000
  H   H417      1.0  0.08833  0.61412  0.70777  1.0000
  H   H418      1.0  0.10713  0.64147  0.65320  1.0000
  H   H419      1.0  0.13237  0.67855  0.65541  1.0000
  H   H420      1.0  0.08713  0.68657  0.69764  1.0000
  Fe  Fe75      1.0  0.30338  0.90019  0.73599  1.0000
  H   H421      1.0  0.29770  0.94551  0.53898  1.0000
  H   H422      1.0  0.00905  0.62688  0.56550  1.0000
  H   H423      1.0  0.05899  0.68730  0.69497  1.0000
  C   C412      1.0  0.18545  0.64964  0.53037  1.0000
  H   H424      1.0  0.06400  0.73416  0.53793  1.0000
  H   H425      1.0  0.27934  0.82821  0.71223  1.0000
  C   C413      1.0  0.28857  0.78439  0.55960  1.0000
  C   C414      1.0  0.05627  0.71675  0.53676  1.0000
  C   C415      1.0  0.20295  0.75341  0.49827  1.0000
  H   H426      1.0  0.06652  0.63742  0.72492  1.0000
  C   C416      1.0  0.23629  0.78062  0.50202  1.0000
  S   S148      1.0  0.11308  0.76864  0.72809  1.0000
  H   H427      1.0  0.03149  0.56636  0.60077  1.0000
  S   S149      1.0  0.30900  0.93841  0.72235  1.0000
  C   C417      1.0  0.30362  0.93543  0.49976  1.0000
  C   C418      1.0  0.03304  0.70508  0.54527  1.0000
  C   C419      1.0  0.06943  0.70613  0.52654  1.0000
  C   C420      1.0  0.04228  0.62070  0.56362  1.0000
  H   H428      1.0  0.21449  0.81230  0.70001  1.0000
  H   H429      1.0  0.24537  0.84048  0.70664  1.0000
  C   C421      1.0  0.01577  0.56918  0.59830  1.0000
  H   H430      1.0  0.16961  0.67046  0.57278  1.0000
  C   C422      1.0  0.01279  0.57515  0.50633  1.0000
  C   C423      1.0  0.05929  0.68365  0.52509  1.0000
  C   C424      1.0  0.05486  0.51252  0.61044  1.0000
  C   C425      1.0  0.31791  0.98430  0.72344  1.0000
  H   H431      1.0  0.01688  0.58717  0.51400  1.0000
  H   H432      1.0  0.15831  0.69140  0.56086  1.0000
  C   C426      1.0  0.04179  0.63837  0.59186  1.0000
  S   S150      1.0  0.24806  0.79731  0.51492  1.0000
  C   C427      1.0  0.20010  0.69109  0.51514  1.0000
  C   C428      1.0  0.29412  0.78017  0.53089  1.0000
  H   H433      1.0  0.01684  0.51029  0.65490  1.0000
  N   N35       1.0  0.18261  0.67931  0.54547  1.0000
  H   H434      1.0  0.30284  0.79475  0.70184  1.0000
  H   H435      1.0  0.01822  0.55301  0.57736  1.0000
  H   H436      1.0  0.27704  0.78453  0.57137  1.0000
  H   H437      1.0  0.05319  0.70475  0.71935  1.0000
  H   H438      1.0  0.31346  0.80631  0.57753  1.0000
  C   C429      1.0  0.25078  0.77810  0.70539  1.0000
  H   H439      1.0  0.02291  0.71354  0.55299  1.0000
  Fe  Fe76      1.0  0.13787  0.66111  0.50186  1.0000
  C   C430      1.0  0.28751  0.78659  0.71308  1.0000
  N   N36       1.0  0.26753  0.79361  0.70922  1.0000
  C   C431      1.0  0.00384  0.64460  0.59246  1.0000
  C   C432      1.0  0.17899  0.65597  0.54556  1.0000
  H   H440      1.0  0.28426  0.76701  0.71660  1.0000
  S   S151      1.0  0.01148  0.59011  0.62500  1.0000
  H   H441      1.0  0.18492  0.74348  0.50290  1.0000
  H   H442      1.0  0.20801  0.70494  0.50323  1.0000
  H   H443      1.0  0.07516  0.63227  0.59048  1.0000
  C   C433      1.0  0.05257  0.68776  0.72741  1.0000
  H   H444      1.0  0.26102  0.77686  0.54747  1.0000
  C   C434      1.0  0.31777  0.78478  0.52917  1.0000
  H   H445      1.0  0.19557  0.71533  0.53035  1.0000
  C   C435      1.0  0.19591  0.66734  0.51506  1.0000
  H   H446      1.0  0.31371  0.98714  0.52101  1.0000
  Fe  Fe77      1.0  0.29629  0.87621  0.51477  1.0000
  C   C436      1.0  0.29867  0.93056  0.51757  1.0000
  C   C437      1.0  0.22968  0.80730  0.70216  1.0000
  H   H447      1.0  0.02835  0.65511  0.53185  1.0000
  H   H448      1.0  0.00989  0.70926  0.51477  1.0000
  S   S152      1.0  0.09775  0.72223  0.51463  1.0000
  S   S153      1.0  0.20355  0.73298  0.73807  1.0000
  H   H449      1.0  0.18061  0.77031  0.73825  1.0000
  H   H450      1.0  0.29159  0.79282  0.72408  1.0000
  C   C438      1.0  0.02275  0.68289  0.54342  1.0000
  H   H451      1.0  0.17045  0.64206  0.55733  1.0000
  C   C439      1.0  0.31088  0.97275  0.51506  1.0000
  H   H452      1.0  0.18743  0.70033  0.56280  1.0000
  C   C440      1.0  0.31547  0.96108  0.73251  1.0000
  C   C441      1.0  0.06095  0.62211  0.57067  1.0000
  H   H453      1.0  0.07549  0.61620  0.56522  1.0000
  C   C442      1.0  0.06012  0.65025  0.73050  1.0000
  S   S154      1.0  0.27820  0.86571  0.49581  1.0000
  N   N37       1.0  0.05964  0.67112  0.72029  1.0000
  H   H454      1.0  0.31915  0.89749  0.68422  1.0000
  H   H455      1.0  0.18150  0.63110  0.53037  1.0000
  C   C443      1.0  0.24698  0.82309  0.70587  1.0000
  H   H456      1.0  0.05610  0.53116  0.60822  1.0000
  N   N38       1.0  0.02341  0.63658  0.58502  1.0000
  C   C444      1.0  0.02357  0.62813  0.57097  1.0000
  H   H457      1.0  0.04219  0.61373  0.55262  1.0000
  N   N39       1.0  0.31181  0.78905  0.55775  1.0000
  C   C445      1.0  0.17416  0.68572  0.56123  1.0000
  H   H458      1.0  0.20256  0.76784  0.51997  1.0000
  C   C446      1.0  0.06852  0.67654  0.70167  1.0000
  H   H459      1.0  0.06684  0.66010  0.69731  1.0000
  H   H460      1.0  0.00798  0.66419  0.58765  1.0000
  C   C447      1.0  0.00279  0.58018  0.60833  1.0000
  H   H461      1.0  0.30477  0.91814  0.69140  1.0000
  S   S155      1.0  0.10528  0.66699  0.49673  1.0000
  C   C448      1.0  0.32298  0.00306  0.73080  1.0000
  H   H462      1.0  0.32303  0.93479  0.55669  1.0000
  H   H463      1.0  0.04801  0.73229  0.50058  1.0000
  H   H464      1.0  0.03577  0.50771  0.59193  1.0000
  H   H465      1.0  0.28725  0.77737  0.52025  1.0000
  H   H466      1.0  0.31687  0.77663  0.58216  1.0000
  C   C449      1.0  0.20298  0.79779  0.74512  1.0000
  C   C450      1.0  0.32633  0.78894  0.54287  1.0000
  C   C451      1.0  0.19641  0.77555  0.74189  1.0000
  C   C452      1.0  0.31545  0.97767  0.49729  1.0000
  C   C453      1.0  0.00903  0.69795  0.50578  1.0000
  H   H467      1.0  0.09023  0.80160  0.73835  1.0000
  H   H468      1.0  0.32915  0.91300  0.69864  1.0000
  Fe  Fe78      1.0  0.32956  0.84728  0.50856  1.0000
  H   H469      1.0  0.99716  0.70239  0.49810  1.0000
  H   H470      1.0  0.99967  0.63926  0.60666  1.0000
  H   H471      1.0  0.32987  0.85276  0.54302  1.0000
  C   C454      1.0  0.08936  0.76475  0.74534  1.0000
  H   H472      1.0  0.32954  0.78575  0.51716  1.0000
  C   C455      1.0  0.00748  0.50622  0.64572  1.0000
  C   C456      1.0  0.99747  0.52258  0.63790  1.0000
  C   C457      1.0  0.04546  0.68356  0.74520  1.0000
  Fe  Fe79      1.0  0.24653  0.87525  0.95274  1.0000
  S   S156      1.0  0.27388  0.88190  0.96659  1.0000
  S   S157      1.0  0.21796  0.84092  0.96076  1.0000
  Fe  Fe80      1.0  0.26679  0.92337  0.92711  1.0000
  S   S158      1.0  0.26144  0.94713  0.90448  1.0000
  H   H473      1.0  0.29332  0.84381  0.95561  1.0000
  Fe  Fe81      1.0  0.26926  0.91842  0.96380  1.0000
  H   H474      1.0  0.05749  0.51691  0.81288  1.0000
  S   S159      1.0  0.27136  0.88755  0.92682  1.0000
  S   S160      1.0  0.23960  0.91045  0.95219  1.0000
  Fe  Fe82      1.0  0.14706  0.76878  0.91376  1.0000
  S   S161      1.0  0.13637  0.73879  0.93752  1.0000
  S   S162      1.0  0.18156  0.79693  0.90516  1.0000
  Fe  Fe83      1.0  0.10121  0.75252  0.90520  1.0000
  S   S163      1.0  0.08629  0.72196  0.92887  1.0000
  S   S164      1.0  0.08359  0.76119  0.88448  1.0000
  Fe  Fe84      1.0  0.10249  0.74746  0.94206  1.0000
  Fe  Fe85      1.0  0.12124  0.71598  0.92218  1.0000
  S   S165      1.0  0.12674  0.67990  0.92317  1.0000
  S   S166      1.0  0.11405  0.77892  0.91906  1.0000
  S   S167      1.0  0.13537  0.74511  0.89774  1.0000
  Fe  Fe86      1.0  0.06350  0.58473  0.88909  1.0000
  S   S168      1.0  0.04581  0.54941  0.88601  1.0000
  S   S169      1.0  0.05084  0.60053  0.91026  1.0000
  Fe  Fe87      1.0  0.09708  0.59975  0.85437  1.0000
  S   S170      1.0  0.08318  0.56618  0.84794  1.0000
  S   S171      1.0  0.12513  0.62983  0.83541  1.0000
  Fe  Fe88      1.0  0.04854  0.56972  0.85943  1.0000
  S   S172      1.0  0.02321  0.67715  0.86413  1.0000
  Fe  Fe89      1.0  0.08161  0.54795  0.87467  1.0000
  S   S173      1.0  0.06246  0.60513  0.86358  1.0000
  S   S174      1.0  0.09932  0.58156  0.88017  1.0000
  H   H475      1.0  0.05772  0.79756  0.76299  1.0000
  C   C458      1.0  0.10508  0.69746  0.97994  1.0000
  S   S175      1.0  0.03012  0.69305  0.81476  1.0000
  H   H476      1.0  0.16345  0.78604  0.94211  1.0000
  H   H477      1.0  0.04374  0.67759  0.89205  1.0000
  H   H478      1.0  0.26283  0.83071  0.96431  1.0000
  C   C459      1.0  0.28809  0.95705  0.98784  1.0000
  H   H479      1.0  0.07903  0.58142  0.79862  1.0000
  C   C460      1.0  0.05233  0.76012  0.77327  1.0000
  C   C461      1.0  0.05975  0.74026  0.77111  1.0000
  H   H480      1.0  0.14519  0.58377  0.80756  1.0000
  C   C462      1.0  0.05293  0.64540  0.74831  1.0000
  Fe  Fe90      1.0  0.29830  0.89733  0.94031  1.0000
  C   C463      1.0  0.17748  0.75870  0.78680  1.0000
  H   H481      1.0  0.05122  0.72314  0.78014  1.0000
  C   C464      1.0  0.09056  0.57216  0.80339  1.0000
  H   H482      1.0  0.11919  0.60396  0.79519  1.0000
  H   H483      1.0  0.32589  0.87971  0.87847  1.0000
  C   C465      1.0  0.11646  0.63805  0.81683  1.0000
  C   C466      1.0  0.09412  0.62745  0.81631  1.0000
  C   C467      1.0  0.08743  0.63343  0.80128  1.0000
  C   C468      1.0  0.10308  0.64993  0.78671  1.0000
  C   C469      1.0  0.12533  0.66080  0.78726  1.0000
  C   C470      1.0  0.13200  0.65488  0.80236  1.0000
  H   H484      1.0  0.08203  0.61438  0.82736  1.0000
  H   H485      1.0  0.07015  0.62512  0.80090  1.0000
  H   H486      1.0  0.02313  0.68060  0.98588  1.0000
  H   H487      1.0  0.14932  0.66303  0.80271  1.0000
  Fe  Fe91      1.0  0.00899  0.68709  0.84161  1.0000
  C   C471      1.0  0.02390  0.60510  0.83287  1.0000
  H   H488      1.0  0.20338  0.78563  0.79121  1.0000
  Fe  Fe92      1.0  0.31064  0.86432  0.76395  1.0000
  N   N40       1.0  0.06611  0.65869  0.99148  1.0000
  H   H489      1.0  0.05397  0.62917  0.75641  1.0000
  H   H490      1.0  0.03368  0.60931  0.84165  1.0000
  H   H491      1.0  0.27293  0.80800  0.89891  1.0000
  C   C472      1.0  0.11996  0.54946  0.81662  1.0000
  H   H492      1.0  0.31238  0.88839  0.90599  1.0000
  C   C473      1.0  0.05160  0.71244  0.97752  1.0000
  H   H493      1.0  0.11560  0.74783  0.77705  1.0000
  C   C474      1.0  0.09737  0.53696  0.81792  1.0000
  H   H494      1.0  0.05581  0.71193  0.96434  1.0000
  H   H495      1.0  0.13136  0.77069  0.75755  1.0000
  C   C475      1.0  0.10550  0.65829  0.91928  1.0000
  C   C476      1.0  0.08362  0.66113  0.91931  1.0000
  C   C477      1.0  0.06691  0.64334  0.91653  1.0000
  C   C478      1.0  0.07221  0.62299  0.91315  1.0000
  C   C479      1.0  0.09424  0.62041  0.91273  1.0000
  C   C480      1.0  0.11068  0.63781  0.91609  1.0000
  H   H496      1.0  0.07941  0.67682  0.92171  1.0000
  H   H497      1.0  0.04989  0.64543  0.91692  1.0000
  H   H498      1.0  0.09838  0.60462  0.91037  1.0000
  H   H499      1.0  0.12754  0.63546  0.91610  1.0000
  C   C481      1.0  0.06591  0.73768  0.87955  1.0000
  C   C482      1.0  0.06083  0.71417  0.88925  1.0000
  C   C483      1.0  0.04737  0.69571  0.88459  1.0000
  C   C484      1.0  0.03895  0.70067  0.87023  1.0000
  C   C485      1.0  0.04392  0.72416  0.86059  1.0000
  C   C486      1.0  0.05732  0.74259  0.86527  1.0000
  H   H500      1.0  0.06743  0.71018  0.90023  1.0000
  H   H501      1.0  0.03761  0.72815  0.84944  1.0000
  H   H502      1.0  0.06120  0.76075  0.85773  1.0000
  C   C487      1.0  0.28038  0.94971  0.88474  1.0000
  C   C488      1.0  0.29246  0.93290  0.88279  1.0000
  C   C489      1.0  0.30742  0.93522  0.86690  1.0000
  C   C490      1.0  0.31077  0.95468  0.85304  1.0000
  C   C491      1.0  0.29887  0.97160  0.85500  1.0000
  C   C492      1.0  0.28347  0.96894  0.87078  1.0000
  H   H503      1.0  0.29026  0.91808  0.89344  1.0000
  C   C493      1.0  0.05889  0.53525  0.81408  1.0000
  C   C494      1.0  0.06465  0.73068  0.98249  1.0000
  C   C495      1.0  0.19154  0.80871  0.92080  1.0000
  C   C496      1.0  0.21199  0.82729  0.91573  1.0000
  C   C497      1.0  0.21996  0.83766  0.92780  1.0000
  C   C498      1.0  0.20792  0.82905  0.94512  1.0000
  C   C499      1.0  0.18763  0.81026  0.95021  1.0000
  C   C500      1.0  0.17931  0.80029  0.93808  1.0000
  H   H504      1.0  0.22150  0.83392  0.90237  1.0000
  H   H505      1.0  0.23558  0.85207  0.92366  1.0000
  H   H506      1.0  0.17816  0.80346  0.96358  1.0000
  H   H507      1.0  0.07566  0.65343  0.96657  1.0000
  C   C501      1.0  0.32448  0.98977  0.99344  1.0000
  S   S176      1.0  0.08887  0.75221  0.96804  1.0000
  N   N41       1.0  0.27735  0.82249  0.94144  1.0000
  C   C502      1.0  0.32590  0.99895  0.74728  1.0000
  H   H508      1.0  0.27417  0.98199  0.87224  1.0000
  H   H509      1.0  0.20921  0.88327  0.87932  1.0000
  S   S177      1.0  0.02938  0.75814  0.79061  1.0000
  H   H510      1.0  0.14819  0.80797  0.77537  1.0000
  H   H511      1.0  0.04872  0.53422  0.82709  1.0000
  C   C503      1.0  0.06338  0.78217  0.76141  1.0000
  H   H512      1.0  0.11024  0.68779  0.95614  1.0000
  H   H513      1.0  0.04052  0.69703  0.75084  1.0000
  C   C504      1.0  0.25685  0.80935  0.94032  1.0000
  H   H514      1.0  0.30148  0.98673  0.84437  1.0000
  C   C505      1.0  0.31032  0.96353  0.97680  1.0000
  C   C506      1.0  0.27906  0.82757  0.95767  1.0000
  C   C507      1.0  0.12787  0.57370  0.80839  1.0000
  H   H515      1.0  0.32921  0.81033  0.81407  1.0000
  H   H516      1.0  0.31042  0.83103  0.90139  1.0000
  C   C508      1.0  0.03313  0.69474  0.98972  1.0000
  H   H517      1.0  0.16673  0.88305  0.94865  1.0000
  C   C509      1.0  0.12603  0.76669  0.77173  1.0000
  Fe  Fe93      1.0  0.01306  0.72178  0.80839  1.0000
  S   S178      1.0  0.02156  0.55845  0.84622  1.0000
  C   C510      1.0  0.99807  0.59450  0.81021  1.0000
  C   C511      1.0  0.32266  0.91293  0.81383  1.0000
  H   H518      1.0  0.09125  0.51819  0.82457  1.0000
  H   H519      1.0  0.15001  0.73641  0.78057  1.0000
  H   H520      1.0  0.05538  0.51605  0.86091  1.0000
  H   H521      1.0  0.16093  0.84553  0.92791  1.0000
  S   S179      1.0  0.29589  0.93444  0.93853  1.0000
  N   N42       1.0  0.09529  0.67872  0.85692  1.0000
  C   C512      1.0  0.10607  0.66377  0.86467  1.0000
  C   C513      1.0  0.09791  0.70099  0.85918  1.0000
  C   C514      1.0  0.12018  0.67112  0.87476  1.0000
  C   C515      1.0  0.11161  0.70878  0.86942  1.0000
  C   C516      1.0  0.12278  0.69369  0.87726  1.0000
  C   C517      1.0  0.07998  0.67026  0.84688  1.0000
  H   H522      1.0  0.10376  0.64600  0.86313  1.0000
  H   H523      1.0  0.08899  0.71271  0.85338  1.0000
  H   H524      1.0  0.12874  0.65921  0.88083  1.0000
  H   H525      1.0  0.11311  0.72625  0.87152  1.0000
  H   H526      1.0  0.13320  0.69931  0.88546  1.0000
  H   H527      1.0  0.07591  0.68507  0.83870  1.0000
  H   H528      1.0  0.08813  0.66066  0.83838  1.0000
  H   H529      1.0  0.06345  0.65811  0.85562  1.0000
  N   N43       1.0  0.14654  0.77147  0.77805  1.0000
  C   C518      1.0  0.15707  0.75400  0.78178  1.0000
  C   C519      1.0  0.07838  0.74259  0.75718  1.0000
  H   H530      1.0  0.11450  0.77767  0.77536  1.0000
  S   S180      1.0  0.13682  0.72094  0.75203  1.0000
  C   C520      1.0  0.01785  0.62311  0.82261  1.0000
  H   H531      1.0  0.08422  0.72730  0.75560  1.0000
  H   H532      1.0  0.13104  0.54047  0.82229  1.0000
  C   C521      1.0  0.22361  0.80496  0.74959  1.0000
  Fe  Fe94      1.0  0.12082  0.68640  0.74742  1.0000
  Fe  Fe95      1.0  0.99828  0.66951  0.81187  1.0000
  H   H533      1.0  0.28228  0.81240  0.96609  1.0000
  C   C522      1.0  0.17634  0.79917  0.78403  1.0000
  H   H534      1.0  0.18614  0.74500  0.78923  1.0000
  C   C523      1.0  0.27426  0.81187  0.91089  1.0000
  H   H535      1.0  0.13753  0.67341  0.77596  1.0000
  H   H536      1.0  0.22949  0.91136  0.89315  1.0000
  H   H537      1.0  0.19356  0.87802  0.95177  1.0000
  S   S181      1.0  0.09477  0.65607  0.76782  1.0000
  H   H538      1.0  0.17468  0.85021  0.89696  1.0000
  C   C524      1.0  0.18711  0.78144  0.78796  1.0000
  H   H539      1.0  0.03773  0.63560  0.98697  1.0000
  H   H540      1.0  0.31370  0.95551  0.96639  1.0000
  S   S182      1.0  0.26558  0.93414  0.98641  1.0000
  H   H541      1.0  0.31678  0.92221  0.86547  1.0000
  H   H542      1.0  0.31618  0.93872  0.75616  1.0000
  S   S183      1.0  0.09087  0.51332  0.87832  1.0000
  C   C525      1.0  0.29651  0.82984  0.92779  1.0000
  C   C526      1.0  0.32367  0.97570  0.75648  1.0000
  H   H543      1.0  0.32569  0.97240  0.76930  1.0000
  N   N44       1.0  0.08299  0.54835  0.81137  1.0000
  H   H544      1.0  0.21518  0.90608  0.92410  1.0000
  H   H545      1.0  0.17034  0.85344  0.95325  1.0000
  C   C527      1.0  0.32841  0.97993  0.97955  1.0000
  C   C528      1.0  0.07990  0.66401  0.97516  1.0000
  C   C529      1.0  0.01649  0.58166  0.83215  1.0000
  C   C530      1.0  0.29523  0.82484  0.91227  1.0000
  H   H546      1.0  0.31075  0.92422  0.81521  1.0000
  C   C531      1.0  0.15603  0.79389  0.77895  1.0000
  S   S184      1.0  0.28126  0.88036  0.76239  1.0000
  H   H547      1.0  0.05101  0.54404  0.80464  1.0000
  N   N45       1.0  0.18738  0.87534  0.92786  1.0000
  C   C532      1.0  0.17578  0.86023  0.92031  1.0000
  C   C533      1.0  0.20620  0.89375  0.91824  1.0000
  C   C534      1.0  0.18343  0.86287  0.90274  1.0000
  C   C535      1.0  0.21435  0.89689  0.90065  1.0000
  C   C536      1.0  0.20292  0.88126  0.89290  1.0000
  C   C537      1.0  0.17901  0.87240  0.94626  1.0000
  S   S185      1.0  0.23063  0.83235  0.75459  1.0000
  H   H548      1.0  0.18430  0.81714  0.78419  1.0000
  H   H549      1.0  0.31290  0.83977  0.92882  1.0000
  C   C538      1.0  0.11321  0.58509  0.80154  1.0000
  C   C539      1.0  0.08176  0.78446  0.74746  1.0000
  Fe  Fe96      1.0  0.26825  0.85101  0.75083  1.0000
  C   C540      1.0  0.00221  0.58638  0.89233  1.0000
  H   H550      1.0  0.02916  0.63412  0.89036  1.0000
  C   C541      1.0  0.31833  0.95670  0.74909  1.0000
  C   C542      1.0  0.25498  0.80386  0.92504  1.0000
  H   H551      1.0  0.23854  0.79379  0.92412  1.0000
  C   C543      1.0  0.09955  0.68347  0.96915  1.0000
  H   H552      1.0  0.32316  0.97282  0.90565  1.0000
  H   H553      1.0  0.32626  0.90722  0.82638  1.0000
  C   C544      1.0  0.04561  0.66219  0.75568  1.0000
  H   H554      1.0  0.04076  0.65887  0.76951  1.0000
  H   H555      1.0  0.02327  0.64109  0.82348  1.0000
  S   S186      1.0  0.32195  0.86081  0.78831  1.0000
  H   H556      1.0  0.31404  0.89667  0.81072  1.0000
  H   H557      1.0  0.24169  0.80335  0.95120  1.0000
  N   N46       1.0  0.00036  0.60906  0.88854  1.0000
  S   S187      1.0  0.29562  0.83310  0.75478  1.0000
  H   H558      1.0  0.32823  0.92134  0.78041  1.0000
  H   H559      1.0  0.11976  0.71315  0.97526  1.0000
  C   C545      1.0  0.23768  0.78973  0.75079  1.0000
  H   H560      1.0  0.25345  0.79494  0.75442  1.0000
  H   H561      1.0  0.24201  0.75574  0.74857  1.0000
  C   C546      1.0  0.00490  0.61781  0.81130  1.0000
  C   C547      1.0  0.23108  0.76747  0.74760  1.0000
  H   H562      1.0  0.01065  0.58062  0.90197  1.0000
  H   H563      1.0  0.00915  0.61692  0.91062  1.0000
  C   C548      1.0  0.01059  0.62590  0.89715  1.0000
  H   H564      1.0  0.00199  0.64028  0.89731  1.0000
  C   C549      1.0  0.32909  0.88548  0.90269  1.0000
  C   C550      1.0  0.00363  0.57639  0.82078  1.0000
  H   H565      1.0  0.99780  0.55826  0.82024  1.0000
  H   H566      1.0  0.45623  0.42297  0.16041  1.0000
  H   H567      1.0  0.43971  0.01505  0.10370  1.0000
  H   H568      1.0  0.38616  0.18147  0.01842  1.0000
  C   C551      1.0  0.39527  0.31883  0.22305  1.0000
  H   H569      1.0  0.36140  0.31891  0.23672  1.0000
  C   C552      1.0  0.41909  0.12057  0.07032  1.0000
  H   H570      1.0  0.59908  0.04845  0.10944  1.0000
  C   C553      1.0  0.35146  0.16566  0.01782  1.0000
  S   S188      1.0  0.35810  0.21134  0.05088  1.0000
  Fe  Fe97      1.0  0.39980  0.24126  0.07473  1.0000
  S   S189      1.0  0.37674  0.20389  0.08535  1.0000
  S   S190      1.0  0.42014  0.25272  0.09288  1.0000
  Fe  Fe98      1.0  0.38709  0.19971  0.05892  1.0000
  S   S191      1.0  0.39787  0.16850  0.05218  1.0000
  C   C554      1.0  0.40357  0.02325  0.07856  1.0000
  H   H571      1.0  0.37916  0.24529  0.20746  1.0000
  S   S192      1.0  0.41271  0.23580  0.04881  1.0000
  S   S193      1.0  0.37226  0.25666  0.06740  1.0000
  C   C555      1.0  0.42323  0.01966  0.08330  1.0000
  Fe  Fe99      1.0  0.49987  0.39523  0.13609  1.0000
  S   S194      1.0  0.49931  0.36346  0.12562  1.0000
  S   S195      1.0  0.52911  0.42966  0.12633  1.0000
  Fe  Fe100     1.0  0.45139  0.37244  0.15980  1.0000
  S   S196      1.0  0.44654  0.33889  0.15169  1.0000
  S   S197      1.0  0.42706  0.37823  0.18166  1.0000
  Fe  Fe101     1.0  0.48292  0.34198  0.15286  1.0000
  S   S198      1.0  0.48897  0.30750  0.16455  1.0000
  Fe  Fe102     1.0  0.46289  0.36249  0.12510  1.0000
  S   S199      1.0  0.44927  0.35604  0.10266  1.0000
  S   S200      1.0  0.48646  0.37361  0.16342  1.0000
  S   S201      1.0  0.46468  0.39633  0.13309  1.0000
  C   C556      1.0  0.61248  0.05613  0.11486  1.0000
  C   C557      1.0  0.47233  0.43306  0.16175  1.0000
  N   N47       1.0  0.33322  0.01382  0.20528  1.0000
  H   H572      1.0  0.43845  0.04702  0.19956  1.0000
  C   C558      1.0  0.33593  0.12206  0.05836  1.0000
  S   S202      1.0  0.38698  0.27109  0.01620  1.0000
  C   C559      1.0  0.33992  0.25716  0.02161  1.0000
  S   S203      1.0  0.36507  0.04924  0.02822  1.0000
  H   H573      1.0  0.46351  0.26580  0.22553  1.0000
  Fe  Fe103     1.0  0.64674  0.00963  0.19310  1.0000
  H   H574      1.0  0.34325  0.30916  0.21416  1.0000
  C   C560      1.0  0.39765  0.37044  0.18247  1.0000
  C   C561      1.0  0.38957  0.36001  0.17053  1.0000
  C   C562      1.0  0.36573  0.35298  0.17212  1.0000
  C   C563      1.0  0.35008  0.35660  0.18554  1.0000
  C   C564      1.0  0.35835  0.36766  0.19711  1.0000
  C   C565      1.0  0.38202  0.37435  0.19567  1.0000
  H   H575      1.0  0.40162  0.35726  0.16015  1.0000
  H   H576      1.0  0.35950  0.34520  0.16281  1.0000
  H   H577      1.0  0.34635  0.37066  0.20741  1.0000
  H   H578      1.0  0.38821  0.38252  0.20487  1.0000
  C   C566      1.0  0.49976  0.43957  0.17821  1.0000
  C   C567      1.0  0.38686  0.02447  0.10745  1.0000
  C   C568      1.0  0.36136  0.26892  0.00983  1.0000
  C   C569      1.0  0.54133  0.02575  0.16339  1.0000
  C   C570      1.0  0.48097  0.30272  0.22109  1.0000
  C   C571      1.0  0.47240  0.28246  0.21604  1.0000
  C   C572      1.0  0.47567  0.28368  0.19860  1.0000
  C   C573      1.0  0.48723  0.30524  0.18621  1.0000
  C   C574      1.0  0.49627  0.32529  0.19129  1.0000
  C   C575      1.0  0.49325  0.32401  0.20867  1.0000
  H   H579      1.0  0.44253  0.01322  0.18786  1.0000
  H   H580      1.0  0.46884  0.26807  0.19472  1.0000
  H   H581      1.0  0.50595  0.34173  0.18179  1.0000
  H   H582      1.0  0.50018  0.33964  0.21249  1.0000
  H   H583      1.0  0.34788  0.15439  0.06536  1.0000
  C   C576      1.0  0.35284  0.14174  0.05886  1.0000
  H   H584      1.0  0.43695  0.31242  0.21859  1.0000
  C   C577      1.0  0.43308  0.02925  0.20802  1.0000
  C   C578      1.0  0.64694  0.07534  0.12870  1.0000
  C   C579      1.0  0.58503  0.07217  0.13149  1.0000
  H   H585      1.0  0.42437  0.07832  0.04939  1.0000
  H   H586      1.0  0.35008  0.22922  0.99859  1.0000
  H   H587      1.0  0.40310  0.32325  0.23288  1.0000
  C   C580      1.0  0.47895  0.42651  0.17668  1.0000
  C   C581      1.0  0.35833  0.08144  0.08584  1.0000
  C   C582      1.0  0.52600  0.01680  0.15446  1.0000
  S   S204      1.0  0.34796  0.00867  0.99742  1.0000
  C   C583      1.0  0.42505  0.28132  0.09617  1.0000
  C   C584      1.0  0.42887  0.28425  0.11176  1.0000
  C   C585      1.0  0.43578  0.30703  0.11407  1.0000
  C   C586      1.0  0.43889  0.32709  0.10079  1.0000
  C   C587      1.0  0.43413  0.32412  0.08546  1.0000
  C   C588      1.0  0.42721  0.30131  0.08314  1.0000
  H   H588      1.0  0.42695  0.26886  0.12199  1.0000
  H   H589      1.0  0.43920  0.30909  0.12598  1.0000
  H   H590      1.0  0.43639  0.33957  0.07516  1.0000
  H   H591      1.0  0.42437  0.29927  0.07106  1.0000
  C   C589      1.0  0.37611  0.14477  0.05116  1.0000
  C   C590      1.0  0.38233  0.12829  0.04274  1.0000
  C   C591      1.0  0.36547  0.10853  0.04239  1.0000
  C   C592      1.0  0.42959  0.10865  0.05969  1.0000
  C   C593      1.0  0.63464  0.05366  0.10936  1.0000
  Fe  Fe104     1.0  0.61430  0.02120  0.17178  1.0000
  H   H592      1.0  0.40030  0.13069  0.03662  1.0000
  H   H593      1.0  0.37047  0.09589  0.03593  1.0000
  N   N48       1.0  0.50711  0.46522  0.15006  1.0000
  H   H594      1.0  0.38507  0.22268  0.00622  1.0000
  H   H595      1.0  0.35042  0.09585  0.08798  1.0000
  N   N49       1.0  0.60774  0.06797  0.12695  1.0000
  C   C594      1.0  0.57710  0.45812  0.15739  1.0000
  C   C595      1.0  0.56066  0.43581  0.16430  1.0000
  C   C596      1.0  0.54638  0.42646  0.15475  1.0000
  C   C597      1.0  0.54843  0.43935  0.13814  1.0000
  C   C598      1.0  0.56531  0.46138  0.13106  1.0000
  C   C599      1.0  0.57946  0.47083  0.14066  1.0000
  H   H596      1.0  0.55882  0.42576  0.17718  1.0000
  H   H597      1.0  0.53361  0.40944  0.16034  1.0000
  H   H598      1.0  0.56724  0.47136  0.11814  1.0000
  H   H599      1.0  0.59218  0.48791  0.13514  1.0000
  Fe  Fe105     1.0  0.38280  0.24782  0.04244  1.0000
  C   C600      1.0  0.42325  0.02543  0.22548  1.0000
  N   N50       1.0  0.47879  0.27366  0.10391  1.0000
  H   H600      1.0  0.35633  0.06896  0.09833  1.0000
  N   N51       1.0  0.37471  0.29800  0.11669  1.0000
  C   C601      1.0  0.37138  0.28125  0.10790  1.0000
  C   C602      1.0  0.37304  0.29139  0.13378  1.0000
  C   C603      1.0  0.36664  0.25718  0.11616  1.0000
  C   C604      1.0  0.36795  0.26743  0.14253  1.0000
  C   C605      1.0  0.36482  0.25027  0.13360  1.0000
  C   C606      1.0  0.37877  0.32309  0.10809  1.0000
  H   H601      1.0  0.37237  0.28641  0.09441  1.0000
  H   H602      1.0  0.37547  0.30470  0.14074  1.0000
  H   H603      1.0  0.36420  0.24399  0.10908  1.0000
  C   C607      1.0  0.42448  0.01787  0.10017  1.0000
  C   C608      1.0  0.38531  0.02550  0.09074  1.0000
  H   H604      1.0  0.36233  0.32801  0.11093  1.0000
  H   H605      1.0  0.39184  0.33454  0.11246  1.0000
  H   H606      1.0  0.38552  0.32685  0.09402  1.0000
  N   N52       1.0  0.40824  0.31550  0.20870  1.0000
  H   H607      1.0  0.63833  0.04402  0.09994  1.0000
  C   C609      1.0  0.39834  0.31002  0.19628  1.0000
  H   H608      1.0  0.44231  0.33826  0.20093  1.0000
  C   C610      1.0  0.37480  0.30734  0.19818  1.0000
  H   H609      1.0  0.57139  0.05796  0.12981  1.0000
  S   S205      1.0  0.41904  0.04948  0.23325  1.0000
  H   H610      1.0  0.38753  0.12094  0.08691  1.0000
  H   H611      1.0  0.40866  0.30781  0.18477  1.0000
  C   C611      1.0  0.43536  0.01007  0.20137  1.0000
  C   C612      1.0  0.35031  0.21136  0.00408  1.0000
  C   C613      1.0  0.37171  0.31653  0.22527  1.0000
  S   S206      1.0  0.45698  0.00596  0.15599  1.0000
  C   C614      1.0  0.34484  0.24907  0.21459  1.0000
  C   C615      1.0  0.62456  0.07736  0.13397  1.0000
  C   C616      1.0  0.46937  0.24803  0.10686  1.0000
  H   H612      1.0  0.48286  0.27015  0.12913  1.0000
  H   H613      1.0  0.48064  0.23831  0.11228  1.0000
  H   H614      1.0  0.45178  0.24193  0.11582  1.0000
  H   H615      1.0  0.46775  0.24329  0.09485  1.0000
  H   H616      1.0  0.34845  0.07191  0.07840  1.0000
  H   H617      1.0  0.36619  0.26221  0.15618  1.0000
  N   N53       1.0  0.38283  0.09112  0.07656  1.0000
  Fe  Fe106     1.0  0.36875  0.02362  0.05074  1.0000
  H   H618      1.0  0.44008  0.30938  0.19735  1.0000
  H   H619      1.0  0.58532  0.08949  0.12335  1.0000
  C   C617      1.0  0.43309  0.31907  0.20628  1.0000
  S   S207      1.0  0.63479  0.01420  0.14867  1.0000
  C   C618      1.0  0.41649  0.08788  0.05758  1.0000
  H   H620      1.0  0.37277  0.02644  0.11675  1.0000
  H   H621      1.0  0.36080  0.23163  0.14018  1.0000
  C   C619      1.0  0.39076  0.19007  0.23798  1.0000
  S   S208      1.0  0.58172  0.03274  0.17272  1.0000
  H   H622      1.0  0.48193  0.45684  0.13662  1.0000
  C   C620      1.0  0.37200  0.25325  0.23185  1.0000
  H   H623      1.0  0.35776  0.18304  0.22213  1.0000
  H   H624      1.0  0.53833  0.49352  0.13835  1.0000
  H   H625      1.0  0.66026  0.08262  0.13435  1.0000
  H   H626      1.0  0.36691  0.30282  0.18840  1.0000
  S   S209      1.0  0.59361  0.46949  0.17042  1.0000
  C   C621      1.0  0.48472  0.28218  0.11687  1.0000
  H   H627      1.0  0.47485  0.28230  0.07862  1.0000
  H   H628      1.0  0.38285  0.06364  0.06398  1.0000
  C   C622      1.0  0.48682  0.45240  0.14842  1.0000
  C   C623      1.0  0.56297  0.02131  0.16128  1.0000
  C   C624      1.0  0.48052  0.28896  0.08863  1.0000
  H   H629      1.0  0.38979  0.17089  0.24066  1.0000
  C   C625      1.0  0.51361  0.45916  0.16476  1.0000
  C   C626      1.0  0.39297  0.07943  0.06607  1.0000
  C   C627      1.0  0.48847  0.31348  0.08603  1.0000
  Fe  Fe107     1.0  0.35006  0.21896  0.07638  1.0000
  H   H630      1.0  0.52998  0.46894  0.16594  1.0000
  Fe  Fe108     1.0  0.62081  0.50498  0.16444  1.0000
  H   H631      1.0  0.37001  0.02807  0.08737  1.0000
  C   C628      1.0  0.40628  0.02026  0.11228  1.0000
  C   C629      1.0  0.49281  0.30659  0.11468  1.0000
  H   H632      1.0  0.48900  0.32561  0.07417  1.0000
  H   H633      1.0  0.50014  0.34132  0.09738  1.0000
  H   H634      1.0  0.50932  0.02023  0.15617  1.0000
  S   S210      1.0  0.64524  0.04377  0.17679  1.0000
  H   H635      1.0  0.53634  0.03603  0.17203  1.0000
  C   C630      1.0  0.49461  0.32230  0.09915  1.0000
  H   H636      1.0  0.49717  0.31320  0.12512  1.0000
  C   C631      1.0  0.34224  0.10527  0.05030  1.0000
  S   S211      1.0  0.40249  0.02498  0.05734  1.0000
  C   C632      1.0  0.39561  0.11134  0.07889  1.0000
  H   H637      1.0  0.34686  0.04140  0.21590  1.0000
  H   H638      1.0  0.52603  0.47965  0.12405  1.0000
  C   C633      1.0  0.36652  0.24874  0.21707  1.0000
  H   H639      1.0  0.37944  0.02610  0.22094  1.0000
  H   H640      1.0  0.58002  0.07223  0.14515  1.0000
  C   C634      1.0  0.52174  0.48554  0.13586  1.0000
  Fe  Fe109     1.0  0.34371  0.01714  0.02303  1.0000
  S   S212      1.0  0.65376  0.50470  0.17209  1.0000
  S   S213      1.0  0.33698  0.02431  0.06917  1.0000
  H   H641      1.0  0.43747  0.01800  0.07394  1.0000
  H   H642      1.0  0.33886  0.25064  0.03500  1.0000
  H   H643      1.0  0.50538  0.43434  0.18959  1.0000
  H   H644      1.0  0.44778  0.11560  0.05298  1.0000
  H   H645      1.0  0.38881  0.25328  0.23352  1.0000
  H   H646      1.0  0.42890  0.13714  0.07168  1.0000
  C   C635      1.0  0.36148  0.31086  0.21269  1.0000
  C   C636      1.0  0.37030  0.20767  0.00812  1.0000
  N   N54       1.0  0.36758  0.19292  0.24330  1.0000
  S   S214      1.0  0.40694  0.01725  0.13363  1.0000
  C   C637      1.0  0.36732  0.01694  0.21514  1.0000
  H   H647      1.0  0.46805  0.41112  0.18691  1.0000
  C   C638      1.0  0.37085  0.18461  0.01502  1.0000
  S   S215      1.0  0.33820  0.24354  0.19602  1.0000
  S   S216      1.0  0.33205  0.29763  0.16725  1.0000
  H   H648      1.0  0.62071  0.08638  0.14378  1.0000
  C   C639      1.0  0.33403  0.25794  0.24183  1.0000
  C   C640      1.0  0.33150  0.17010  0.01415  1.0000
  H   H649      1.0  0.65173  0.48752  0.23381  1.0000
  H   H650      1.0  0.48383  0.00926  0.19734  1.0000
  H   H651      1.0  0.35172  0.14765  0.02308  1.0000
  C   C641      1.0  0.34893  0.02559  0.21217  1.0000
  C   C642      1.0  0.65201  0.06356  0.11622  1.0000
  C   C643      1.0  0.35249  0.18825  0.23374  1.0000
  H   H652      1.0  0.51265  0.49940  0.13366  1.0000
  H   H653      1.0  0.39872  0.19879  0.22413  1.0000
  C   C644      1.0  0.35566  0.25762  0.24435  1.0000
  Fe  Fe110     1.0  0.33199  0.04814  0.04635  1.0000
  C   C645      1.0  0.56942  0.00829  0.14993  1.0000
  H   H654      1.0  0.49841  0.00993  0.21379  1.0000
  S   S217      1.0  0.47596  0.30213  0.24278  1.0000
  N   N55       1.0  0.33121  0.19277  0.00720  1.0000
  H   H655      1.0  0.40247  0.19821  0.24495  1.0000
  H   H656      1.0  0.66320  0.05409  0.20854  1.0000
  H   H657      1.0  0.66126  0.46225  0.24237  1.0000
  C   C646      1.0  0.33022  0.19071  0.23854  1.0000
  C   C647      1.0  0.44870  0.02205  0.43358  1.0000
  S   S218      1.0  0.38117  0.05788  0.47877  1.0000
  H   H658      1.0  0.37029  0.02190  0.45664  1.0000
  S   S219      1.0  0.43635  0.03366  0.48027  1.0000
  Fe  Fe111     1.0  0.45341  0.01387  0.39156  1.0000
  S   S220      1.0  0.34501  0.09623  0.27801  1.0000
  H   H659      1.0  0.46375  0.42363  0.42729  1.0000
  H   H660      1.0  0.51466  0.25251  0.45332  1.0000
  Fe  Fe112     1.0  0.63132  0.03208  0.40866  1.0000
  H   H661      1.0  0.45212  0.00621  0.45838  1.0000
  N   N56       1.0  0.50957  0.26101  0.47724  1.0000
  H   H662      1.0  0.49304  0.25921  0.29740  1.0000
  H   H663      1.0  0.38836  0.28683  0.35501  1.0000
  C   C648      1.0  0.41582  0.35380  0.34719  1.0000
  H   H664      1.0  0.49355  0.26457  0.31776  1.0000
  Fe  Fe113     1.0  0.42113  0.22031  0.27539  1.0000
  Fe  Fe114     1.0  0.44524  0.27296  0.25999  1.0000
  S   S221      1.0  0.41778  0.28401  0.27601  1.0000
  Fe  Fe115     1.0  0.41894  0.25511  0.29746  1.0000
  S   S222      1.0  0.41986  0.25946  0.32379  1.0000
  Fe  Fe116     1.0  0.39334  0.25541  0.26988  1.0000
  S   S223      1.0  0.44832  0.24599  0.28183  1.0000
  S   S224      1.0  0.59320  0.02568  0.42046  1.0000
  H   H665      1.0  0.39792  0.30616  0.39277  1.0000
  H   H666      1.0  0.34512  0.13921  0.28767  1.0000
  Fe  Fe117     1.0  0.47745  0.35991  0.35955  1.0000
  S   S225      1.0  0.46354  0.38660  0.37062  1.0000
  S   S226      1.0  0.47427  0.35665  0.33334  1.0000
  Fe  Fe118     1.0  0.49173  0.34162  0.39144  1.0000
  S   S227      1.0  0.47867  0.36619  0.40540  1.0000
  S   S228      1.0  0.50372  0.31197  0.40429  1.0000
  Fe  Fe119     1.0  0.44828  0.35726  0.39488  1.0000
  S   S229      1.0  0.41081  0.34367  0.40946  1.0000
  Fe  Fe120     1.0  0.49550  0.39353  0.38003  1.0000
  S   S230      1.0  0.51537  0.43168  0.37682  1.0000
  S   S231      1.0  0.45989  0.33023  0.38319  1.0000
  S   S232      1.0  0.51080  0.36934  0.36675  1.0000
  C   C649      1.0  0.56589  0.45414  0.40760  1.0000
  C   C650      1.0  0.56579  0.46993  0.39264  1.0000
  C   C651      1.0  0.55097  0.46249  0.38285  1.0000
  C   C652      1.0  0.53647  0.43916  0.38775  1.0000
  C   C653      1.0  0.53751  0.42304  0.40219  1.0000
  C   C654      1.0  0.55198  0.43059  0.41215  1.0000
  H   H667      1.0  0.55034  0.47504  0.37164  1.0000
  H   H668      1.0  0.52662  0.40498  0.40602  1.0000
  H   H669      1.0  0.55204  0.41825  0.42367  1.0000
  C   C655      1.0  0.38284  0.38138  0.44798  1.0000
  C   C656      1.0  0.36866  0.36118  0.44588  1.0000
  C   C657      1.0  0.37735  0.35008  0.43375  1.0000
  C   C658      1.0  0.40039  0.35879  0.42394  1.0000
  C   C659      1.0  0.41467  0.37898  0.42605  1.0000
  C   C660      1.0  0.40582  0.39039  0.43798  1.0000
  H   H670      1.0  0.35096  0.35405  0.45357  1.0000
  H   H671      1.0  0.36627  0.33443  0.43218  1.0000
  H   H672      1.0  0.43244  0.38581  0.41844  1.0000
  C   C661      1.0  0.48447  0.30562  0.46125  1.0000
  C   C662      1.0  0.47756  0.28592  0.45520  1.0000
  C   C663      1.0  0.48415  0.28776  0.43771  1.0000
  C   C664      1.0  0.49695  0.30956  0.42615  1.0000
  C   C665      1.0  0.50363  0.32942  0.43211  1.0000
  C   C666      1.0  0.49775  0.32733  0.44971  1.0000
  H   H673      1.0  0.46776  0.26906  0.46399  1.0000
  H   H674      1.0  0.47894  0.27241  0.43307  1.0000
  H   H675      1.0  0.51372  0.34627  0.42316  1.0000
  H   H676      1.0  0.50334  0.34258  0.45435  1.0000
  C   C667      1.0  0.43573  0.28646  0.32595  1.0000
  C   C668      1.0  0.44127  0.28694  0.34141  1.0000
  C   C669      1.0  0.45323  0.30829  0.34379  1.0000
  C   C670      1.0  0.45948  0.32941  0.33079  1.0000
  C   C671      1.0  0.45408  0.32889  0.31526  1.0000
  C   C672      1.0  0.44245  0.30746  0.31278  1.0000
  H   H677      1.0  0.43631  0.27070  0.35159  1.0000
  H   H678      1.0  0.45771  0.30834  0.35564  1.0000
  H   H679      1.0  0.45893  0.34514  0.30511  1.0000
  H   H680      1.0  0.43831  0.30730  0.30080  1.0000
  H   H681      1.0  0.42469  0.37241  0.34484  1.0000
  H   H682      1.0  0.46775  0.26292  0.31075  1.0000
  C   C673      1.0  0.40872  0.34537  0.33421  1.0000
  H   H683      1.0  0.35859  0.09957  0.30995  1.0000
  H   H684      1.0  0.52730  0.50501  0.40033  1.0000
  C   C674      1.0  0.40871  0.08721  0.31312  1.0000
  H   H685      1.0  0.58077  0.02311  0.36454  1.0000
  H   H686      1.0  0.33093  0.15971  0.47742  1.0000
  S   S233      1.0  0.65705  0.06719  0.39397  1.0000
  C   C675      1.0  0.40296  0.33343  0.46867  1.0000
  H   H687      1.0  0.42665  0.06748  0.45460  1.0000
  C   C676      1.0  0.40003  0.06277  0.32042  1.0000
  H   H688      1.0  0.54380  0.49806  0.42516  1.0000
  H   H689      1.0  0.48677  0.41213  0.41801  1.0000
  H   H690      1.0  0.38706  0.16310  0.48596  1.0000
  C   C677      1.0  0.39368  0.10058  0.30951  1.0000
  H   H691      1.0  0.39639  0.34370  0.47681  1.0000
  N   N57       1.0  0.40222  0.31419  0.36583  1.0000
  N   N58       1.0  0.49739  0.44756  0.41949  1.0000
  C   C678      1.0  0.34018  0.18340  0.49261  1.0000
  H   H692      1.0  0.36921  0.31212  0.47005  1.0000
  C   C679      1.0  0.40013  0.29759  0.38214  1.0000
  H   H693      1.0  0.42629  0.14288  0.26201  1.0000
  C   C680      1.0  0.33868  0.20186  0.26322  1.0000
  H   H694      1.0  0.57639  0.48810  0.38902  1.0000
  Fe  Fe121     1.0  0.40324  0.04039  0.49218  1.0000
  C   C681      1.0  0.49794  0.25366  0.49424  1.0000
  C   C682      1.0  0.44728  0.02034  0.45086  1.0000
  C   C683      1.0  0.48026  0.42802  0.41728  1.0000
  C   C684      1.0  0.43900  0.03651  0.45852  1.0000
  C   C685      1.0  0.57272  0.01923  0.37809  1.0000
  Fe  Fe122     1.0  0.33463  0.01915  0.26075  1.0000
  C   C686      1.0  0.44246  0.04030  0.42381  1.0000
  C   C687      1.0  0.43464  0.05674  0.43142  1.0000
  C   C688      1.0  0.43266  0.05469  0.44881  1.0000
  H   H695      1.0  0.42987  0.07096  0.42392  1.0000
  S   S234      1.0  0.39171  0.22695  0.29294  1.0000
  S   S235      1.0  0.42656  0.18504  0.27287  1.0000
  H   H696      1.0  0.44591  0.30380  0.42745  1.0000
  Fe  Fe123     1.0  0.60974  0.49692  0.41760  1.0000
  H   H697      1.0  0.41706  0.29138  0.42698  1.0000
  N   N59       1.0  0.53498  0.06323  0.38197  1.0000
  C   C689      1.0  0.51281  0.06083  0.39073  1.0000
  C   C690      1.0  0.55215  0.06504  0.39007  1.0000
  C   C691      1.0  0.50730  0.05951  0.40817  1.0000
  C   C692      1.0  0.54717  0.06350  0.40755  1.0000
  C   C693      1.0  0.52454  0.06059  0.41665  1.0000
  C   C694      1.0  0.54059  0.06515  0.36361  1.0000
  H   H698      1.0  0.49919  0.05984  0.38431  1.0000
  H   H699      1.0  0.56975  0.06705  0.38314  1.0000
  H   H700      1.0  0.48973  0.05765  0.41504  1.0000
  H   H701      1.0  0.56074  0.06400  0.41404  1.0000
  H   H702      1.0  0.52034  0.05912  0.43025  1.0000
  H   H703      1.0  0.54399  0.08382  0.35620  1.0000
  H   H704      1.0  0.55586  0.05872  0.35955  1.0000
  H   H705      1.0  0.52625  0.05374  0.36038  1.0000
  C   C695      1.0  0.52733  0.28391  0.47029  1.0000
  H   H706      1.0  0.34072  0.19923  0.48322  1.0000
  C   C696      1.0  0.50455  0.46938  0.40787  1.0000
  H   H707      1.0  0.54418  0.00567  0.42660  1.0000
  C   C697      1.0  0.37021  0.08914  0.31283  1.0000
  C   C698      1.0  0.47744  0.21664  0.49064  1.0000
  C   C699      1.0  0.37643  0.05202  0.32369  1.0000
  C   C700      1.0  0.38073  0.15963  0.28131  1.0000
  H   H708      1.0  0.44015  0.01588  0.30193  1.0000
  C   C701      1.0  0.52268  0.46194  0.43568  1.0000
  S   S236      1.0  0.42076  0.24676  0.25200  1.0000
  H   H709      1.0  0.36966  0.03315  0.32963  1.0000
  H   H710      1.0  0.38488  0.28194  0.38541  1.0000
  S   S237      1.0  0.58047  0.46360  0.42222  1.0000
  C   C702      1.0  0.42666  0.33797  0.46180  1.0000
  Fe  Fe124     1.0  0.35342  0.06332  0.27245  1.0000
  H   H711      1.0  0.37301  0.20398  0.26524  1.0000
  C   C703      1.0  0.57613  0.01942  0.40660  1.0000
  H   H712      1.0  0.52785  0.29216  0.45686  1.0000
  H   H713      1.0  0.42818  0.27688  0.44354  1.0000
  C   C704      1.0  0.36282  0.14012  0.28189  1.0000
  H   H714      1.0  0.60459  0.03277  0.38387  1.0000
  H   H715      1.0  0.48577  0.21311  0.46498  1.0000
  C   C705      1.0  0.50556  0.24660  0.46682  1.0000
  H   H716      1.0  0.49824  0.47221  0.39660  1.0000
  S   S238      1.0  0.36118  0.26183  0.26357  1.0000
  C   C706      1.0  0.38805  0.01079  0.43585  1.0000
  C   C707      1.0  0.54879  0.00949  0.38445  1.0000
  Fe  Fe125     1.0  0.33902  0.37159  0.48207  1.0000
  H   H717      1.0  0.42702  0.09580  0.31033  1.0000
  N   N60       1.0  0.41954  0.30804  0.44692  1.0000
  C   C708      1.0  0.38768  0.31574  0.46486  1.0000
  S   S239      1.0  0.44417  0.04298  0.40213  1.0000
  C   C709      1.0  0.36776  0.12139  0.27556  1.0000
  N   N61       1.0  0.49447  0.29470  0.29824  1.0000
  C   C710      1.0  0.50114  0.31035  0.30728  1.0000
  C   C711      1.0  0.49375  0.30281  0.28176  1.0000
  C   C712      1.0  0.50789  0.33483  0.29966  1.0000
  C   C713      1.0  0.50023  0.32715  0.27379  1.0000
  C   C714      1.0  0.50736  0.34323  0.28281  1.0000
  C   C715      1.0  0.48688  0.26912  0.30646  1.0000
  H   H718      1.0  0.50077  0.30404  0.32058  1.0000
  H   H719      1.0  0.48805  0.29047  0.27467  1.0000
  H   H720      1.0  0.51263  0.34718  0.30702  1.0000
  H   H721      1.0  0.49946  0.33339  0.26072  1.0000
  H   H722      1.0  0.51210  0.36216  0.27687  1.0000
  H   H723      1.0  0.41593  0.29149  0.38130  1.0000
  S   S240      1.0  0.37672  0.24280  0.47834  1.0000
  H   H724      1.0  0.65259  0.04577  0.31850  1.0000
  H   H725      1.0  0.40274  0.01224  0.29488  1.0000
  Fe  Fe126     1.0  0.38601  0.04030  0.25385  1.0000
  C   C716      1.0  0.33747  0.05333  0.32233  1.0000
  H   H726      1.0  0.41833  0.34453  0.37295  1.0000
  S   S241      1.0  0.38334  0.05118  0.27827  1.0000
  S   S242      1.0  0.65465  0.02072  0.42430  1.0000
  N   N62       1.0  0.36202  0.06507  0.31932  1.0000
  C   C717      1.0  0.42814  0.29430  0.43569  1.0000
  C   C718      1.0  0.36094  0.19966  0.25787  1.0000
  H   H727      1.0  0.41190  0.35745  0.32171  1.0000
  H   H728      1.0  0.34141  0.24277  0.46109  1.0000
  H   H729      1.0  0.41148  0.05213  0.32344  1.0000
  H   H730      1.0  0.53053  0.45857  0.44612  1.0000
  C   C719      1.0  0.48929  0.22431  0.47332  1.0000
  S   S243      1.0  0.37201  0.39531  0.46319  1.0000
  H   H731      1.0  0.37685  0.17351  0.28684  1.0000
  S   S244      1.0  0.47907  0.02440  0.36599  1.0000
  C   C720      1.0  0.41241  0.33787  0.36302  1.0000
  C   C721      1.0  0.39631  0.30311  0.45392  1.0000
  H   H732      1.0  0.38431  0.28944  0.45097  1.0000
  H   H733      1.0  0.39355  0.31429  0.32698  1.0000
  C   C722      1.0  0.39069  0.12244  0.26841  1.0000
  H   H734      1.0  0.45312  0.32858  0.44559  1.0000
  H   H735      1.0  0.34492  0.40821  0.43805  1.0000
  C   C723      1.0  0.43470  0.32496  0.45091  1.0000
  C   C724      1.0  0.40364  0.16080  0.27401  1.0000
  H   H736      1.0  0.50091  0.42631  0.44229  1.0000
  C   C725      1.0  0.39545  0.30573  0.35310  1.0000
  H   H737      1.0  0.43875  0.35145  0.46483  1.0000
  H   H738      1.0  0.41678  0.40606  0.43958  1.0000
  C   C726      1.0  0.53020  0.48417  0.42384  1.0000
  H   H739      1.0  0.33976  0.42551  0.46270  1.0000
  C   C727      1.0  0.40856  0.14214  0.26759  1.0000
  C   C728      1.0  0.39839  0.32120  0.33717  1.0000
  H   H740      1.0  0.39467  0.10802  0.26358  1.0000
  H   H741      1.0  0.40019  0.11964  0.30397  1.0000
  Fe  Fe127     1.0  0.35776  0.01529  0.28988  1.0000
  C   C729      1.0  0.52101  0.48801  0.40989  1.0000
  H   H742      1.0  0.39196  0.02777  0.42650  1.0000
  H   H743      1.0  0.52361  0.29674  0.47764  1.0000
  S   S245      1.0  0.64111  0.01347  0.38872  1.0000
  S   S246      1.0  0.64198  0.48960  0.42319  1.0000
  S   S247      1.0  0.47751  0.30306  0.48319  1.0000
  H   H744      1.0  0.47691  0.43246  0.40452  1.0000
  C   C730      1.0  0.50612  0.44374  0.43332  1.0000
  C   C731      1.0  0.58630  0.02443  0.38908  1.0000
  C   C732      1.0  0.35284  0.25397  0.48160  1.0000
  S   S248      1.0  0.37566  0.11272  0.49411  1.0000
  S   S249      1.0  0.35823  0.05560  0.24694  1.0000
  C   C733      1.0  0.37600  0.00755  0.45274  1.0000
  H   H745      1.0  0.65836  0.07775  0.29241  1.0000
  C   C734      1.0  0.42421  0.00866  0.31207  1.0000
  C   C735      1.0  0.55217  0.00952  0.41305  1.0000
  C   C736      1.0  0.34879  0.26573  0.49427  1.0000
  H   H746      1.0  0.54449  0.28147  0.47073  1.0000
  H   H747      1.0  0.33471  0.03461  0.32170  1.0000
  S   S250      1.0  0.43149  0.24105  0.49057  1.0000
  H   H748      1.0  0.45463  0.00925  0.42793  1.0000
  C   C737      1.0  0.33828  0.25188  0.47090  1.0000
  H   H749      1.0  0.33047  0.06231  0.31232  1.0000
  C   C738      1.0  0.40306  0.00653  0.30804  1.0000
  H   H750      1.0  0.33378  0.20797  0.27449  1.0000
  C   C739      1.0  0.33465  0.16126  0.48939  1.0000
  H   H751      1.0  0.38039  0.33244  0.51178  1.0000
  H   H752      1.0  0.42154  0.41788  0.53047  1.0000
  H   H753      1.0  0.40619  0.19219  0.49913  1.0000
  C   C740      1.0  0.34893  0.32242  0.61276  1.0000
  H   H754      1.0  0.44367  0.40298  0.66121  1.0000
  C   C741      1.0  0.41573  0.40089  0.52787  1.0000
  C   C742      1.0  0.45908  0.02769  0.54543  1.0000
  C   C743      1.0  0.43209  0.40789  0.67074  1.0000
  H   H755      1.0  0.40233  0.32272  0.52004  1.0000
  H   H756      1.0  0.43748  0.07175  0.53132  1.0000
  S   S251      1.0  0.34160  0.41285  0.68845  1.0000
  Fe  Fe128     1.0  0.35176  0.02742  0.49593  1.0000
  H   H757      1.0  0.43939  0.06015  0.55248  1.0000
  Fe  Fe129     1.0  0.45865  0.43180  0.58518  1.0000
  S   S252      1.0  0.46107  0.39688  0.59969  1.0000
  S   S253      1.0  0.48821  0.46530  0.57655  1.0000
  Fe  Fe130     1.0  0.41053  0.41032  0.58233  1.0000
  S   S254      1.0  0.40891  0.37387  0.59691  1.0000
  S   S255      1.0  0.38129  0.41753  0.57182  1.0000
  Fe  Fe131     1.0  0.42453  0.39218  0.61425  1.0000
  S   S256      1.0  0.41134  0.37435  0.64252  1.0000
  Fe  Fe132     1.0  0.44513  0.38181  0.58098  1.0000
  S   S257      1.0  0.45900  0.35719  0.56733  1.0000
  S   S258      1.0  0.42320  0.42833  0.60106  1.0000
  S   S259      1.0  0.44579  0.41718  0.56512  1.0000
  Fe  Fe133     1.0  0.42195  0.22288  0.51847  1.0000
  S   S260      1.0  0.43918  0.25525  0.52536  1.0000
  S   S261      1.0  0.42715  0.18681  0.52715  1.0000
  H   H758      1.0  0.38857  0.42422  0.70368  1.0000
  H   H759      1.0  0.60617  0.49994  0.57659  1.0000
  C   C744      1.0  0.41239  0.14205  0.52335  1.0000
  C   C745      1.0  0.34571  0.35965  0.55064  1.0000
  Fe  Fe134     1.0  0.40491  0.26300  0.52853  1.0000
  S   S262      1.0  0.38925  0.27741  0.54967  1.0000
  H   H760      1.0  0.47242  0.22555  0.51466  1.0000
  S   S263      1.0  0.38690  0.22874  0.52418  1.0000
  H   H761      1.0  0.39913  0.10671  0.52106  1.0000
  H   H762      1.0  0.37043  0.40300  0.61121  1.0000
  H   H763      1.0  0.50083  0.26522  0.50247  1.0000
  C   C746      1.0  0.57514  0.47655  0.57468  1.0000
  C   C747      1.0  0.46879  0.02824  0.51122  1.0000
  H   H764      1.0  0.38893  0.41023  0.51732  1.0000
  S   S264      1.0  0.34835  0.37554  0.73175  1.0000
  C   C748      1.0  0.47298  0.01409  0.53944  1.0000
  H   H765      1.0  0.40287  0.00537  0.52806  1.0000
  C   C749      1.0  0.41751  0.36078  0.52978  1.0000
  C   C750      1.0  0.45511  0.04179  0.51760  1.0000
  N   N63       1.0  0.45062  0.04158  0.53448  1.0000
  C   C751      1.0  0.43937  0.33399  0.56357  1.0000
  C   C752      1.0  0.44782  0.32130  0.55254  1.0000
  C   C753      1.0  0.43256  0.30377  0.54834  1.0000
  C   C754      1.0  0.40877  0.29843  0.55544  1.0000
  C   C755      1.0  0.40033  0.31073  0.56677  1.0000
  C   C756      1.0  0.41556  0.32862  0.57072  1.0000
  H   H766      1.0  0.46620  0.32539  0.54694  1.0000
  H   H767      1.0  0.43928  0.29456  0.53951  1.0000
  H   H768      1.0  0.38194  0.30660  0.57233  1.0000
  H   H769      1.0  0.40886  0.33820  0.57925  1.0000
  C   C757      1.0  0.36855  0.39570  0.56290  1.0000
  C   C758      1.0  0.35171  0.39930  0.55448  1.0000
  N   N64       1.0  0.55433  0.46041  0.58341  1.0000
  H   H770      1.0  0.34499  0.18130  0.54033  1.0000
  C   C759      1.0  0.36256  0.35613  0.55902  1.0000
  C   C760      1.0  0.37430  0.37427  0.56479  1.0000
  H   H771      1.0  0.38372  0.45256  0.68028  1.0000
  H   H772      1.0  0.42536  0.34688  0.53353  1.0000
  H   H773      1.0  0.41337  0.47042  0.67499  1.0000
  H   H774      1.0  0.38755  0.37145  0.57089  1.0000
  H   H775      1.0  0.54791  0.43815  0.56717  1.0000
  H   H776      1.0  0.65280  0.03227  0.54892  1.0000
  C   C761      1.0  0.49133  0.46375  0.60938  1.0000
  H   H777      1.0  0.53076  0.44189  0.60785  1.0000
  H   H778      1.0  0.35025  0.20251  0.51011  1.0000
  Fe  Fe135     1.0  0.39767  0.24917  0.49662  1.0000
  S   S265      1.0  0.34440  0.04498  0.51699  1.0000
  H   H779      1.0  0.47690  0.44794  0.61358  1.0000
  H   H780      1.0  0.34902  0.30494  0.61122  1.0000
  H   H781      1.0  0.34458  0.15069  0.54569  1.0000
  C   C762      1.0  0.35886  0.40062  0.67529  1.0000
  C   C763      1.0  0.36900  0.41290  0.65803  1.0000
  C   C764      1.0  0.38470  0.40462  0.64772  1.0000
  C   C765      1.0  0.39029  0.38405  0.65465  1.0000
  C   C766      1.0  0.37949  0.37131  0.67173  1.0000
  C   C767      1.0  0.36375  0.37955  0.68205  1.0000
  H   H782      1.0  0.36515  0.42916  0.65276  1.0000
  H   H783      1.0  0.39292  0.41454  0.63458  1.0000
  H   H784      1.0  0.38364  0.35527  0.67711  1.0000
  S   S266      1.0  0.41211  0.28408  0.50133  1.0000
  C   C768      1.0  0.51854  0.49634  0.58666  1.0000
  C   C769      1.0  0.52903  0.50452  0.59855  1.0000
  C   C770      1.0  0.43544  0.05508  0.54110  1.0000
  N   N65       1.0  0.34521  0.16529  0.51973  1.0000
  H   H785      1.0  0.42882  0.37748  0.69113  1.0000
  H   H786      1.0  0.44780  0.05210  0.50897  1.0000
  H   H787      1.0  0.53640  0.46353  0.56425  1.0000
  S   S267      1.0  0.37428  0.00830  0.50735  1.0000
  H   H788      1.0  0.40132  0.38843  0.71252  1.0000
  C   C771      1.0  0.41421  0.16621  0.51733  1.0000
  C   C772      1.0  0.35167  0.16762  0.53541  1.0000
  H   H789      1.0  0.46464  0.19946  0.49587  1.0000
  H   H790      1.0  0.41930  0.13616  0.53389  1.0000
  H   H791      1.0  0.37599  0.32227  0.53448  1.0000
  C   C773      1.0  0.58967  0.48708  0.58347  1.0000
  C   C774      1.0  0.39745  0.39661  0.52048  1.0000
  C   C775      1.0  0.35829  0.35338  0.62660  1.0000
  H   H792      1.0  0.49534  0.46250  0.63470  1.0000
  N   N66       1.0  0.34996  0.36780  0.61594  1.0000
  C   C776      1.0  0.38906  0.33239  0.52216  1.0000
  C   C777      1.0  0.56146  0.46463  0.61008  1.0000
  H   H793      1.0  0.59368  0.48932  0.60823  1.0000
  H   H794      1.0  0.40175  0.45900  0.65914  1.0000
  C   C778      1.0  0.35803  0.33055  0.62513  1.0000
  S   S268      1.0  0.40075  0.05965  0.51247  1.0000
  C   C779      1.0  0.50177  0.47202  0.62129  1.0000
  N   N67       1.0  0.40914  0.43368  0.67785  1.0000
  C   C780      1.0  0.34086  0.35991  0.60384  1.0000
  H   H795      1.0  0.52239  0.43847  0.58223  1.0000
  H   H796      1.0  0.43119  0.43903  0.65300  1.0000
  C   C781      1.0  0.42476  0.42815  0.66614  1.0000
  C   C782      1.0  0.40107  0.12538  0.51607  1.0000
  H   H797      1.0  0.35986  0.26714  0.50271  1.0000
  H   H798      1.0  0.41715  0.04423  0.54480  1.0000
  H   H799      1.0  0.33471  0.37149  0.59511  1.0000
  C   C783      1.0  0.53962  0.44954  0.57381  1.0000
  H   H800      1.0  0.55556  0.46048  0.62391  1.0000
  C   C784      1.0  0.38932  0.37414  0.51814  1.0000
  N   N68       1.0  0.39925  0.35651  0.52293  1.0000
  H   H801      1.0  0.36589  0.35975  0.63598  1.0000
  C   C785      1.0  0.49977  0.47589  0.59202  1.0000
  C   C786      1.0  0.40814  0.39959  0.69948  1.0000
  C   C787      1.0  0.40511  0.17370  0.50380  1.0000
  H   H802      1.0  0.58053  0.48144  0.56082  1.0000
  C   C788      1.0  0.42596  0.38291  0.53246  1.0000
  C   C789      1.0  0.34004  0.33706  0.60216  1.0000
  C   C790      1.0  0.39178  0.13293  0.50263  1.0000
  C   C791      1.0  0.42364  0.39351  0.68751  1.0000
  C   C792      1.0  0.58271  0.48106  0.60128  1.0000
  Fe  Fe136     1.0  0.37007  0.02866  0.52688  1.0000
  H   H803      1.0  0.37432  0.37057  0.51325  1.0000
  C   C793      1.0  0.54745  0.45430  0.60090  1.0000
  H   H804      1.0  0.36677  0.33941  0.56084  1.0000
  H   H805      1.0  0.43994  0.38578  0.53850  1.0000
  H   H806      1.0  0.45458  0.02653  0.55897  1.0000
  S   S269      1.0  0.36711  0.01089  0.55421  1.0000
  C   C794      1.0  0.40103  0.41989  0.69440  1.0000
  C   C795      1.0  0.40172  0.45504  0.67282  1.0000
  H   H807      1.0  0.35583  0.36987  0.69531  1.0000
  C   C796      1.0  0.39413  0.15715  0.49639  1.0000
  C   C797      1.0  0.34556  0.18513  0.50790  1.0000
  C   C798      1.0  0.52076  0.49231  0.61589  1.0000
  H   H808      1.0  0.36537  0.31953  0.63328  1.0000
  H   H809      1.0  0.37076  0.17285  0.53280  1.0000
  C   C799      1.0  0.48179  0.23135  0.50120  1.0000
  Fe  Fe137     1.0  0.44521  0.27410  0.49782  1.0000
  C   C800      1.0  0.47775  0.01432  0.52224  1.0000
  H   H810      1.0  0.34721  0.41588  0.55296  1.0000
  S   S270      1.0  0.53454  0.50108  0.63098  1.0000
  C   C801      1.0  0.35216  0.39226  0.61689  1.0000
  H   H811      1.0  0.34161  0.40079  0.60964  1.0000
  C   C802      1.0  0.34053  0.38141  0.54810  1.0000
  H   H812      1.0  0.34091  0.12791  0.52548  1.0000
  C   C803      1.0  0.34003  0.14353  0.51658  1.0000
  S   S271      1.0  0.33165  0.33646  0.54353  1.0000
  Fe  Fe138     1.0  0.37577  0.07439  0.50063  1.0000
  H   H813      1.0  0.34659  0.39280  0.63039  1.0000
  S   S272      1.0  0.34022  0.33677  0.49726  1.0000
  C   C804      1.0  0.33449  0.14117  0.50145  1.0000
  H   H814      1.0  0.47182  0.02809  0.49790  1.0000
  H   H815      1.0  0.33311  0.33102  0.59237  1.0000
  H   H816      1.0  0.33103  0.12395  0.49881  1.0000
  C   C805      1.0  0.33052  0.27611  0.49585  1.0000
  S   S273      1.0  0.36424  0.29209  0.90992  1.0000
  C   C806      1.0  0.52448  0.47636  0.83046  1.0000
  Fe  Fe139     1.0  0.38120  0.03533  0.79571  1.0000
  S   S274      1.0  0.41834  0.05119  0.79373  1.0000
  C   C807      1.0  0.42728  0.02985  0.80648  1.0000
  Fe  Fe140     1.0  0.37862  0.20192  0.81705  1.0000
  C   C808      1.0  0.36768  0.36083  0.83360  1.0000
  S   S275      1.0  0.38925  0.17603  0.80298  1.0000
  Fe  Fe141     1.0  0.39054  0.23017  0.84209  1.0000
  H   H817      1.0  0.42207  0.10433  0.79059  1.0000
  S   S276      1.0  0.41499  0.23826  0.85797  1.0000
  H   H818      1.0  0.41594  0.34268  0.79009  1.0000
  C   C809      1.0  0.37586  0.10407  0.84350  1.0000
  Fe  Fe142     1.0  0.37285  0.25168  0.81336  1.0000
  C   C810      1.0  0.36269  0.21634  0.88814  1.0000
  S   S277      1.0  0.36877  0.19319  0.84565  1.0000
  S   S278      1.0  0.40330  0.23740  0.81377  1.0000
  Fe  Fe143     1.0  0.47870  0.43109  0.82384  1.0000
  S   S279      1.0  0.44495  0.43270  0.81777  1.0000
  Fe  Fe144     1.0  0.46343  0.37657  0.83485  1.0000
  S   S280      1.0  0.42954  0.37419  0.82911  1.0000
  S   S281      1.0  0.47283  0.34420  0.84701  1.0000
  Fe  Fe145     1.0  0.44879  0.40335  0.80551  1.0000
  S   S282      1.0  0.44104  0.39745  0.78116  1.0000
  Fe  Fe146     1.0  0.42860  0.40313  0.84205  1.0000
  S   S283      1.0  0.39566  0.39700  0.86220  1.0000
  S   S284      1.0  0.48342  0.40329  0.80993  1.0000
  S   S285      1.0  0.46172  0.40410  0.84922  1.0000
  C   C811      1.0  0.38438  0.39230  0.76345  1.0000
  C   C812      1.0  0.39270  0.32889  0.88344  1.0000
  H   H819      1.0  0.36357  0.06744  0.84378  1.0000
  C   C813      1.0  0.38625  0.36757  0.87514  1.0000
  C   C814      1.0  0.37164  0.32069  0.89607  1.0000
  C   C815      1.0  0.35759  0.33580  0.89801  1.0000
  C   C816      1.0  0.36487  0.35921  0.88748  1.0000
  H   H820      1.0  0.36948  0.42113  0.79327  1.0000
  C   C817      1.0  0.36244  0.29315  0.78356  1.0000
  H   H821      1.0  0.42780  0.29614  0.90991  1.0000
  H   H822      1.0  0.35705  0.11520  0.74882  1.0000
  C   C818      1.0  0.41077  0.12657  0.82145  1.0000
  C   C819      1.0  0.37713  0.08397  0.83790  1.0000
  C   C820      1.0  0.40019  0.35236  0.87328  1.0000
  H   H823      1.0  0.34344  0.15340  0.82662  1.0000
  H   H824      1.0  0.43923  0.09468  0.80415  1.0000
  C   C821      1.0  0.42939  0.26814  0.85536  1.0000
  C   C822      1.0  0.42209  0.28704  0.84740  1.0000
  C   C823      1.0  0.43467  0.31068  0.84527  1.0000
  C   C824      1.0  0.45476  0.31532  0.85081  1.0000
  C   C825      1.0  0.46164  0.29634  0.85897  1.0000
  C   C826      1.0  0.44893  0.27293  0.86138  1.0000
  H   H825      1.0  0.40695  0.28348  0.84276  1.0000
  H   H826      1.0  0.42924  0.32517  0.83890  1.0000
  H   H827      1.0  0.47716  0.29972  0.86321  1.0000
  H   H828      1.0  0.45463  0.25844  0.86756  1.0000
  H   H829      1.0  0.48159  0.30487  0.81911  1.0000
  C   C827      1.0  0.40579  0.39057  0.76598  1.0000
  C   C828      1.0  0.39287  0.12548  0.83534  1.0000
  H   H830      1.0  0.40693  0.41730  0.79812  1.0000
  C   C829      1.0  0.41399  0.39955  0.77849  1.0000
  C   C830      1.0  0.40067  0.41021  0.78851  1.0000
  H   H831      1.0  0.49698  0.46099  0.85368  1.0000
  H   H832      1.0  0.35177  0.38133  0.81786  1.0000
  H   H833      1.0  0.43998  0.35395  0.77115  1.0000
  C   C831      1.0  0.52582  0.48543  0.85751  1.0000
  H   H834      1.0  0.37355  0.37488  0.83936  1.0000
  H   H835      1.0  0.42588  0.39264  0.88492  1.0000
  H   H836      1.0  0.41603  0.38230  0.75819  1.0000
  H   H837      1.0  0.35403  0.37092  0.88903  1.0000
  C   C832      1.0  0.35078  0.19295  0.89722  1.0000
  H   H838      1.0  0.41702  0.35871  0.86428  1.0000
  C   C833      1.0  0.36931  0.14810  0.80709  1.0000
  C   C834      1.0  0.37543  0.13197  0.79829  1.0000
  C   C835      1.0  0.36119  0.10866  0.80257  1.0000
  C   C836      1.0  0.37126  0.40341  0.77324  1.0000
  H   H839      1.0  0.39162  0.13733  0.78847  1.0000
  C   C837      1.0  0.37265  0.33919  0.83814  1.0000
  C   C838      1.0  0.44457  0.03676  0.81438  1.0000
  H   H840      1.0  0.42128  0.32464  0.77570  1.0000
  H   H841      1.0  0.45294  0.05537  0.81225  1.0000
  H   H842      1.0  0.42684  0.29241  0.79500  1.0000
  C   C839      1.0  0.36248  0.27758  0.99252  1.0000
  S   S286      1.0  0.35806  0.02640  0.82213  1.0000
  H   H843      1.0  0.37814  0.38517  0.75389  1.0000
  H   H844      1.0  0.39612  0.07007  0.81958  1.0000
  H   H845      1.0  0.36131  0.10326  0.85377  1.0000
  C   C840      1.0  0.41444  0.32413  0.91662  1.0000
  H   H846      1.0  0.40356  0.31723  0.88178  1.0000
  H   H847      1.0  0.36381  0.24036  0.92140  1.0000
  S   S287      1.0  0.34408  0.40548  0.77075  1.0000
  C   C841      1.0  0.42992  0.10813  0.80094  1.0000
  C   C842      1.0  0.54674  0.49203  0.82305  1.0000
  C   C843      1.0  0.44767  0.33048  0.89313  1.0000
  C   C844      1.0  0.41681  0.34852  0.91217  1.0000
  C   C845      1.0  0.46095  0.34424  0.79543  1.0000
  C   C846      1.0  0.37949  0.41239  0.78573  1.0000
  C   C847      1.0  0.36744  0.23346  0.89688  1.0000
  C   C848      1.0  0.47480  0.33591  0.80519  1.0000
  S   S288      1.0  0.34918  0.21702  0.81388  1.0000
  C   C849      1.0  0.51416  0.47287  0.84783  1.0000
  C   C850      1.0  0.44048  0.30475  0.79764  1.0000
  Fe  Fe147     1.0  0.34082  0.21052  0.84237  1.0000
  H   H848      1.0  0.44273  0.12587  0.79591  1.0000
  H   H849      1.0  0.46323  0.36646  0.87810  1.0000
  H   H850      1.0  0.46393  0.02486  0.83156  1.0000
  C   C851      1.0  0.42964  0.33788  0.78165  1.0000
  C   C852      1.0  0.45403  0.29580  0.80743  1.0000
  H   H851      1.0  0.45448  0.39973  0.88790  1.0000
  C   C853      1.0  0.36275  0.31625  0.77567  1.0000
  C   C854      1.0  0.42995  0.31509  0.90698  1.0000
  N   N69       1.0  0.41182  0.10677  0.81599  1.0000
  C   C855      1.0  0.35531  0.36435  0.82145  1.0000
  C   C856      1.0  0.35289  0.32553  0.81843  1.0000
  H   H852      1.0  0.46358  0.36321  0.79101  1.0000
  H   H853      1.0  0.45068  0.27680  0.81252  1.0000
  H   H854      1.0  0.38226  0.33626  0.84752  1.0000
  C   C857      1.0  0.34043  0.10139  0.81544  1.0000
  H   H855      1.0  0.36962  0.30475  0.83350  1.0000
  C   C858      1.0  0.36030  0.22682  0.91474  1.0000
  N   N70       1.0  0.43449  0.36354  0.89874  1.0000
  S   S289      1.0  0.36073  0.05653  0.78345  1.0000
  H   H856      1.0  0.34698  0.35491  0.78836  1.0000
  C   C859      1.0  0.39542  0.08562  0.82410  1.0000
  H   H857      1.0  0.34336  0.27993  0.97352  1.0000
  S   S290      1.0  0.50950  0.46397  0.81697  1.0000
  C   C860      1.0  0.44965  0.35478  0.88912  1.0000
  H   H858      1.0  0.48770  0.34826  0.80853  1.0000
  S   S291      1.0  0.36154  0.24661  0.84164  1.0000
  C   C861      1.0  0.34842  0.27385  0.78028  1.0000
  H   H859      1.0  0.42317  0.14362  0.81466  1.0000
  C   C862      1.0  0.34234  0.27367  0.98693  1.0000
  H   H860      1.0  0.37375  0.33124  0.77804  1.0000
  S   S292      1.0  0.37936  0.28908  0.79780  1.0000
  C   C863      1.0  0.43629  0.38895  0.89402  1.0000
  H   H861      1.0  0.34826  0.25599  0.78623  1.0000
  H   H862      1.0  0.37903  0.28674  0.98338  1.0000
  H   H863      1.0  0.36780  0.22126  0.87432  1.0000
  C   C864      1.0  0.45076  0.01952  0.82530  1.0000
  H   H864      1.0  0.55492  0.49482  0.80965  1.0000
  H   H865      1.0  0.36651  0.09631  0.79602  1.0000
  C   C865      1.0  0.54786  0.50157  0.84995  1.0000
  H   H866      1.0  0.34885  0.33792  0.75893  1.0000
  H   H867      1.0  0.42989  0.39497  0.90541  1.0000
  H   H868      1.0  0.37647  0.25178  0.88985  1.0000
  N   N71       1.0  0.44426  0.32871  0.79158  1.0000
  C   C866      1.0  0.47138  0.31154  0.81112  1.0000
  C   C867      1.0  0.36542  0.32147  0.83039  1.0000
  C   C868      1.0  0.34834  0.14105  0.81977  1.0000
  H   H869      1.0  0.51756  0.48291  0.87086  1.0000
  H   H870      1.0  0.40004  0.31222  0.92699  1.0000
  H   H871      1.0  0.40408  0.35525  0.91927  1.0000
  H   H872      1.0  0.45952  0.32365  0.88526  1.0000
  C   C869      1.0  0.34873  0.32006  0.76475  1.0000
  H   H873      1.0  0.39156  0.14148  0.83911  1.0000
  N   N72       1.0  0.34901  0.20370  0.92360  1.0000
  N   N73       1.0  0.34782  0.34666  0.81422  1.0000
  H   H874      1.0  0.34128  0.32957  0.90775  1.0000
  H   H875      1.0  0.34072  0.12905  0.77371  1.0000
  H   H876      1.0  0.34726  0.31166  0.81250  1.0000
  C   C870      1.0  0.34139  0.10416  0.75842  1.0000
  C   C871      1.0  0.33479  0.27771  0.76901  1.0000
  S   S293      1.0  0.65948  0.00622  0.87514  1.0000
  H   H877      1.0  0.35115  0.21010  0.94766  1.0000
  Fe  Fe148     1.0  0.34124  0.02196  0.78045  1.0000
  Fe  Fe149     1.0  0.33635  0.04559  0.80955  1.0000
  H   H878      1.0  0.34642  0.17977  0.89041  1.0000
  H   H879      1.0  0.34478  0.17954  0.94752  1.0000
  C   C872      1.0  0.34381  0.18695  0.91507  1.0000
  C   C873      1.0  0.34162  0.19677  0.94233  1.0000
  H   H880      1.0  0.33745  0.07554  0.74634  1.0000
  H   H881      1.0  0.33391  0.16889  0.92205  1.0000
  C   C874      1.0  0.33512  0.35054  0.80134  1.0000
  C   C875      1.0  0.41650  0.00578  0.80929  1.0000
  C   C876      1.0  0.33488  0.30082  0.76128  1.0000
  C   C877      1.0  0.33387  0.11778  0.82384  1.0000
  S   S294      1.0  0.33177  0.02364  0.75565  1.0000
  C   C878      1.0  0.55835  0.50458  0.83270  1.0000
  C   C879      1.0  0.33222  0.11194  0.77233  1.0000
  C   C880      1.0  0.33041  0.08197  0.75701  1.0000
  H   H882      1.0  0.37948  0.92916  0.15356  1.0000
  Fe  Fe150     1.0  0.63706  0.98249  0.16726  1.0000
  H   H883      1.0  0.55750  0.97715  0.19503  1.0000
  C   C881      1.0  0.37830  0.91475  0.20744  1.0000
  H   H884      1.0  0.34794  0.84715  0.15075  1.0000
  C   C882      1.0  0.36972  0.99624  0.21084  1.0000
  Fe  Fe151     1.0  0.43122  0.94479  0.14867  1.0000
  S   S295      1.0  0.40945  0.96267  0.16348  1.0000
  S   S296      1.0  0.41763  0.90918  0.14447  1.0000
  C   C883      1.0  0.64847  0.65931  0.19714  1.0000
  H   H885      1.0  0.38204  0.96503  0.07643  1.0000
  C   C884      1.0  0.34507  0.96935  0.11149  1.0000
  C   C885      1.0  0.37267  0.91140  0.15285  1.0000
  C   C886      1.0  0.38768  0.89812  0.14820  1.0000
  C   C887      1.0  0.62068  0.60038  0.19166  1.0000
  H   H886      1.0  0.41375  0.96555  0.23826  1.0000
  S   S297      1.0  0.45838  0.95005  0.16260  1.0000
  S   S298      1.0  0.44984  0.97704  0.12686  1.0000
  Fe  Fe152     1.0  0.64643  0.53191  0.18553  1.0000
  H   H887      1.0  0.54373  0.95314  0.17632  1.0000
  C   C888      1.0  0.35332  0.96837  0.09471  1.0000
  N   N74       1.0  0.35020  0.88461  0.20195  1.0000
  C   C889      1.0  0.53244  0.96164  0.18310  1.0000
  Fe  Fe153     1.0  0.47538  0.98427  0.14221  1.0000
  C   C890      1.0  0.49652  0.97186  0.18907  1.0000
  H   H888      1.0  0.38998  0.96221  0.12675  1.0000
  H   H889      1.0  0.34824  0.95492  0.02075  1.0000
  C   C891      1.0  0.65294  0.61949  0.20733  1.0000
  C   C892      1.0  0.34947  0.96881  0.14019  1.0000
  C   C893      1.0  0.54015  0.97505  0.19364  1.0000
  H   H890      1.0  0.63947  0.95685  0.21552  1.0000
  S   S299      1.0  0.61403  0.98771  0.19004  1.0000
  H   H891      1.0  0.63628  0.90421  0.18776  1.0000
  H   H892      1.0  0.38241  0.92896  0.21345  1.0000
  C   C894      1.0  0.37867  0.87506  0.14725  1.0000
  H   H893      1.0  0.39021  0.86472  0.14360  1.0000
  H   H894      1.0  0.40424  0.88614  0.18140  1.0000
  H   H895      1.0  0.40533  0.96032  0.09731  1.0000
  S   S300      1.0  0.43093  0.96289  0.20406  1.0000
  C   C895      1.0  0.64467  0.91405  0.19537  1.0000
  S   S301      1.0  0.63120  0.94780  0.16060  1.0000
  H   H896      1.0  0.35543  0.96828  0.20036  1.0000
  C   C896      1.0  0.38816  0.96239  0.10126  1.0000
  H   H897      1.0  0.60851  0.59320  0.18506  1.0000
  H   H898      1.0  0.47389  0.98520  0.21666  1.0000
  S   S302      1.0  0.62126  0.59086  0.14608  1.0000
  Fe  Fe154     1.0  0.43828  0.97111  0.17547  1.0000
  C   C897      1.0  0.33563  0.99367  0.20079  1.0000
  H   H899      1.0  0.61608  0.63641  0.13298  1.0000
  H   H900      1.0  0.41387  0.91819  0.19553  1.0000
  H   H901      1.0  0.61942  0.93333  0.19916  1.0000
  Fe  Fe155     1.0  0.42973  0.99560  0.14257  1.0000
  H   H902      1.0  0.33730  0.91179  0.16036  1.0000
  C   C898      1.0  0.62654  0.62458  0.19077  1.0000
  C   C899      1.0  0.35476  0.86512  0.15130  1.0000
  C   C900      1.0  0.63522  0.93048  0.20175  1.0000
  H   H903      1.0  0.62687  0.56687  0.20130  1.0000
  H   H904      1.0  0.34311  0.93189  0.99960  1.0000
  Fe  Fe156     1.0  0.63290  0.55900  0.15590  1.0000
  S   S303      1.0  0.63868  0.53389  0.13991  1.0000
  C   C901      1.0  0.34870  0.90145  0.15687  1.0000
  C   C902      1.0  0.42841  0.98709  0.21222  1.0000
  C   C903      1.0  0.52584  0.98693  0.20156  1.0000
  C   C904      1.0  0.37508  0.96499  0.08957  1.0000
  C   C905      1.0  0.64189  0.66160  0.13885  1.0000
  H   H905      1.0  0.64287  0.92100  0.13699  1.0000
  C   C906      1.0  0.41911  0.98330  0.22978  1.0000
  C   C907      1.0  0.33968  0.87815  0.15634  1.0000
  C   C908      1.0  0.63689  0.61913  0.14609  1.0000
  C   C909      1.0  0.55431  0.99982  0.14070  1.0000
  H   H906      1.0  0.55940  0.98981  0.13188  1.0000
  H   H907      1.0  0.47959  0.97078  0.18708  1.0000
  S   S304      1.0  0.35105  0.99186  0.04372  1.0000
  H   H908      1.0  0.36343  0.86509  0.18546  1.0000
  C   C910      1.0  0.36748  0.87871  0.19197  1.0000
  C   C911      1.0  0.35386  0.98453  0.20356  1.0000
  C   C912      1.0  0.35533  0.90253  0.20952  1.0000
  N   N75       1.0  0.64237  0.63379  0.19864  1.0000
  S   S305      1.0  0.51397  0.99271  0.13138  1.0000
  C   C913      1.0  0.39600  0.90868  0.19741  1.0000
  C   C914      1.0  0.37932  0.96337  0.11795  1.0000
  C   C915      1.0  0.41625  0.00243  0.23638  1.0000
  N   N76       1.0  0.35793  0.96659  0.12291  1.0000
  S   S306      1.0  0.61238  0.53028  0.17969  1.0000
  H   H909      1.0  0.34163  0.90747  0.21721  1.0000
  H   H910      1.0  0.63653  0.67668  0.13321  1.0000
  N   N77       1.0  0.50436  0.98532  0.19913  1.0000
  H   H911      1.0  0.35482  0.95668  0.14962  1.0000
  H   H912      1.0  0.35675  0.98729  0.14057  1.0000
  H   H913      1.0  0.50458  0.95016  0.17223  1.0000
  C   C916      1.0  0.39061  0.89058  0.18960  1.0000
  C   C917      1.0  0.51048  0.95997  0.18080  1.0000
  C   C918      1.0  0.63032  0.63881  0.13872  1.0000
  H   H914      1.0  0.61876  0.63605  0.18337  1.0000
  C   C919      1.0  0.63121  0.58565  0.20059  1.0000
  C   C920      1.0  0.48948  0.99806  0.20717  1.0000
  C   C921      1.0  0.64676  0.94384  0.21085  1.0000
  S   S307      1.0  0.64992  0.53242  0.21194  1.0000
  H   H915      1.0  0.38372  0.98919  0.21328  1.0000
  H   H916      1.0  0.53237  0.99801  0.20919  1.0000
  C   C922      1.0  0.64747  0.59519  0.20847  1.0000
  C   C923      1.0  0.65704  0.94120  0.15274  1.0000
  C   C924      1.0  0.65788  0.92711  0.14133  1.0000
  H   H917      1.0  0.34308  0.97065  0.08569  1.0000
  H   H918      1.0  0.63267  0.66519  0.20040  1.0000
  H   H919      1.0  0.65576  0.58375  0.21537  1.0000
  C   C925      1.0  0.65529  0.62242  0.15351  1.0000
  S   S308      1.0  0.65644  0.00315  0.21790  1.0000
  H   H920      1.0  0.65897  0.66404  0.20590  1.0000
  C   C926      1.0  0.53247  0.00380  0.14308  1.0000
  H   H921      1.0  0.66034  0.60741  0.15941  1.0000
  H   H922      1.0  0.65854  0.66932  0.18384  1.0000
  C   C927      1.0  0.66004  0.66487  0.14646  1.0000
  H   H923      1.0  0.58602  0.00475  0.14820  1.0000
  C   C928      1.0  0.33130  0.94389  0.02164  1.0000
  H   H924      1.0  0.33030  0.96420  0.14424  1.0000
  H   H925      1.0  0.40898  0.99946  0.24993  1.0000
  H   H926      1.0  0.42485  0.93381  0.31582  1.0000
  C   C929      1.0  0.65066  0.95775  0.44100  1.0000
  S   S309      1.0  0.62834  0.58843  0.40643  1.0000
  H   H927      1.0  0.36210  0.98333  0.47775  1.0000
  H   H928      1.0  0.62056  0.95835  0.39752  1.0000
  C   C930      1.0  0.59802  0.96439  0.41877  1.0000
  H   H929      1.0  0.58211  0.92956  0.45947  1.0000
  Fe  Fe157     1.0  0.65482  0.66466  0.47056  1.0000
  H   H930      1.0  0.63977  0.65375  0.43377  1.0000
  Fe  Fe158     1.0  0.44595  0.96192  0.39504  1.0000
  S   S310      1.0  0.42824  0.92511  0.41230  1.0000
  C   C931      1.0  0.41853  0.92877  0.36782  1.0000
  C   C932      1.0  0.39471  0.92166  0.37489  1.0000
  H   H931      1.0  0.44010  0.96218  0.31771  1.0000
  S   S311      1.0  0.60712  0.52059  0.43529  1.0000
  C   C933      1.0  0.63536  0.62518  0.42157  1.0000
  H   H932      1.0  0.57702  0.96631  0.44232  1.0000
  H   H933      1.0  0.64333  0.97224  0.43796  1.0000
  S   S312      1.0  0.63081  0.63052  0.47020  1.0000
  H   H934      1.0  0.44617  0.94409  0.34473  1.0000
  S   S313      1.0  0.64745  0.51053  0.46490  1.0000
  H   H935      1.0  0.38756  0.91415  0.38860  1.0000
  Fe  Fe159     1.0  0.62910  0.55025  0.41237  1.0000
  S   S314      1.0  0.35574  0.99381  0.31624  1.0000
  H   H936      1.0  0.51999  0.99721  0.40697  1.0000
  S   S315      1.0  0.65960  0.75157  0.46802  1.0000
  H   H937      1.0  0.63384  0.94836  0.46800  1.0000
  C   C934      1.0  0.38021  0.92419  0.36426  1.0000
  S   S316      1.0  0.62880  0.52730  0.39407  1.0000
  S   S317      1.0  0.42747  0.98742  0.38470  1.0000
  C   C935      1.0  0.63159  0.61972  0.45199  1.0000
  C   C936      1.0  0.39083  0.97070  0.44337  1.0000
  S   S318      1.0  0.64750  0.90786  0.48309  1.0000
  C   C937      1.0  0.63020  0.60054  0.42388  1.0000
  C   C938      1.0  0.62624  0.58565  0.44022  1.0000
  C   C939      1.0  0.62653  0.59516  0.45422  1.0000
  C   C940      1.0  0.65567  0.58532  0.36219  1.0000
  H   H938      1.0  0.60591  0.90234  0.46166  1.0000
  H   H939      1.0  0.62228  0.56667  0.44219  1.0000
  H   H940      1.0  0.62271  0.58335  0.46688  1.0000
  C   C941      1.0  0.63627  0.63480  0.43557  1.0000
  S   S319      1.0  0.47150  0.96774  0.36984  1.0000
  C   C942      1.0  0.59043  0.93572  0.44585  1.0000
  H   H941      1.0  0.66121  0.99546  0.32140  1.0000
  H   H942      1.0  0.39725  0.95660  0.43970  1.0000
  C   C943      1.0  0.42759  0.93828  0.35012  1.0000
  H   H943      1.0  0.62551  0.92211  0.41492  1.0000
  C   C944      1.0  0.61169  0.95191  0.41105  1.0000
  H   H944      1.0  0.62343  0.89887  0.44292  1.0000
  C   C945      1.0  0.58740  0.95638  0.43628  1.0000
  C   C946      1.0  0.61440  0.93137  0.42099  1.0000
  C   C947      1.0  0.38982  0.93349  0.34659  1.0000
  C   C948      1.0  0.35195  0.90334  0.44153  1.0000
  C   C949      1.0  0.36055  0.92269  0.42690  1.0000
  C   C950      1.0  0.38410  0.93004  0.41810  1.0000
  C   C951      1.0  0.39903  0.91769  0.42369  1.0000
  C   C952      1.0  0.39042  0.89848  0.43838  1.0000
  C   C953      1.0  0.36700  0.89150  0.44742  1.0000
  H   H945      1.0  0.34895  0.93197  0.42237  1.0000
  H   H946      1.0  0.39056  0.94487  0.40679  1.0000
  H   H947      1.0  0.40188  0.88885  0.44275  1.0000
  H   H948      1.0  0.36051  0.87653  0.45868  1.0000
  C   C954      1.0  0.60647  0.90165  0.44831  1.0000
  Fe  Fe160     1.0  0.64083  0.51558  0.43889  1.0000
  H   H949      1.0  0.37845  0.93544  0.33838  1.0000
  H   H950      1.0  0.65913  0.79994  0.46586  1.0000
  S   S320      1.0  0.64555  0.68206  0.49152  1.0000
  C   C955      1.0  0.42294  0.94892  0.32116  1.0000
  C   C956      1.0  0.37133  0.98562  0.46462  1.0000
  H   H951      1.0  0.63834  0.63681  0.40899  1.0000
  N   N78       1.0  0.37813  0.96734  0.45973  1.0000
  H   H952      1.0  0.36166  0.91894  0.36966  1.0000
  N   N79       1.0  0.41324  0.94045  0.33976  1.0000
  C   C957      1.0  0.37276  0.94437  0.47230  1.0000
  H   H953      1.0  0.33063  0.96847  0.25230  1.0000
  N   N80       1.0  0.60395  0.92361  0.43819  1.0000
  H   H954      1.0  0.41174  0.95799  0.31501  1.0000
  C   C958      1.0  0.64497  0.94397  0.45796  1.0000
  Fe  Fe161     1.0  0.45488  0.99546  0.36014  1.0000
  H   H955      1.0  0.42987  0.92686  0.37606  1.0000
  H   H956      1.0  0.59579  0.98038  0.41123  1.0000
  H   H957      1.0  0.37017  0.92961  0.46612  1.0000
  C   C959      1.0  0.65391  0.92470  0.46192  1.0000
  H   H958      1.0  0.38707  0.94389  0.47837  1.0000
  H   H959      1.0  0.63922  0.58646  0.36929  1.0000
  H   H960      1.0  0.59249  0.88624  0.44854  1.0000
  H   H961      1.0  0.35644  0.94112  0.48233  1.0000
  S   S321      1.0  0.47000  0.98779  0.40377  1.0000
  H   H962      1.0  0.40587  0.99510  0.41817  1.0000
  H   H963      1.0  0.64620  0.58694  0.33866  1.0000
  C   C960      1.0  0.40423  0.99171  0.34209  1.0000
  H   H964      1.0  0.40460  0.98576  0.35521  1.0000
  C   C961      1.0  0.39577  0.99237  0.43114  1.0000
  Fe  Fe162     1.0  0.49381  0.99618  0.37760  1.0000
  C   C962      1.0  0.38302  0.98923  0.33803  1.0000
  H   H965      1.0  0.36705  0.98172  0.34810  1.0000
  S   S322      1.0  0.45160  0.00147  0.33321  1.0000
  C   C963      1.0  0.38243  0.99653  0.32099  1.0000
  C   C964      1.0  0.42486  0.00111  0.32906  1.0000
  C   C965      1.0  0.65975  0.58561  0.34492  1.0000
  Fe  Fe163     1.0  0.66074  0.52133  0.40093  1.0000
  S   S323      1.0  0.36291  0.00320  0.26584  1.0000
  H   H966      1.0  0.65841  0.51604  0.36649  1.0000
  H   H967      1.0  0.65967  0.52055  0.33598  1.0000
  S   S324      1.0  0.66245  0.54661  0.41718  1.0000
  C   C966      1.0  0.53846  0.00472  0.40197  1.0000
  S   S325      1.0  0.53260  0.00448  0.36988  1.0000
  C   C967      1.0  0.34100  0.94643  0.55123  1.0000
  C   C968      1.0  0.66180  0.63732  0.55469  1.0000
  S   S326      1.0  0.62453  0.91717  0.66737  1.0000
  C   C969      1.0  0.65002  0.90966  0.69017  1.0000
  C   C970      1.0  0.38865  0.91702  0.54864  1.0000
  C   C971      1.0  0.64969  0.63301  0.64621  1.0000
  H   H968      1.0  0.37949  0.98664  0.63642  1.0000
  C   C972      1.0  0.34507  0.85118  0.54704  1.0000
  H   H969      1.0  0.64691  0.61955  0.50059  1.0000
  H   H970      1.0  0.59039  0.63254  0.63816  1.0000
  S   S327      1.0  0.36048  0.84034  0.51682  1.0000
  H   H971      1.0  0.33566  0.95961  0.68781  1.0000
  Fe  Fe164     1.0  0.44602  0.88473  0.59985  1.0000
  S   S328      1.0  0.41032  0.86725  0.61759  1.0000
  S   S329      1.0  0.47565  0.86979  0.60400  1.0000
  Fe  Fe165     1.0  0.43101  0.92414  0.58019  1.0000
  S   S330      1.0  0.39456  0.91088  0.59645  1.0000
  S   S331      1.0  0.44250  0.95583  0.55748  1.0000
  Fe  Fe166     1.0  0.40988  0.90415  0.61849  1.0000
  S   S332      1.0  0.40047  0.91627  0.64225  1.0000
  Fe  Fe167     1.0  0.39789  0.87525  0.59399  1.0000
  S   S333      1.0  0.36633  0.85268  0.58966  1.0000
  S   S334      1.0  0.44622  0.92115  0.60237  1.0000
  S   S335      1.0  0.43354  0.88900  0.57610  1.0000
  N   N81       1.0  0.35650  0.93245  0.54599  1.0000
  S   S336      1.0  0.61673  0.95922  0.62652  1.0000
  C   C973      1.0  0.40346  0.99564  0.54032  1.0000
  S   S337      1.0  0.62395  0.94052  0.59188  1.0000
  H   H972      1.0  0.63363  0.60855  0.63366  1.0000
  Fe  Fe168     1.0  0.64608  0.96232  0.60428  1.0000
  Fe  Fe169     1.0  0.59515  0.93513  0.61505  1.0000
  S   S338      1.0  0.56228  0.94249  0.61074  1.0000
  S   S339      1.0  0.60085  0.90232  0.63007  1.0000
  Fe  Fe170     1.0  0.60429  0.55881  0.63559  1.0000
  S   S340      1.0  0.57312  0.56564  0.62799  1.0000
  S   S341      1.0  0.61282  0.56366  0.65995  1.0000
  H   H973      1.0  0.59102  0.61887  0.70993  1.0000
  S   S342      1.0  0.58966  0.54549  0.59468  1.0000
  Fe  Fe171     1.0  0.59734  0.58009  0.60152  1.0000
  S   S343      1.0  0.59534  0.61262  0.58346  1.0000
  Fe  Fe172     1.0  0.56809  0.53042  0.62185  1.0000
  C   C974      1.0  0.35800  0.97580  0.66239  1.0000
  H   H974      1.0  0.61151  0.67013  0.64274  1.0000
  Fe  Fe173     1.0  0.61920  0.54003  0.60503  1.0000
  C   C975      1.0  0.38618  0.90655  0.53544  1.0000
  C   C976      1.0  0.62059  0.62839  0.56708  1.0000
  C   C977      1.0  0.64203  0.62537  0.56827  1.0000
  H   H975      1.0  0.61606  0.92473  0.52358  1.0000
  H   H976      1.0  0.36598  0.89994  0.51791  1.0000
  C   C978      1.0  0.63874  0.65495  0.53855  1.0000
  C   C979      1.0  0.61907  0.64357  0.55233  1.0000
  H   H977      1.0  0.64347  0.61411  0.57970  1.0000
  H   H978      1.0  0.61640  0.67087  0.67140  1.0000
  H   H979      1.0  0.36935  0.94605  0.63248  1.0000
  H   H980      1.0  0.60254  0.64616  0.55142  1.0000
  H   H981      1.0  0.59448  0.88512  0.59223  1.0000
  H   H982      1.0  0.34480  0.79281  0.54129  1.0000
  S   S344      1.0  0.64336  0.52195  0.59241  1.0000
  H   H983      1.0  0.34246  0.91294  0.65612  1.0000
  C   C980      1.0  0.50135  0.89000  0.60377  1.0000
  C   C981      1.0  0.50448  0.91442  0.59847  1.0000
  C   C982      1.0  0.52387  0.93030  0.59996  1.0000
  C   C983      1.0  0.54051  0.92196  0.60653  1.0000
  C   C984      1.0  0.53813  0.89756  0.61104  1.0000
  C   C985      1.0  0.51851  0.88160  0.60968  1.0000
  H   H984      1.0  0.49196  0.92116  0.59325  1.0000
  H   H985      1.0  0.52571  0.94916  0.59633  1.0000
  H   H986      1.0  0.55080  0.89097  0.61629  1.0000
  H   H987      1.0  0.51626  0.86270  0.61371  1.0000
  C   C986      1.0  0.36296  0.84601  0.53641  1.0000
  H   H988      1.0  0.66148  0.56674  0.65040  1.0000
  H   H989      1.0  0.64758  0.51837  0.63019  1.0000
  C   C987      1.0  0.36627  0.85219  0.56858  1.0000
  C   C988      1.0  0.38457  0.84789  0.55772  1.0000
  C   C989      1.0  0.38278  0.84452  0.54175  1.0000
  C   C990      1.0  0.65788  0.87270  0.64181  1.0000
  H   H990      1.0  0.47903  0.00250  0.54825  1.0000
  H   H991      1.0  0.39970  0.84622  0.56191  1.0000
  H   H992      1.0  0.39671  0.84053  0.53361  1.0000
  C   C991      1.0  0.63721  0.61076  0.64549  1.0000
  C   C992      1.0  0.38825  0.99585  0.55531  1.0000
  H   H993      1.0  0.63387  0.90512  0.69993  1.0000
  C   C993      1.0  0.42157  0.97111  0.55692  1.0000
  C   C994      1.0  0.40681  0.97177  0.57200  1.0000
  H   H994      1.0  0.65565  0.64787  0.63488  1.0000
  C   C995      1.0  0.63598  0.61089  0.51343  1.0000
  C   C996      1.0  0.37345  0.92983  0.55388  1.0000
  H   H995      1.0  0.40843  0.96300  0.58427  1.0000
  C   C997      1.0  0.65385  0.63632  0.66161  1.0000
  H   H996      1.0  0.63902  0.89611  0.52057  1.0000
  S   S345      1.0  0.60367  0.64403  0.73986  1.0000
  H   H997      1.0  0.39768  0.89629  0.53143  1.0000
  C   C998      1.0  0.58662  0.89116  0.58184  1.0000
  C   C999      1.0  0.41981  0.98300  0.54112  1.0000
  S   S346      1.0  0.33170  0.88518  0.49739  1.0000
  C   C1000     1.0  0.35077  0.86141  0.69001  1.0000
  C   C1001     1.0  0.36162  0.88406  0.69079  1.0000
  C   C1002     1.0  0.37724  0.90060  0.67613  1.0000
  C   C1003     1.0  0.38197  0.89463  0.66060  1.0000
  C   C1004     1.0  0.37127  0.87193  0.65984  1.0000
  C   C1005     1.0  0.35579  0.85529  0.67456  1.0000
  H   H998      1.0  0.38554  0.91813  0.67680  1.0000
  H   H999      1.0  0.37460  0.86723  0.64788  1.0000
  C   C1006     1.0  0.63946  0.86831  0.65614  1.0000
  C   C1007     1.0  0.66012  0.65167  0.53965  1.0000
  C   C1008     1.0  0.60090  0.63545  0.69977  1.0000
  Fe  Fe174     1.0  0.63153  0.90977  0.60783  1.0000
  H   H1000     1.0  0.61944  0.63828  0.69922  1.0000
  C   C1009     1.0  0.61559  0.91134  0.53478  1.0000
  C   C1010     1.0  0.63385  0.59474  0.67543  1.0000
  S   S347      1.0  0.62897  0.57596  0.60965  1.0000
  H   H1001     1.0  0.62780  0.57993  0.68679  1.0000
  Fe  Fe175     1.0  0.62548  0.92691  0.63936  1.0000
  H   H1002     1.0  0.35811  0.88879  0.70271  1.0000
  C   C1011     1.0  0.65424  0.52841  0.63879  1.0000
  H   H1003     1.0  0.59674  0.58141  0.55924  1.0000
  C   C1012     1.0  0.61383  0.87688  0.56343  1.0000
  H   H1004     1.0  0.57481  0.59605  0.66244  1.0000
  N   N82       1.0  0.66339  0.85925  0.67450  1.0000
  C   C1013     1.0  0.60647  0.65464  0.66963  1.0000
  S   S348      1.0  0.59727  0.52227  0.63177  1.0000
  S   S349      1.0  0.65672  0.93195  0.61797  1.0000
  C   C1014     1.0  0.63065  0.58908  0.54200  1.0000
  H   H1005     1.0  0.56954  0.87833  0.58413  1.0000
  H   H1006     1.0  0.34169  0.96076  0.54006  1.0000
  H   H1007     1.0  0.40216  0.91511  0.55487  1.0000
  N   N83       1.0  0.46496  0.89533  0.64494  1.0000
  C   C1015     1.0  0.48473  0.88964  0.64667  1.0000
  C   C1016     1.0  0.46470  0.91855  0.64091  1.0000
  C   C1017     1.0  0.50484  0.90740  0.64467  1.0000
  C   C1018     1.0  0.48465  0.93678  0.63850  1.0000
  C   C1019     1.0  0.50482  0.93111  0.64043  1.0000
  C   C1020     1.0  0.44414  0.87625  0.64730  1.0000
  H   H1008     1.0  0.48513  0.87129  0.64928  1.0000
  H   H1009     1.0  0.44911  0.92313  0.63936  1.0000
  H   H1010     1.0  0.52067  0.90294  0.64571  1.0000
  H   H1011     1.0  0.48455  0.95518  0.63493  1.0000
  H   H1012     1.0  0.52064  0.94503  0.63815  1.0000
  H   H1013     1.0  0.42909  0.88311  0.64618  1.0000
  H   H1014     1.0  0.44719  0.86651  0.63745  1.0000
  H   H1015     1.0  0.43946  0.86365  0.66018  1.0000
  H   H1016     1.0  0.61329  0.86331  0.57456  1.0000
  H   H1017     1.0  0.65898  0.85957  0.57183  1.0000
  C   C1021     1.0  0.62846  0.89522  0.53305  1.0000
  H   H1018     1.0  0.34000  0.80140  0.56791  1.0000
  H   H1019     1.0  0.59190  0.92234  0.55222  1.0000
  H   H1020     1.0  0.33971  0.92326  0.52741  1.0000
  N   N84       1.0  0.60153  0.89298  0.56507  1.0000
  H   H1021     1.0  0.34746  0.83778  0.67389  1.0000
  H   H1022     1.0  0.43111  0.98244  0.52943  1.0000
  C   C1022     1.0  0.36169  0.94934  0.64446  1.0000
  H   H1023     1.0  0.62305  0.87073  0.65462  1.0000
  C   C1023     1.0  0.62755  0.87783  0.54743  1.0000
  C   C1024     1.0  0.61300  0.61150  0.51722  1.0000
  Fe  Fe176     1.0  0.63930  0.66469  0.72367  1.0000
  S   S350      1.0  0.63890  0.88015  0.59739  1.0000
  C   C1025     1.0  0.60204  0.90990  0.55098  1.0000
  H   H1024     1.0  0.63755  0.86523  0.54621  1.0000
  C   C1026     1.0  0.64248  0.86143  0.67248  1.0000
  H   H1025     1.0  0.37530  0.93760  0.56429  1.0000
  C   C1027     1.0  0.64615  0.61702  0.67617  1.0000
  H   H1026     1.0  0.65574  0.87808  0.62906  1.0000
  H   H1027     1.0  0.58101  0.60140  0.53700  1.0000
  H   H1028     1.0  0.65514  0.57253  0.57852  1.0000
  H   H1029     1.0  0.36241  0.99336  0.66436  1.0000
  H   H1030     1.0  0.60645  0.62058  0.50740  1.0000
  C   C1028     1.0  0.36847  0.90875  0.52778  1.0000
  H   H1031     1.0  0.37842  0.98433  0.58282  1.0000
  H   H1032     1.0  0.52504  0.50584  0.57325  1.0000
  H   H1033     1.0  0.54346  0.52027  0.59428  1.0000
  S   S351      1.0  0.33057  0.84070  0.70810  1.0000
  S   S352      1.0  0.64275  0.69024  0.69879  1.0000
  H   H1034     1.0  0.58393  0.90859  0.58279  1.0000
  C   C1029     1.0  0.34288  0.95665  0.67561  1.0000
  C   C1030     1.0  0.34659  0.85395  0.56315  1.0000
  C   C1031     1.0  0.62907  0.59164  0.66017  1.0000
  H   H1035     1.0  0.63892  0.52909  0.64835  1.0000
  N   N85       1.0  0.59745  0.63458  0.68299  1.0000
  C   C1032     1.0  0.58609  0.61375  0.68055  1.0000
  C   C1033     1.0  0.58317  0.61277  0.66445  1.0000
  C   C1034     1.0  0.60383  0.65431  0.65337  1.0000
  C   C1035     1.0  0.59204  0.63323  0.65080  1.0000
  H   H1036     1.0  0.57974  0.59759  0.69093  1.0000
  H   H1037     1.0  0.63733  0.66647  0.52722  1.0000
  C   C1036     1.0  0.35365  0.92183  0.53326  1.0000
  C   C1037     1.0  0.39000  0.98400  0.57118  1.0000
  C   C1038     1.0  0.59873  0.60062  0.53375  1.0000
  H   H1038     1.0  0.59527  0.65026  0.70376  1.0000
  C   C1039     1.0  0.60753  0.58923  0.54622  1.0000
  H   H1039     1.0  0.34590  0.95521  0.56096  1.0000
  H   H1040     1.0  0.64963  0.61924  0.68801  1.0000
  H   H1041     1.0  0.62813  0.85848  0.68352  1.0000
  C   C1040     1.0  0.65054  0.91708  0.67289  1.0000
  C   C1041     1.0  0.36750  0.97205  0.64674  1.0000
  C   C1042     1.0  0.65919  0.99810  0.55118  1.0000
  H   H1042     1.0  0.63756  0.58087  0.55190  1.0000
  H   H1043     1.0  0.33239  0.85728  0.57150  1.0000
  N   N86       1.0  0.33737  0.93442  0.67328  1.0000
  H   H1044     1.0  0.64482  0.98930  0.56248  1.0000
  C   C1043     1.0  0.34645  0.93062  0.65793  1.0000
  N   N87       1.0  0.64449  0.59965  0.52572  1.0000
  H   H1045     1.0  0.65404  0.85625  0.70131  1.0000
  S   S353      1.0  0.33358  0.88608  0.73806  1.0000
  H   H1046     1.0  0.66275  0.83162  0.69541  1.0000
  C   C1044     1.0  0.66221  0.89227  0.57910  1.0000
  H   H1047     1.0  0.48775  0.00311  0.51761  1.0000
  S   S354      1.0  0.66320  0.64563  0.71233  1.0000
  H   H1048     1.0  0.36726  0.93060  0.89052  1.0000
  S   S355      1.0  0.63403  0.98096  0.84090  1.0000
  C   C1045     1.0  0.63860  0.84754  0.93917  1.0000
  H   H1049     1.0  0.34139  0.94037  0.91332  1.0000
  C   C1046     1.0  0.64807  0.90409  0.90586  1.0000
  H   H1050     1.0  0.59485  0.54092  0.91072  1.0000
  H   H1051     1.0  0.33210  0.99550  0.87527  1.0000
  H   H1052     1.0  0.62877  0.66381  0.87990  1.0000
  C   C1047     1.0  0.38514  0.83161  0.81386  1.0000
  H   H1053     1.0  0.60469  0.63594  0.91959  1.0000
  Fe  Fe177     1.0  0.60254  0.95079  0.85543  1.0000
  H   H1054     1.0  0.48200  0.98912  0.86144  1.0000
  Fe  Fe178     1.0  0.63037  0.92275  0.87283  1.0000
  S   S356      1.0  0.63547  0.89251  0.89126  1.0000
  S   S357      1.0  0.61847  0.92250  0.84901  1.0000
  Fe  Fe179     1.0  0.63412  0.58498  0.85461  1.0000
  S   S358      1.0  0.63026  0.54924  0.84925  1.0000
  S   S359      1.0  0.65511  0.59412  0.87289  1.0000
  Fe  Fe180     1.0  0.60847  0.60072  0.82922  1.0000
  S   S360      1.0  0.60281  0.56707  0.82129  1.0000
  S   S361      1.0  0.59369  0.62940  0.81870  1.0000
  Fe  Fe181     1.0  0.59376  0.54903  0.84918  1.0000
  H   H1055     1.0  0.57638  0.62522  0.90327  1.0000
  Fe  Fe182     1.0  0.63949  0.57009  0.82178  1.0000
  C   C1048     1.0  0.34285  0.88600  0.91405  1.0000
  S   S362      1.0  0.59672  0.58285  0.85731  1.0000
  S   S363      1.0  0.64609  0.60573  0.82701  1.0000
  H   H1056     1.0  0.57604  0.65784  0.79542  1.0000
  H   H1057     1.0  0.65297  0.79798  0.93553  1.0000
  H   H1058     1.0  0.34564  0.98462  0.97113  1.0000
  Fe  Fe183     1.0  0.40399  0.88909  0.84893  1.0000
  S   S364      1.0  0.43310  0.90636  0.85826  1.0000
  S   S365      1.0  0.36736  0.86947  0.86340  1.0000
  Fe  Fe184     1.0  0.43034  0.90866  0.81184  1.0000
  S   S366      1.0  0.46233  0.92822  0.81723  1.0000
  S   S367      1.0  0.42518  0.90900  0.78581  1.0000
  Fe  Fe185     1.0  0.45587  0.89538  0.83835  1.0000
  S   S368      1.0  0.48486  0.88120  0.84483  1.0000
  Fe  Fe186     1.0  0.43802  0.93813  0.83673  1.0000
  S   S369      1.0  0.44778  0.97389  0.84164  1.0000
  S   S370      1.0  0.42599  0.87460  0.83111  1.0000
  S   S371      1.0  0.40670  0.92195  0.82924  1.0000
  H   H1059     1.0  0.61131  0.55832  0.88935  1.0000
  C   C1049     1.0  0.38217  0.83343  0.78563  1.0000
  H   H1060     1.0  0.35330  0.81742  0.83405  1.0000
  C   C1050     1.0  0.59599  0.55608  0.89998  1.0000
  C   C1051     1.0  0.35661  0.87603  0.80243  1.0000
  H   H1061     1.0  0.52670  0.54153  0.84866  1.0000
  H   H1062     1.0  0.39945  0.96172  0.76453  1.0000
  C   C1052     1.0  0.44014  0.99540  0.82790  1.0000
  H   H1063     1.0  0.63347  0.81091  0.92622  1.0000
  H   H1064     1.0  0.55254  0.56540  0.84135  1.0000
  C   C1053     1.0  0.37944  0.88653  0.80207  1.0000
  C   C1054     1.0  0.39636  0.89643  0.78646  1.0000
  H   H1065     1.0  0.37513  0.95616  0.84447  1.0000
  H   H1066     1.0  0.38395  0.88667  0.81393  1.0000
  C   C1055     1.0  0.59991  0.93896  0.81056  1.0000
  C   C1056     1.0  0.65023  0.81510  0.92940  1.0000
  N   N88       1.0  0.34387  0.92634  0.80036  1.0000
  C   C1057     1.0  0.34502  0.95040  0.90010  1.0000
  C   C1058     1.0  0.37845  0.95019  0.85709  1.0000
  C   C1059     1.0  0.35832  0.82313  0.79178  1.0000
  C   C1060     1.0  0.36486  0.88284  0.90930  1.0000
  C   C1061     1.0  0.37289  0.87870  0.89342  1.0000
  C   C1062     1.0  0.35865  0.87708  0.88245  1.0000
  S   S372      1.0  0.65088  0.68192  0.90329  1.0000
  H   H1067     1.0  0.52518  0.57159  0.84133  1.0000
  H   H1068     1.0  0.37562  0.88331  0.91801  1.0000
  H   H1069     1.0  0.38973  0.87581  0.88995  1.0000
  Fe  Fe187     1.0  0.65062  0.95265  0.83621  1.0000
  H   H1070     1.0  0.36310  0.88431  0.75980  1.0000
  C   C1063     1.0  0.59752  0.63415  0.79663  1.0000
  C   C1064     1.0  0.58638  0.64891  0.78831  1.0000
  C   C1065     1.0  0.58838  0.65201  0.77083  1.0000
  C   C1066     1.0  0.60175  0.64057  0.76159  1.0000
  C   C1067     1.0  0.61281  0.62568  0.76989  1.0000
  C   C1068     1.0  0.61074  0.62249  0.78742  1.0000
  S   S373      1.0  0.36441  0.00176  0.79006  1.0000
  S   S374      1.0  0.33102  0.95838  0.83371  1.0000
  H   H1071     1.0  0.62253  0.61625  0.76285  1.0000
  H   H1072     1.0  0.61940  0.61106  0.79376  1.0000
  C   C1069     1.0  0.61388  0.58391  0.91424  1.0000
  H   H1073     1.0  0.49937  0.98403  0.84303  1.0000
  C   C1070     1.0  0.52602  0.53717  0.81841  1.0000
  C   C1071     1.0  0.58994  0.91642  0.80910  1.0000
  C   C1072     1.0  0.34009  0.98151  0.87877  1.0000
  C   C1073     1.0  0.39033  0.89570  0.77122  1.0000
  H   H1074     1.0  0.46836  0.90449  0.87961  1.0000
  C   C1074     1.0  0.65313  0.91725  0.80777  1.0000
  H   H1075     1.0  0.40339  0.90324  0.75911  1.0000
  S   S375      1.0  0.65082  0.88601  0.76952  1.0000
  H   H1076     1.0  0.36342  0.94447  0.75722  1.0000
  C   C1075     1.0  0.33684  0.88067  0.88704  1.0000
  H   H1077     1.0  0.62594  0.97223  0.79822  1.0000
  S   S376      1.0  0.56128  0.51847  0.86215  1.0000
  N   N89       1.0  0.39520  0.83785  0.79662  1.0000
  H   H1078     1.0  0.39008  0.83855  0.77195  1.0000
  S   S377      1.0  0.57013  0.95787  0.84977  1.0000
  H   H1079     1.0  0.65596  0.87652  0.96724  1.0000
  C   C1076     1.0  0.54856  0.93609  0.84638  1.0000
  C   C1077     1.0  0.53207  0.94337  0.83895  1.0000
  C   C1078     1.0  0.51283  0.92662  0.83805  1.0000
  C   C1079     1.0  0.51001  0.90240  0.84442  1.0000
  C   C1080     1.0  0.52708  0.89505  0.85116  1.0000
  C   C1081     1.0  0.54634  0.91187  0.85217  1.0000
  N   N90       1.0  0.59758  0.90997  0.79455  1.0000
  H   H1080     1.0  0.49993  0.93253  0.83275  1.0000
  H   H1081     1.0  0.52501  0.87631  0.85609  1.0000
  H   H1082     1.0  0.55892  0.90608  0.85802  1.0000
  C   C1082     1.0  0.36130  0.82147  0.82044  1.0000
  H   H1083     1.0  0.65561  0.65753  0.77186  1.0000
  C   C1083     1.0  0.64135  0.63423  0.87560  1.0000
  C   C1084     1.0  0.65593  0.62036  0.87945  1.0000
  C   C1085     1.0  0.42318  0.98861  0.81975  1.0000
  H   H1084     1.0  0.53165  0.97629  0.87096  1.0000
  C   C1086     1.0  0.55622  0.57393  0.79145  1.0000
  H   H1085     1.0  0.63007  0.62960  0.86775  1.0000
  H   H1086     1.0  0.42712  0.85860  0.79838  1.0000
  H   H1087     1.0  0.59413  0.94390  0.82220  1.0000
  C   C1087     1.0  0.42018  0.84857  0.78990  1.0000
  C   C1088     1.0  0.36747  0.88512  0.77158  1.0000
  H   H1088     1.0  0.62305  0.92310  0.91166  1.0000
  H   H1089     1.0  0.53382  0.96208  0.83430  1.0000
  H   H1090     1.0  0.58033  0.55129  0.89544  1.0000
  H   H1091     1.0  0.37490  0.93056  0.86008  1.0000
  C   C1089     1.0  0.63828  0.91879  0.91425  1.0000
  S   S378      1.0  0.61149  0.94840  0.88051  1.0000
  H   H1092     1.0  0.50155  0.90129  0.89145  1.0000
  C   C1090     1.0  0.65460  0.65942  0.89318  1.0000
  H   H1093     1.0  0.39936  0.95640  0.79496  1.0000
  C   C1091     1.0  0.49840  0.98508  0.85635  1.0000
  C   C1092     1.0  0.61427  0.92591  0.78091  1.0000
  H   H1094     1.0  0.57967  0.66338  0.76444  1.0000
  H   H1095     1.0  0.57625  0.90406  0.81978  1.0000
  C   C1093     1.0  0.53542  0.55899  0.83909  1.0000
  N   N91       1.0  0.36372  0.95690  0.87041  1.0000
  C   C1094     1.0  0.35955  0.94484  0.88715  1.0000
  C   C1095     1.0  0.35480  0.97551  0.86616  1.0000
  C   C1096     1.0  0.55291  0.57540  0.80832  1.0000
  H   H1096     1.0  0.60052  0.87978  0.78553  1.0000
  N   N92       1.0  0.53829  0.55698  0.82155  1.0000
  N   N93       1.0  0.49889  0.96239  0.86685  1.0000
  C   C1097     1.0  0.48127  0.94258  0.86933  1.0000
  C   C1098     1.0  0.51718  0.96082  0.87344  1.0000
  C   C1099     1.0  0.48183  0.92033  0.87835  1.0000
  C   C1100     1.0  0.51817  0.93890  0.88269  1.0000
  C   C1101     1.0  0.50048  0.91853  0.88499  1.0000
  H   H1097     1.0  0.56806  0.58852  0.78103  1.0000
  H   H1098     1.0  0.46705  0.94388  0.86383  1.0000
  C   C1102     1.0  0.35054  0.87526  0.78720  1.0000
  C   C1103     1.0  0.34783  0.81735  0.80928  1.0000
  C   C1104     1.0  0.34371  0.92937  0.78363  1.0000
  C   C1105     1.0  0.64063  0.65361  0.88250  1.0000
  H   H1099     1.0  0.63509  0.88372  0.80503  1.0000
  H   H1100     1.0  0.54697  0.55189  0.77519  1.0000
  H   H1101     1.0  0.63864  0.96074  0.77145  1.0000
  C   C1106     1.0  0.58471  0.59254  0.90149  1.0000
  H   H1102     1.0  0.42906  0.83465  0.78860  1.0000
  C   C1107     1.0  0.38372  0.94903  0.79167  1.0000
  C   C1108     1.0  0.58736  0.88614  0.79328  1.0000
  H   H1103     1.0  0.57539  0.51666  0.82672  1.0000
  H   H1104     1.0  0.64478  0.91295  0.82123  1.0000
  C   C1109     1.0  0.65404  0.86333  0.96010  1.0000
  N   N94       1.0  0.59803  0.57792  0.90550  1.0000
  H   H1105     1.0  0.58070  0.87308  0.80608  1.0000
  C   C1110     1.0  0.38376  0.95201  0.77457  1.0000
  H   H1106     1.0  0.63943  0.93793  0.93335  1.0000
  C   C1111     1.0  0.62470  0.94855  0.78199  1.0000
  H   H1107     1.0  0.39544  0.83499  0.82261  1.0000
  C   C1112     1.0  0.61760  0.95497  0.79700  1.0000
  C   C1113     1.0  0.36361  0.94228  0.77048  1.0000
  C   C1114     1.0  0.58666  0.61344  0.90669  1.0000
  H   H1108     1.0  0.62518  0.57290  0.91671  1.0000
  H   H1109     1.0  0.62918  0.60966  0.92626  1.0000
  C   C1115     1.0  0.52902  0.53498  0.80172  1.0000
  C   C1116     1.0  0.61621  0.60461  0.91969  1.0000
  H   H1110     1.0  0.51430  0.52255  0.82885  1.0000
  C   C1117     1.0  0.36342  0.93627  0.80449  1.0000
  H   H1111     1.0  0.53321  0.93762  0.88721  1.0000
  C   C1118     1.0  0.54431  0.55346  0.78818  1.0000
  H   H1112     1.0  0.42443  0.86175  0.77727  1.0000
  H   H1113     1.0  0.57263  0.58824  0.89410  1.0000
  H   H1114     1.0  0.51298  0.00003  0.85597  1.0000
  N   N95       1.0  0.65060  0.83096  0.94061  1.0000
  C   C1119     1.0  0.64755  0.92716  0.92654  1.0000
  H   H1115     1.0  0.56228  0.59128  0.81082  1.0000
  H   H1116     1.0  0.41499  0.97018  0.82159  1.0000
  Fe  Fe188     1.0  0.64446  0.97599  0.86523  1.0000
  H   H1117     1.0  0.57301  0.88633  0.78721  1.0000
  H   H1118     1.0  0.62028  0.92081  0.76935  1.0000
  H   H1119     1.0  0.39689  0.95824  0.85604  1.0000
  C   C1120     1.0  0.60243  0.61939  0.91594  1.0000
  H   H1120     1.0  0.34785  0.82068  0.78298  1.0000
  H   H1121     1.0  0.36344  0.93416  0.81775  1.0000
  H   H1122     1.0  0.62852  0.84885  0.92995  1.0000
  H   H1123     1.0  0.63034  0.87683  0.94790  1.0000
  H   H1124     1.0  0.35831  0.98523  0.85288  1.0000
  C   C1121     1.0  0.64779  0.90063  0.79863  1.0000
  C   C1122     1.0  0.63968  0.86354  0.94921  1.0000
  H   H1125     1.0  0.34366  0.86824  0.81458  1.0000
  C   C1123     1.0  0.33500  0.96869  0.89582  1.0000
  H   H1126     1.0  0.40330  0.00036  0.80314  1.0000
  Fe  Fe189     1.0  0.33931  0.99458  0.81565  1.0000
  H   H1127     1.0  0.66109  0.98046  0.90955  1.0000
  S   S379      1.0  0.33272  0.88979  0.93439  1.0000
  H   H1128     1.0  0.51985  0.51877  0.79942  1.0000
  C   C1124     1.0  0.65885  0.90592  0.78121  1.0000
  S   S380      1.0  0.66295  0.56188  0.80072  1.0000
  H   H1129     1.0  0.89200  0.28563  0.18917  1.0000
  H   H1130     1.0  0.97791  0.28011  0.21993  1.0000
  C   C1125     1.0  0.70674  0.06378  0.22783  1.0000
  C   C1126     1.0  0.75551  0.03204  0.18013  1.0000
  S   S381      1.0  0.69747  0.05903  0.13619  1.0000
  C   C1127     1.0  0.90673  0.33230  0.20561  1.0000
  H   H1131     1.0  0.66926  0.06166  0.11217  1.0000
  H   H1132     1.0  0.91463  0.10350  0.09453  1.0000
  S   S382      1.0  0.78967  0.08999  0.22476  1.0000
  H   H1133     1.0  0.92246  0.37705  0.20371  1.0000
  C   C1128     1.0  0.74558  0.06394  0.19067  1.0000
  Fe  Fe190     1.0  0.82978  0.02480  0.06114  1.0000
  C   C1129     1.0  0.95031  0.18534  0.01946  1.0000
  S   S383      1.0  0.96234  0.34004  0.14147  1.0000
  S   S384      1.0  0.96238  0.40425  0.14876  1.0000
  H   H1134     1.0  0.91142  0.31759  0.16226  1.0000
  H   H1135     1.0  0.74837  0.07683  0.19798  1.0000
  C   C1130     1.0  0.99439  0.45561  0.17662  1.0000
  C   C1131     1.0  0.70063  0.02201  0.12214  1.0000
  C   C1132     1.0  0.75149  0.03174  0.00228  1.0000
  H   H1136     1.0  0.95838  0.22333  0.01311  1.0000
  H   H1137     1.0  0.89080  0.12981  0.09412  1.0000
  C   C1133     1.0  0.85457  0.09567  0.21823  1.0000
  Fe  Fe191     1.0  0.80912  0.03636  0.03137  1.0000
  S   S385      1.0  0.84247  0.05339  0.03640  1.0000
  H   H1138     1.0  0.94775  0.37658  0.18838  1.0000
  N   N96       1.0  0.73788  0.03037  0.17248  1.0000
  S   S386      1.0  0.81146  0.04516  0.07626  1.0000
  H   H1139     1.0  0.95970  0.32270  0.19964  1.0000
  Fe  Fe192     1.0  0.82235  0.07294  0.05109  1.0000
  S   S387      1.0  0.83624  0.11128  0.05086  1.0000
  C   C1134     1.0  0.72726  0.50157  0.20903  1.0000
  S   S388      1.0  0.78996  0.05893  0.04360  1.0000
  C   C1135     1.0  0.99031  0.41849  0.16867  1.0000
  Fe  Fe193     1.0  0.95704  0.22061  0.07959  1.0000
  S   S389      1.0  0.95630  0.18298  0.09117  1.0000
  S   S390      1.0  0.93942  0.23932  0.09683  1.0000
  C   C1136     1.0  0.98938  0.30179  0.08439  1.0000
  H   H1140     1.0  0.86565  0.09721  0.20543  1.0000
  Fe  Fe194     1.0  0.95399  0.17724  0.06565  1.0000
  S   S391      1.0  0.93597  0.14228  0.06173  1.0000
  C   C1137     1.0  0.72391  0.04502  0.17385  1.0000
  S   S392      1.0  0.95125  0.21389  0.05493  1.0000
  C   C1138     1.0  0.86472  0.12080  0.05237  1.0000
  C   C1139     1.0  0.87274  0.14321  0.05499  1.0000
  C   C1140     1.0  0.89490  0.15052  0.05732  1.0000
  C   C1141     1.0  0.90917  0.13545  0.05693  1.0000
  C   C1142     1.0  0.90149  0.11349  0.05363  1.0000
  C   C1143     1.0  0.87930  0.10610  0.05151  1.0000
  H   H1141     1.0  0.86155  0.15471  0.05559  1.0000
  H   H1142     1.0  0.90063  0.16748  0.05987  1.0000
  H   H1143     1.0  0.91250  0.10181  0.05316  1.0000
  H   H1144     1.0  0.87339  0.08889  0.04938  1.0000
  C   C1144     1.0  0.94195  0.28639  0.20244  1.0000
  C   C1145     1.0  0.92742  0.26519  0.21390  1.0000
  C   C1146     1.0  0.91961  0.26387  0.23124  1.0000
  C   C1147     1.0  0.95323  0.16575  0.01371  1.0000
  C   C1148     1.0  0.94046  0.30512  0.22567  1.0000
  C   C1149     1.0  0.94844  0.30637  0.20833  1.0000
  C   C1150     1.0  0.67638  0.02682  0.22084  1.0000
  C   C1151     1.0  0.86940  0.08672  0.24339  1.0000
  H   H1145     1.0  0.94586  0.32045  0.23028  1.0000
  N   N97       1.0  0.86889  0.10288  0.22926  1.0000
  C   C1152     1.0  0.95696  0.26643  0.09755  1.0000
  C   C1153     1.0  0.95331  0.27349  0.11271  1.0000
  C   C1154     1.0  0.96788  0.29444  0.11380  1.0000
  C   C1155     1.0  0.73224  0.02415  0.09823  1.0000
  H   H1146     1.0  0.68436  0.01206  0.13137  1.0000
  C   C1156     1.0  0.70830  0.49490  0.22341  1.0000
  H   H1147     1.0  0.93941  0.26253  0.12373  1.0000
  H   H1148     1.0  0.96514  0.29948  0.12564  1.0000
  H   H1149     1.0  0.92789  0.35858  0.16346  1.0000
  Fe  Fe195     1.0  0.80280  0.10424  0.24489  1.0000
  C   C1157     1.0  0.66659  0.48180  0.23702  1.0000
  C   C1158     1.0  0.88189  0.12596  0.22516  1.0000
  C   C1159     1.0  0.91904  0.34477  0.17528  1.0000
  H   H1150     1.0  0.68970  0.08664  0.21497  1.0000
  C   C1160     1.0  0.71100  0.04536  0.12183  1.0000
  C   C1161     1.0  0.73217  0.05798  0.10986  1.0000
  C   C1162     1.0  0.74286  0.04735  0.09811  1.0000
  C   C1163     1.0  0.98590  0.30870  0.09961  1.0000
  C   C1164     1.0  0.75972  0.04893  0.18923  1.0000
  C   C1165     1.0  0.73692  0.01049  0.00192  1.0000
  H   H1151     1.0  0.74027  0.07604  0.10959  1.0000
  H   H1152     1.0  0.75910  0.05723  0.08880  1.0000
  N   N98       1.0  0.91754  0.34980  0.19070  1.0000
  H   H1153     1.0  0.97891  0.21853  0.11621  1.0000
  C   C1166     1.0  0.96781  0.44455  0.15996  1.0000
  H   H1154     1.0  0.95534  0.44865  0.15328  1.0000
  C   C1167     1.0  0.96042  0.20816  0.00842  1.0000
  H   H1155     1.0  0.88898  0.29509  0.21712  1.0000
  H   H1156     1.0  0.90840  0.24739  0.24007  1.0000
  H   H1157     1.0  0.84294  0.10721  0.21676  1.0000
  H   H1158     1.0  0.97769  0.27566  0.07152  1.0000
  C   C1168     1.0  0.97804  0.46066  0.16813  1.0000
  C   C1169     1.0  0.90962  0.32169  0.17449  1.0000
  H   H1159     1.0  0.86240  0.12068  0.09175  1.0000
  H   H1160     1.0  0.84473  0.07908  0.09369  1.0000
  S   S393      1.0  0.72476  0.08715  0.23270  1.0000
  Fe  Fe196     1.0  0.78104  0.02945  0.06752  1.0000
  C   C1170     1.0  0.97985  0.24388  0.20660  1.0000
  C   C1171     1.0  0.89690  0.30909  0.20528  1.0000
  H   H1161     1.0  0.96745  0.23827  0.21948  1.0000
  C   C1172     1.0  0.97500  0.28070  0.08336  1.0000
  C   C1173     1.0  0.89587  0.13340  0.23534  1.0000
  S   S394      1.0  0.99253  0.18681  0.05521  1.0000
  C   C1174     1.0  0.92879  0.37381  0.19113  1.0000
  Fe  Fe197     1.0  0.97818  0.37403  0.14720  1.0000
  S   S395      1.0  0.74452  0.01075  0.08314  1.0000
  C   C1175     1.0  0.69245  0.02198  0.22970  1.0000
  S   S396      1.0  0.80624  0.03212  0.22416  1.0000
  S   S397      1.0  0.80623  0.02977  0.00589  1.0000
  H   H1162     1.0  0.92547  0.38732  0.18127  1.0000
  H   H1163     1.0  0.92225  0.24971  0.20940  1.0000
  H   H1164     1.0  0.66508  0.48398  0.20498  1.0000
  C   C1176     1.0  0.69067  0.06863  0.21894  1.0000
  C   C1177     1.0  0.92621  0.28378  0.23714  1.0000
  C   C1178     1.0  0.89858  0.30376  0.18961  1.0000
  H   H1165     1.0  0.71643  0.07357  0.18398  1.0000
  H   H1166     1.0  0.70979  0.04362  0.16795  1.0000
  N   N99       1.0  0.87922  0.09333  0.09459  1.0000
  C   C1179     1.0  0.90064  0.08996  0.09330  1.0000
  C   C1180     1.0  0.86168  0.07636  0.09283  1.0000
  C   C1181     1.0  0.90510  0.06945  0.08965  1.0000
  C   C1182     1.0  0.86551  0.05555  0.08939  1.0000
  C   C1183     1.0  0.88737  0.05217  0.08766  1.0000
  C   C1184     1.0  0.87473  0.11482  0.09851  1.0000
  C   C1185     1.0  0.73828  0.01967  0.03308  1.0000
  H   H1167     1.0  0.97338  0.47699  0.16772  1.0000
  H   H1168     1.0  0.92227  0.06716  0.08815  1.0000
  H   H1169     1.0  0.85172  0.04220  0.08785  1.0000
  H   H1170     1.0  0.89049  0.03622  0.08465  1.0000
  S   S398      1.0  0.95161  0.28727  0.18091  1.0000
  H   H1171     1.0  0.90551  0.15189  0.23241  1.0000
  C   C1186     1.0  0.78613  0.01167  0.21830  1.0000
  C   C1187     1.0  0.70788  0.04044  0.23289  1.0000
  Fe  Fe198     1.0  0.98995  0.22364  0.04607  1.0000
  H   H1172     1.0  0.90618  0.33600  0.21788  1.0000
  C   C1188     1.0  0.72761  0.06206  0.18288  1.0000
  H   H1173     1.0  0.86749  0.11140  0.11248  1.0000
  H   H1174     1.0  0.76630  0.02010  0.17937  1.0000
  S   S399      1.0  0.98643  0.35566  0.17043  1.0000
  H   H1175     1.0  0.84351  0.07703  0.22357  1.0000
  Fe  Fe199     1.0  0.97403  0.32227  0.16327  1.0000
  Fe  Fe200     1.0  0.75450  0.08036  0.24289  1.0000
  C   C1189     1.0  0.97419  0.42356  0.15999  1.0000
  N   N100      1.0  0.68629  0.48888  0.22183  1.0000
  C   C1190     1.0  0.72359  0.50181  0.19301  1.0000
  Fe  Fe201     1.0  0.66570  0.03357  0.15525  1.0000
  C   C1191     1.0  0.68254  0.48867  0.20622  1.0000
  H   H1176     1.0  0.98578  0.22825  0.20465  1.0000
  S   S400      1.0  0.83054  0.13919  0.23746  1.0000
  Fe  Fe202     1.0  0.79130  0.05481  0.23926  1.0000
  H   H1177     1.0  0.69809  0.49563  0.17912  1.0000
  C   C1192     1.0  0.67574  0.05024  0.21521  1.0000
  H   H1178     1.0  0.86458  0.18125  0.23621  1.0000
  H   H1179     1.0  0.88084  0.13894  0.21431  1.0000
  H   H1180     1.0  0.87826  0.47641  0.24212  1.0000
  H   H1181     1.0  0.94033  0.18278  0.03244  1.0000
  H   H1182     1.0  0.75630  0.01997  0.23139  1.0000
  H   H1183     1.0  0.98610  0.20111  0.24215  1.0000
  C   C1193     1.0  0.73312  0.01188  0.16363  1.0000
  H   H1184     1.0  0.98988  0.19460  0.13986  1.0000
  H   H1185     1.0  0.77365  0.05012  0.19536  1.0000
  H   H1186     1.0  0.72033  0.03645  0.23952  1.0000
  C   C1194     1.0  0.70111  0.49523  0.19156  1.0000
  C   C1195     1.0  0.76250  0.00933  0.22358  1.0000
  H   H1187     1.0  0.99574  0.40271  0.16862  1.0000
  C   C1196     1.0  0.87427  0.49326  0.24100  1.0000
  H   H1188     1.0  0.72507  0.01742  0.15324  1.0000
  H   H1189     1.0  0.94566  0.14800  0.02230  1.0000
  H   H1190     1.0  0.71134  0.49540  0.23573  1.0000
  Fe  Fe203     1.0  0.99453  0.19593  0.07970  1.0000
  H   H1191     1.0  0.97077  0.24908  0.19683  1.0000
  S   S401      1.0  0.99537  0.23373  0.06965  1.0000
  H   H1192     1.0  0.74925  0.00805  0.15764  1.0000
  H   H1193     1.0  0.73908  0.02289  0.04536  1.0000
  C   C1197     1.0  0.71118  0.01148  0.11031  1.0000
  S   S402      1.0  0.85487  0.00636  0.06959  1.0000
  H   H1194     1.0  0.76408  0.05234  0.01831  1.0000
  C   C1198     1.0  0.99149  0.22699  0.12200  1.0000
  S   S403      1.0  0.79842  0.00620  0.05491  1.0000
  C   C1199     1.0  0.96600  0.16914  0.99696  1.0000
  C   C1200     1.0  0.99515  0.28152  0.21264  1.0000
  C   C1201     1.0  0.75219  0.03627  0.01795  1.0000
  S   S404      1.0  0.69455  0.03663  0.38766  1.0000
  H   H1195     1.0  0.96844  0.43138  0.44421  1.0000
  H   H1196     1.0  0.88911  0.13284  0.48376  1.0000
  S   S405      1.0  0.71188  0.07722  0.41270  1.0000
  H   H1197     1.0  0.67823  0.05563  0.44605  1.0000
  C   C1202     1.0  0.66826  0.06497  0.29211  1.0000
  C   C1203     1.0  0.69680  0.06307  0.46453  1.0000
  S   S406      1.0  0.79040  0.09051  0.47241  1.0000
  S   S407      1.0  0.98689  0.30824  0.38901  1.0000
  C   C1204     1.0  0.94961  0.37458  0.44220  1.0000
  C   C1205     1.0  0.91198  0.27657  0.33658  1.0000
  H   H1198     1.0  0.98028  0.27591  0.45196  1.0000
  Fe  Fe204     1.0  0.68147  0.05392  0.40757  1.0000
  C   C1206     1.0  0.68257  0.47399  0.45234  1.0000
  C   C1207     1.0  0.86312  0.16787  0.24767  1.0000
  Fe  Fe205     1.0  0.77116  0.06261  0.27358  1.0000
  C   C1208     1.0  0.86041  0.16846  0.49547  1.0000
  S   S408      1.0  0.76138  0.04504  0.30178  1.0000
  C   C1209     1.0  0.93700  0.32325  0.33107  1.0000
  C   C1210     1.0  0.76182  0.09399  0.32904  1.0000
  C   C1211     1.0  0.92842  0.30843  0.34770  1.0000
  C   C1212     1.0  0.69468  0.06364  0.44792  1.0000
  C   C1213     1.0  0.76620  0.04294  0.43511  1.0000
  S   S409      1.0  0.80757  0.06971  0.25789  1.0000
  Fe  Fe206     1.0  0.92759  0.24887  0.27080  1.0000
  S   S410      1.0  0.93830  0.22338  0.25667  1.0000
  H   H1199     1.0  0.74119  0.49198  0.46231  1.0000
  Fe  Fe207     1.0  0.94007  0.22754  0.30275  1.0000
  S   S411      1.0  0.95119  0.19947  0.29178  1.0000
  S   S412      1.0  0.94278  0.23154  0.32887  1.0000
  Fe  Fe208     1.0  0.96866  0.22871  0.26761  1.0000
  Fe  Fe209     1.0  0.91965  0.19615  0.28183  1.0000
  S   S413      1.0  0.89640  0.15960  0.28493  1.0000
  S   S414      1.0  0.90682  0.22154  0.29519  1.0000
  C   C1214     1.0  0.88299  0.09363  0.25397  1.0000
  S   S415      1.0  0.92894  0.31849  0.41454  1.0000
  C   C1215     1.0  0.91822  0.30390  0.47210  1.0000
  C   C1216     1.0  0.90243  0.31211  0.46439  1.0000
  C   C1217     1.0  0.90574  0.31615  0.44674  1.0000
  C   C1218     1.0  0.92528  0.31285  0.43662  1.0000
  C   C1219     1.0  0.94154  0.30532  0.44421  1.0000
  C   C1220     1.0  0.93777  0.30038  0.46205  1.0000
  H   H1200     1.0  0.90632  0.12298  0.25826  1.0000
  H   H1201     1.0  0.90941  0.27316  0.36337  1.0000
  H   H1202     1.0  0.95666  0.30280  0.43637  1.0000
  H   H1203     1.0  0.95002  0.29411  0.46802  1.0000
  C   C1221     1.0  0.72704  0.01841  0.45078  1.0000
  H   H1204     1.0  0.95155  0.24503  0.35852  1.0000
  C   C1222     1.0  0.94847  0.37953  0.42523  1.0000
  H   H1205     1.0  0.86306  0.17725  0.48215  1.0000
  H   H1206     1.0  0.73539  0.02366  0.33654  1.0000
  C   C1223     1.0  0.87787  0.17275  0.25805  1.0000
  C   C1224     1.0  0.87654  0.15530  0.27262  1.0000
  C   C1225     1.0  0.85990  0.13326  0.27699  1.0000
  C   C1226     1.0  0.84504  0.12845  0.26668  1.0000
  H   H1207     1.0  0.93991  0.32582  0.30452  1.0000
  H   H1208     1.0  0.78293  0.07010  0.33152  1.0000
  H   H1209     1.0  0.85876  0.11970  0.28825  1.0000
  H   H1210     1.0  0.83258  0.11128  0.27002  1.0000
  H   H1211     1.0  0.90283  0.25805  0.33881  1.0000
  C   C1227     1.0  0.72471  0.48608  0.45963  1.0000
  C   C1228     1.0  0.95987  0.26027  0.34758  1.0000
  H   H1212     1.0  0.66737  0.46435  0.47959  1.0000
  C   C1229     1.0  0.96248  0.41664  0.43908  1.0000
  H   H1213     1.0  0.96401  0.42499  0.38989  1.0000
  H   H1214     1.0  0.66589  0.47025  0.44965  1.0000
  H   H1215     1.0  0.70399  0.01991  0.29160  1.0000
  S   S416      1.0  0.72059  0.07231  0.48790  1.0000
  C   C1230     1.0  0.72336  0.48925  0.44274  1.0000
  H   H1216     1.0  0.94498  0.35635  0.44991  1.0000
  H   H1217     1.0  0.68713  0.47444  0.41984  1.0000
  C   C1231     1.0  0.95281  0.40713  0.39775  1.0000
  C   C1232     1.0  0.91568  0.28498  0.35052  1.0000
  C   C1233     1.0  0.79744  0.01225  0.45620  1.0000
  H   H1218     1.0  0.96858  0.27728  0.30457  1.0000
  C   C1234     1.0  0.70002  0.05962  0.33467  1.0000
  C   C1235     1.0  0.70947  0.07292  0.31759  1.0000
  C   C1236     1.0  0.72810  0.06828  0.30728  1.0000
  C   C1237     1.0  0.73754  0.05061  0.31412  1.0000
  C   C1238     1.0  0.72817  0.03743  0.33123  1.0000
  C   C1239     1.0  0.70934  0.04183  0.34146  1.0000
  H   H1219     1.0  0.70229  0.08671  0.31229  1.0000
  H   H1220     1.0  0.73521  0.07851  0.29412  1.0000
  C   C1240     1.0  0.96105  0.42093  0.42218  1.0000
  H   H1221     1.0  0.76653  0.00549  0.42247  1.0000
  C   C1241     1.0  0.71374  0.07524  0.43377  1.0000
  C   C1242     1.0  0.73492  0.08581  0.43633  1.0000
  C   C1243     1.0  0.73721  0.08459  0.45290  1.0000
  C   C1244     1.0  0.71811  0.07347  0.46704  1.0000
  H   H1222     1.0  0.74963  0.09509  0.42543  1.0000
  H   H1223     1.0  0.75360  0.09295  0.45468  1.0000
  H   H1224     1.0  0.66707  0.01655  0.33368  1.0000
  H   H1225     1.0  0.96585  0.43914  0.41441  1.0000
  Fe  Fe210     1.0  0.79665  0.05478  0.47886  1.0000
  H   H1226     1.0  0.92917  0.29294  0.29351  1.0000
  S   S417      1.0  0.95957  0.25674  0.27932  1.0000
  S   S418      1.0  0.76728  0.09817  0.26171  1.0000
  H   H1227     1.0  0.93220  0.31494  0.35833  1.0000
  H   H1228     1.0  0.76737  0.09917  0.31516  1.0000
  H   H1229     1.0  0.87556  0.26332  0.48635  1.0000
  Fe  Fe211     1.0  0.66850  0.04750  0.37519  1.0000
  H   H1230     1.0  0.76721  0.04919  0.44669  1.0000
  C   C1245     1.0  0.67380  0.01154  0.32185  1.0000
  C   C1246     1.0  0.68452  0.06668  0.27710  1.0000
  H   H1231     1.0  0.84842  0.23309  0.47824  1.0000
  C   C1247     1.0  0.70115  0.48820  0.42155  1.0000
  C   C1248     1.0  0.77060  0.07764  0.33826  1.0000
  H   H1232     1.0  0.71744  0.48877  0.41250  1.0000
  C   C1249     1.0  0.76290  0.07055  0.35608  1.0000
  H   H1233     1.0  0.68193  0.05453  0.47543  1.0000
  H   H1234     1.0  0.70173  0.03100  0.35445  1.0000
  C   C1250     1.0  0.99532  0.27684  0.44152  1.0000
  S   S419      1.0  0.75534  0.04421  0.25635  1.0000
  S   S420      1.0  0.81243  0.03965  0.45820  1.0000
  H   H1235     1.0  0.94286  0.36491  0.41994  1.0000
  C   C1251     1.0  0.98116  0.29972  0.31948  1.0000
  H   H1236     1.0  0.88737  0.31492  0.47213  1.0000
  N   N101      1.0  0.92076  0.29112  0.32029  1.0000
  H   H1237     1.0  0.93469  0.40589  0.39754  1.0000
  C   C1252     1.0  0.69727  0.05027  0.27696  1.0000
  S   S421      1.0  0.99358  0.35297  0.40695  1.0000
  C   C1253     1.0  0.98232  0.30158  0.33582  1.0000
  H   H1238     1.0  0.73905  0.49746  0.43243  1.0000
  H   H1239     1.0  0.89321  0.32205  0.44089  1.0000
  H   H1240     1.0  0.99179  0.25936  0.43864  1.0000
  S   S422      1.0  0.97254  0.35640  0.37348  1.0000
  N   N102      1.0  0.95447  0.40246  0.41540  1.0000
  H   H1241     1.0  0.70993  0.05157  0.26536  1.0000
  S   S423      1.0  0.91838  0.28125  0.25901  1.0000
  C   C1254     1.0  0.69369  0.03236  0.29183  1.0000
  H   H1242     1.0  0.91990  0.26380  0.30769  1.0000
  C   C1255     1.0  0.91702  0.28165  0.30591  1.0000
  H   H1243     1.0  0.89912  0.28020  0.30498  1.0000
  H   H1244     1.0  0.76940  0.05761  0.36335  1.0000
  H   H1245     1.0  0.98124  0.49421  0.27423  1.0000
  C   C1256     1.0  0.66500  0.04676  0.30679  1.0000
  C   C1257     1.0  0.97168  0.28177  0.34989  1.0000
  H   H1246     1.0  0.88288  0.08097  0.26543  1.0000
  C   C1258     1.0  0.96935  0.27829  0.31719  1.0000
  C   C1259     1.0  0.70452  0.47674  0.47299  1.0000
  C   C1260     1.0  0.95854  0.25849  0.33122  1.0000
  H   H1247     1.0  0.95789  0.38970  0.46222  1.0000
  C   C1261     1.0  0.84685  0.14563  0.25183  1.0000
  N   N103      1.0  0.73782  0.09590  0.35527  1.0000
  C   C1262     1.0  0.74645  0.07998  0.36444  1.0000
  C   C1263     1.0  0.74509  0.10273  0.33779  1.0000
  S   S424      1.0  0.91291  0.29803  0.49433  1.0000
  C   C1264     1.0  0.91749  0.16475  0.47560  1.0000
  C   C1265     1.0  0.93281  0.31431  0.31743  1.0000
  C   C1266     1.0  0.71965  0.10457  0.36413  1.0000
  H   H1248     1.0  0.74043  0.07431  0.37830  1.0000
  H   H1249     1.0  0.73763  0.11465  0.33048  1.0000
  Fe  Fe212     1.0  0.96574  0.33076  0.39898  1.0000
  N   N104      1.0  0.74755  0.02094  0.43941  1.0000
  H   H1250     1.0  0.97251  0.28301  0.36255  1.0000
  H   H1251     1.0  0.72132  0.12319  0.35744  1.0000
  H   H1252     1.0  0.70249  0.09326  0.36468  1.0000
  H   H1253     1.0  0.72046  0.10419  0.37742  1.0000
  H   H1254     1.0  0.76315  0.05692  0.42549  1.0000
  C   C1267     1.0  0.95676  0.39329  0.44911  1.0000
  H   H1255     1.0  0.89059  0.18978  0.25458  1.0000
  S   S425      1.0  0.67602  0.06485  0.34709  1.0000
  H   H1256     1.0  0.94594  0.19557  0.47156  1.0000
  H   H1257     1.0  0.82304  0.01488  0.43331  1.0000
  H   H1258     1.0  0.98285  0.21625  0.31285  1.0000
  H   H1259     1.0  0.95885  0.39417  0.39147  1.0000
  H   H1260     1.0  0.78331  0.04038  0.42993  1.0000
  H   H1261     1.0  0.85899  0.06844  0.24673  1.0000
  H   H1262     1.0  0.82286  0.00801  0.48804  1.0000
  N   N105      1.0  0.67781  0.03088  0.30653  1.0000
  H   H1263     1.0  0.68738  0.08069  0.26556  1.0000
  H   H1264     1.0  0.94754  0.34128  0.32875  1.0000
  C   C1268     1.0  0.93386  0.17971  0.48070  1.0000
  S   S426      1.0  0.98272  0.22925  0.47889  1.0000
  H   H1265     1.0  0.98941  0.31497  0.30854  1.0000
  H   H1266     1.0  0.72478  0.03233  0.45684  1.0000
  C   C1269     1.0  0.68330  0.47056  0.46937  1.0000
  H   H1267     1.0  0.85117  0.48284  0.26639  1.0000
  S   S427      1.0  0.82960  0.13275  0.48962  1.0000
  C   C1270     1.0  0.85918  0.49690  0.25461  1.0000
  N   N106      1.0  0.70246  0.48309  0.43930  1.0000
  H   H1268     1.0  0.69019  0.00728  0.32282  1.0000
  H   H1269     1.0  0.70527  0.47520  0.48609  1.0000
  H   H1270     1.0  0.91653  0.16899  0.46247  1.0000
  Fe  Fe213     1.0  0.75597  0.07307  0.49149  1.0000
  C   C1271     1.0  0.90223  0.14438  0.48751  1.0000
  C   C1272     1.0  0.89629  0.11714  0.24988  1.0000
  C   C1273     1.0  0.84912  0.23047  0.49141  1.0000
  H   H1271     1.0  0.94970  0.49422  0.25572  1.0000
  Fe  Fe214     1.0  0.80375  0.09642  0.49495  1.0000
  H   H1272     1.0  0.67089  0.49039  0.24700  1.0000
  Fe  Fe215     1.0  0.99597  0.33566  0.36388  1.0000
  Fe  Fe216     1.0  0.77651  0.04656  0.51684  1.0000
  H   H1273     1.0  0.88473  0.19728  0.49944  1.0000
  C   C1274     1.0  0.84467  0.14583  0.50273  1.0000
  C   C1275     1.0  0.82081  0.18521  0.53364  1.0000
  H   H1274     1.0  0.95920  0.34056  0.55067  1.0000
  C   C1276     1.0  0.98782  0.29333  0.56857  1.0000
  S   S428      1.0  0.76831  0.08166  0.51370  1.0000
  C   C1277     1.0  0.86935  0.16887  0.52252  1.0000
  C   C1278     1.0  0.99153  0.31500  0.57301  1.0000
  N   N107      1.0  0.83615  0.20644  0.52054  1.0000
  C   C1279     1.0  0.83486  0.21007  0.50400  1.0000
  Fe  Fe217     1.0  0.91288  0.21756  0.52471  1.0000
  S   S429      1.0  0.91433  0.25073  0.53358  1.0000
  S   S430      1.0  0.88348  0.18330  0.53554  1.0000
  Fe  Fe218     1.0  0.92782  0.26975  0.50558  1.0000
  Fe  Fe219     1.0  0.95171  0.25360  0.53202  1.0000
  S   S431      1.0  0.97148  0.26213  0.55115  1.0000
  C   C1280     1.0  0.90339  0.13942  0.50446  1.0000
  S   S432      1.0  0.94900  0.21831  0.52604  1.0000
  H   H1275     1.0  0.80478  0.18900  0.53981  1.0000
  H   H1276     1.0  0.90280  0.13973  0.53612  1.0000
  H   H1277     1.0  0.99583  0.28017  0.57362  1.0000
  H   H1278     1.0  0.73768  0.04647  0.54461  1.0000
  C   C1281     1.0  0.72890  0.02921  0.55338  1.0000
  C   C1282     1.0  0.92025  0.14887  0.52723  1.0000
  C   C1283     1.0  0.97511  0.49238  0.60722  1.0000
  S   S433      1.0  0.76686  0.01557  0.54018  1.0000
  S   S434      1.0  0.81278  0.06170  0.49975  1.0000
  H   H1279     1.0  0.69924  0.03980  0.56418  1.0000
  C   C1284     1.0  0.84145  0.13461  0.51996  1.0000
  C   C1285     1.0  0.96724  0.32740  0.55569  1.0000
  C   C1286     1.0  0.96372  0.30585  0.55112  1.0000
  C   C1287     1.0  0.97409  0.28875  0.55749  1.0000
  C   C1288     1.0  0.85368  0.14616  0.52982  1.0000
  C   C1289     1.0  0.87282  0.17984  0.50525  1.0000
  C   C1290     1.0  0.85100  0.22301  0.52509  1.0000
  H   H1280     1.0  0.95308  0.30253  0.54262  1.0000
  H   H1281     1.0  0.82943  0.17929  0.54358  1.0000
  S   S435      1.0  0.98631  0.36022  0.57091  1.0000
  H   H1282     1.0  0.82934  0.11719  0.52571  1.0000
  H   H1283     1.0  0.99365  0.46372  0.62552  1.0000
  H   H1284     1.0  0.94744  0.18587  0.50156  1.0000
  S   S436      1.0  0.96522  0.27495  0.50449  1.0000
  H   H1285     1.0  0.93193  0.13750  0.52896  1.0000
  N   N108      1.0  0.98572  0.49690  0.62084  1.0000
  H   H1286     1.0  0.85080  0.13752  0.54320  1.0000
  C   C1291     1.0  0.73947  0.01091  0.55400  1.0000
  Fe  Fe220     1.0  0.95959  0.23962  0.49877  1.0000
  N   N109      1.0  0.91917  0.15447  0.50944  1.0000
  H   H1287     1.0  0.81624  0.17013  0.52803  1.0000
  H   H1288     1.0  0.89114  0.12381  0.51372  1.0000
  C   C1292     1.0  0.70715  0.02542  0.56451  1.0000
  C   C1293     1.0  0.98134  0.33219  0.56649  1.0000
  C   C1294     1.0  0.68302  0.03377  0.52971  1.0000
  H   H1289     1.0  0.85219  0.22008  0.53817  1.0000
  C   C1295     1.0  0.69749  0.02079  0.52359  1.0000
  H   H1290     1.0  0.71267  0.02994  0.51304  1.0000
  H   H1291     1.0  0.92654  0.16531  0.53101  1.0000
  H   H1292     1.0  0.68708  0.05269  0.52383  1.0000
  C   C1296     1.0  0.86521  0.24376  0.51288  1.0000
  C   C1297     1.0  0.93457  0.17418  0.49775  1.0000
  C   C1298     1.0  0.99444  0.48021  0.62908  1.0000
  H   H1293     1.0  0.87691  0.25692  0.51651  1.0000
  S   S437      1.0  0.92352  0.23662  0.49691  1.0000
  H   H1294     1.0  0.95663  0.48238  0.61279  1.0000
  H   H1295     1.0  0.98404  0.48199  0.59986  1.0000
  H   H1296     1.0  0.82315  0.19688  0.50037  1.0000
  S   S438      1.0  0.76145  0.03704  0.49626  1.0000
  C   C1299     1.0  0.66377  0.02231  0.54364  1.0000
  C   C1300     1.0  0.86436  0.24740  0.49593  1.0000
  S   S439      1.0  0.91359  0.13993  0.83791  1.0000
  C   C1301     1.0  0.88438  0.16025  0.80022  1.0000
  H   H1297     1.0  0.94838  0.33410  0.81411  1.0000
  S   S440      1.0  0.87189  0.07438  0.79437  1.0000
  S   S441      1.0  0.76533  0.05758  0.84196  1.0000
  C   C1302     1.0  0.90050  0.17428  0.78501  1.0000
  Fe  Fe221     1.0  0.78691  0.04074  0.82567  1.0000
  C   C1303     1.0  0.88312  0.09316  0.80628  1.0000
  C   C1304     1.0  0.86992  0.09345  0.82208  1.0000
  C   C1305     1.0  0.87969  0.10767  0.83163  1.0000
  C   C1306     1.0  0.90262  0.12206  0.82539  1.0000
  C   C1307     1.0  0.91572  0.12215  0.80943  1.0000
  C   C1308     1.0  0.90602  0.10765  0.79997  1.0000
  H   H1298     1.0  0.85223  0.08257  0.82705  1.0000
  H   H1299     1.0  0.86935  0.10761  0.84390  1.0000
  H   H1300     1.0  0.91638  0.10754  0.78776  1.0000
  H   H1301     1.0  0.87118  0.02500  0.81315  1.0000
  H   H1302     1.0  0.85485  0.03299  0.88302  1.0000
  S   S442      1.0  0.77257  0.01332  0.77589  1.0000
  C   C1309     1.0  0.73680  0.04086  0.85276  1.0000
  C   C1310     1.0  0.72387  0.04904  0.86500  1.0000
  C   C1311     1.0  0.70024  0.03784  0.87220  1.0000
  S   S443      1.0  0.80402  0.05864  0.79788  1.0000
  H   H1303     1.0  0.67820  0.03824  0.82885  1.0000
  H   H1304     1.0  0.98760  0.31398  0.78251  1.0000
  C   C1312     1.0  0.91183  0.20398  0.79948  1.0000
  H   H1305     1.0  0.90828  0.21379  0.82861  1.0000
  Fe  Fe222     1.0  0.83545  0.04941  0.80367  1.0000
  H   H1306     1.0  0.87864  0.06345  0.85602  1.0000
  H   H1307     1.0  0.72150  0.01033  0.79561  1.0000
  C   C1313     1.0  0.96011  0.28100  0.81654  1.0000
  C   C1314     1.0  0.72613  0.02095  0.84819  1.0000
  C   C1315     1.0  0.95703  0.32048  0.81672  1.0000
  H   H1308     1.0  0.73574  0.01478  0.83855  1.0000
  H   H1309     1.0  0.75012  0.07338  0.80917  1.0000
  C   C1316     1.0  0.98302  0.23537  0.98054  1.0000
  S   S444      1.0  0.98637  0.35354  0.82541  1.0000
  C   C1317     1.0  0.70245  0.00989  0.85527  1.0000
  C   C1318     1.0  0.68942  0.01853  0.86711  1.0000
  S   S445      1.0  0.98724  0.19685  0.87354  1.0000
  S   S446      1.0  0.96358  0.19657  0.80541  1.0000
  C   C1319     1.0  0.69755  0.02243  0.81221  1.0000
  S   S447      1.0  0.94992  0.25460  0.81108  1.0000
  Fe  Fe223     1.0  0.96294  0.22364  0.82031  1.0000
  H   H1310     1.0  0.93337  0.13320  0.80446  1.0000
  H   H1311     1.0  0.87750  0.20146  0.83383  1.0000
  S   S448      1.0  0.81899  0.03416  0.83172  1.0000
  H   H1312     1.0  0.92695  0.20742  0.77287  1.0000
  C   C1320     1.0  0.91426  0.19636  0.78458  1.0000
  H   H1313     1.0  0.97025  0.24056  0.97404  1.0000
  C   C1321     1.0  0.94907  0.29872  0.81338  1.0000
  H   H1314     1.0  0.87384  0.14288  0.80077  1.0000
  C   C1322     1.0  0.97569  0.19220  0.98618  1.0000
  H   H1315     1.0  0.90244  0.16791  0.77366  1.0000
  S   S449      1.0  0.94426  0.19683  0.84529  1.0000
  C   C1323     1.0  0.97925  0.28515  0.82322  1.0000
  H   H1316     1.0  0.98789  0.27155  0.82567  1.0000
  H   H1317     1.0  0.69673  0.06810  0.84086  1.0000
  H   H1318     1.0  0.79914  0.01206  0.97736  1.0000
  Fe  Fe224     1.0  0.94725  0.16945  0.83080  1.0000
  H   H1319     1.0  0.88550  0.05212  0.82883  1.0000
  H   H1320     1.0  0.93430  0.29566  0.80825  1.0000
  H   H1321     1.0  0.73201  0.06446  0.86858  1.0000
  H   H1322     1.0  0.92267  0.22112  0.79904  1.0000
  C   C1324     1.0  0.71096  0.07573  0.82884  1.0000
  H   H1323     1.0  0.69024  0.04461  0.88137  1.0000
  C   C1325     1.0  0.73819  0.04240  0.80100  1.0000
  N   N110      1.0  0.89644  0.18978  0.81447  1.0000
  C   C1326     1.0  0.88264  0.16828  0.81493  1.0000
  C   C1327     1.0  0.89430  0.19755  0.83015  1.0000
  H   H1324     1.0  0.87072  0.15686  0.82688  1.0000
  H   H1325     1.0  0.89551  0.18343  0.84072  1.0000
  H   H1326     1.0  0.68275  0.00795  0.81336  1.0000
  C   C1328     1.0  0.86967  0.00974  0.82400  1.0000
  H   H1327     1.0  0.72683  0.08277  0.83261  1.0000
  S   S450      1.0  0.98124  0.16712  0.83597  1.0000
  C   C1329     1.0  0.73517  0.05930  0.80989  1.0000
  H   H1328     1.0  0.70716  0.09057  0.82052  1.0000
  C   C1330     1.0  0.98740  0.30720  0.82648  1.0000
  H   H1329     1.0  0.75514  0.04366  0.79330  1.0000
  C   C1331     1.0  0.69509  0.03971  0.82086  1.0000
  C   C1332     1.0  0.87137  0.04529  0.85590  1.0000
  Fe  Fe225     1.0  0.97944  0.19680  0.84825  1.0000
  N   N111      1.0  0.71385  0.05765  0.81981  1.0000
  N   N112      1.0  0.86561  0.01611  0.84024  1.0000
  H   H1330     1.0  0.96854  0.15404  0.99238  1.0000
  S   S451      1.0  0.82665  0.01414  0.79738  1.0000
  H   H1331     1.0  0.76308  0.04410  0.99054  1.0000
  C   C1333     1.0  0.87512  0.03882  0.84055  1.0000
  H   H1332     1.0  0.73715  0.00677  0.98969  1.0000
  C   C1334     1.0  0.97626  0.32492  0.82312  1.0000
  H   H1333     1.0  0.68339  0.00609  0.90862  1.0000
  H   H1334     1.0  0.98827  0.24840  0.98771  1.0000
  H   H1335     1.0  0.98594  0.19472  0.97325  1.0000
  N   N113      1.0  0.97306  0.21135  0.99205  1.0000
  Fe  Fe226     1.0  0.79362  0.02194  0.79423  1.0000
  C   C1335     1.0  0.85811  0.02823  0.87103  1.0000
  C   C1336     1.0  0.71928  0.02376  0.80227  1.0000
  H   H1336     1.0  0.99224  0.34349  0.78490  1.0000
  S   S452      1.0  0.73438  0.96108  0.20110  1.0000
  H   H1337     1.0  0.77616  0.98738  0.03209  1.0000
  Fe  Fe227     1.0  0.73553  0.73795  0.16686  1.0000
  S   S453      1.0  0.75086  0.71304  0.18204  1.0000
  S   S454      1.0  0.74870  0.77755  0.15548  1.0000
  Fe  Fe228     1.0  0.70062  0.69813  0.16096  1.0000
  S   S455      1.0  0.71244  0.66976  0.17553  1.0000
  Fe  Fe229     1.0  0.71389  0.69145  0.19430  1.0000
  S   S456      1.0  0.69785  0.66850  0.22118  1.0000
  Fe  Fe230     1.0  0.74807  0.69320  0.16231  1.0000
  S   S457      1.0  0.77398  0.67621  0.15111  1.0000
  S   S458      1.0  0.69866  0.71811  0.18085  1.0000
  S   S459      1.0  0.73616  0.71970  0.14592  1.0000
  H   H1338     1.0  0.69096  0.94706  0.22856  1.0000
  Fe  Fe231     1.0  0.76328  0.64878  0.05184  1.0000
  S   S460      1.0  0.75938  0.68553  0.04449  1.0000
  S   S461      1.0  0.72942  0.62000  0.06185  1.0000
  Fe  Fe232     1.0  0.81595  0.66673  0.04027  1.0000
  S   S462      1.0  0.81592  0.70464  0.03202  1.0000
  S   S463      1.0  0.84895  0.65610  0.03838  1.0000
  Fe  Fe233     1.0  0.78804  0.69536  0.05650  1.0000
  S   S464      1.0  0.78767  0.72075  0.07291  1.0000
  Fe  Fe234     1.0  0.78733  0.69092  0.02079  1.0000
  H   H1339     1.0  0.88897  0.54800  0.21355  1.0000
  S   S465      1.0  0.79005  0.65813  0.06560  1.0000
  S   S466      1.0  0.78943  0.65342  0.02714  1.0000
  Fe  Fe235     1.0  0.95949  0.70445  0.06273  1.0000
  H   H1340     1.0  0.92881  0.75583  0.00215  1.0000
  S   S467      1.0  0.92982  0.71940  0.05888  1.0000
  H   H1341     1.0  0.86552  0.57129  0.22414  1.0000
  C   C1337     1.0  0.79825  0.94634  0.07355  1.0000
  C   C1338     1.0  0.67811  0.92087  0.13552  1.0000
  C   C1339     1.0  0.66554  0.91126  0.19806  1.0000
  S   S468      1.0  0.95761  0.66724  0.06166  1.0000
  Fe  Fe236     1.0  0.75397  0.89075  0.18264  1.0000
  S   S469      1.0  0.77624  0.92178  0.18815  1.0000
  S   S470      1.0  0.74747  0.85301  0.19819  1.0000
  Fe  Fe237     1.0  0.74255  0.92200  0.15402  1.0000
  S   S471      1.0  0.76360  0.95599  0.15653  1.0000
  S   S472      1.0  0.72204  0.91912  0.13506  1.0000
  Fe  Fe238     1.0  0.78964  0.93592  0.15963  1.0000
  S   S473      1.0  0.82766  0.94975  0.14735  1.0000
  Fe  Fe239     1.0  0.74862  0.93954  0.18468  1.0000
  H   H1342     1.0  0.92626  0.74784  0.02488  1.0000
  S   S474      1.0  0.77008  0.90343  0.15436  1.0000
  S   S475      1.0  0.72492  0.90715  0.18193  1.0000
  H   H1343     1.0  0.78699  0.87630  0.20783  1.0000
  C   C1340     1.0  0.70282  0.54728  0.23299  1.0000
  C   C1341     1.0  0.83486  0.96620  0.12592  1.0000
  C   C1342     1.0  0.81911  0.97615  0.11922  1.0000
  H   H1344     1.0  0.66530  0.60782  0.11182  1.0000
  C   C1343     1.0  0.69582  0.62946  0.01141  1.0000
  C   C1344     1.0  0.86265  0.98146  0.09805  1.0000
  C   C1345     1.0  0.85670  0.96913  0.11535  1.0000
  H   H1345     1.0  0.80232  0.97417  0.12733  1.0000
  H   H1346     1.0  0.81455  0.86189  0.14112  1.0000
  C   C1346     1.0  0.70534  0.77057  0.13540  1.0000
  H   H1347     1.0  0.86895  0.96155  0.12048  1.0000
  C   C1347     1.0  0.77596  0.98462  0.01973  1.0000
  H   H1348     1.0  0.70153  0.62166  0.03651  1.0000
  H   H1349     1.0  0.78431  0.97180  0.19443  1.0000
  C   C1348     1.0  0.71949  0.55432  0.20267  1.0000
  H   H1350     1.0  0.81567  0.94578  0.06813  1.0000
  C   C1349     1.0  0.67644  0.94883  0.15844  1.0000
  C   C1350     1.0  0.95736  0.72664  0.01418  1.0000
  C   C1351     1.0  0.93863  0.68766  0.00360  1.0000
  H   H1351     1.0  0.90427  0.73283  0.01693  1.0000
  H   H1352     1.0  0.71125  0.94778  0.15765  1.0000
  H   H1353     1.0  0.76392  0.94883  0.11042  1.0000
  H   H1354     1.0  0.71733  0.62673  0.21099  1.0000
  Fe  Fe240     1.0  0.97044  0.66425  0.08490  1.0000
  C   C1352     1.0  0.87131  0.67438  0.04364  1.0000
  C   C1353     1.0  0.89193  0.66818  0.04297  1.0000
  C   C1354     1.0  0.90993  0.68197  0.04750  1.0000
  C   C1355     1.0  0.90741  0.70191  0.05299  1.0000
  C   C1356     1.0  0.88686  0.70832  0.05347  1.0000
  C   C1357     1.0  0.86884  0.69462  0.04878  1.0000
  H   H1355     1.0  0.89403  0.65268  0.03883  1.0000
  H   H1356     1.0  0.92593  0.67745  0.04619  1.0000
  H   H1357     1.0  0.88478  0.72385  0.05757  1.0000
  H   H1358     1.0  0.85295  0.69952  0.04940  1.0000
  H   H1359     1.0  0.96941  0.58465  0.22683  1.0000
  C   C1358     1.0  0.72473  0.63648  0.13686  1.0000
  H   H1360     1.0  0.99356  0.58635  0.23609  1.0000
  H   H1361     1.0  0.97697  0.57963  0.14767  1.0000
  C   C1359     1.0  0.99457  0.65565  0.22026  1.0000
  H   H1362     1.0  0.72314  0.60356  0.22532  1.0000
  S   S476      1.0  0.75004  0.55677  0.22217  1.0000
  H   H1363     1.0  0.67866  0.90987  0.12676  1.0000
  S   S477      1.0  0.66601  0.56270  0.16311  1.0000
  Fe  Fe241     1.0  0.67078  0.53571  0.14886  1.0000
  C   C1360     1.0  0.78116  0.68875  0.12908  1.0000
  C   C1361     1.0  0.77904  0.67403  0.11824  1.0000
  C   C1362     1.0  0.78048  0.68374  0.10108  1.0000
  C   C1363     1.0  0.78575  0.70828  0.09440  1.0000
  C   C1364     1.0  0.78896  0.72309  0.10512  1.0000
  C   C1365     1.0  0.78623  0.71331  0.12253  1.0000
  H   H1364     1.0  0.77500  0.65501  0.12327  1.0000
  H   H1365     1.0  0.77675  0.67211  0.09327  1.0000
  H   H1366     1.0  0.79329  0.74210  0.10001  1.0000
  H   H1367     1.0  0.78794  0.72477  0.13090  1.0000
  C   C1366     1.0  0.71786  0.66195  0.23232  1.0000
  C   C1367     1.0  0.74074  0.67606  0.22714  1.0000
  H   H1368     1.0  0.81309  0.99666  0.09680  1.0000
  H   H1369     1.0  0.74609  0.69199  0.21675  1.0000
  H   H1370     1.0  0.82499  0.90868  0.17297  1.0000
  C   C1368     1.0  0.74582  0.79733  0.16812  1.0000
  C   C1369     1.0  0.74331  0.79065  0.18573  1.0000
  C   C1370     1.0  0.74310  0.80769  0.19504  1.0000
  C   C1371     1.0  0.74504  0.83129  0.18682  1.0000
  C   C1372     1.0  0.74664  0.83759  0.16937  1.0000
  C   C1373     1.0  0.74736  0.82078  0.16001  1.0000
  H   H1371     1.0  0.74215  0.77258  0.19207  1.0000
  H   H1372     1.0  0.74174  0.80265  0.20858  1.0000
  H   H1373     1.0  0.74752  0.85546  0.16299  1.0000
  H   H1374     1.0  0.74917  0.82603  0.14642  1.0000
  C   C1374     1.0  0.71396  0.56463  0.11298  1.0000
  C   C1375     1.0  0.69683  0.56608  0.10451  1.0000
  C   C1376     1.0  0.70188  0.58303  0.08878  1.0000
  C   C1377     1.0  0.72401  0.59881  0.08149  1.0000
  C   C1378     1.0  0.74116  0.59745  0.08995  1.0000
  C   C1379     1.0  0.73618  0.58025  0.10561  1.0000
  H   H1375     1.0  0.67974  0.55395  0.10998  1.0000
  H   H1376     1.0  0.68858  0.58386  0.08223  1.0000
  H   H1377     1.0  0.75832  0.60940  0.08436  1.0000
  N   N114      1.0  0.75434  0.94979  0.08715  1.0000
  H   H1378     1.0  0.69308  0.92299  0.20899  1.0000
  H   H1379     1.0  0.67334  0.89903  0.19269  1.0000
  H   H1380     1.0  0.71015  0.95665  0.02532  1.0000
  H   H1381     1.0  0.67730  0.62588  0.01617  1.0000
  S   S478      1.0  0.67354  0.69366  0.14680  1.0000
  C   C1380     1.0  0.92658  0.70435  0.00612  1.0000
  H   H1382     1.0  0.75093  0.95024  0.03002  1.0000
  C   C1381     1.0  0.76155  0.96366  0.01852  1.0000
  H   H1383     1.0  0.87945  0.98332  0.08985  1.0000
  C   C1382     1.0  0.79390  0.99797  0.20783  1.0000
  H   H1384     1.0  0.73449  0.55875  0.19189  1.0000
  H   H1385     1.0  0.96470  0.74162  0.01859  1.0000
  C   C1383     1.0  0.70937  0.62722  0.02279  1.0000
  H   H1386     1.0  0.74009  0.69095  0.01415  1.0000
  Fe  Fe242     1.0  0.97420  0.54396  0.18997  1.0000
  H   H1387     1.0  0.70298  0.75771  0.14783  1.0000
  H   H1388     1.0  0.70296  0.99347  0.11054  1.0000
  C   C1384     1.0  0.70748  0.74565  0.11566  1.0000
  C   C1385     1.0  0.97002  0.71051  0.01152  1.0000
  C   C1386     1.0  0.81326  0.86470  0.15370  1.0000
  C   C1387     1.0  0.68068  0.54206  0.23048  1.0000
  H   H1389     1.0  0.77312  0.77385  0.09743  1.0000
  C   C1388     1.0  0.92320  0.74088  0.01392  1.0000
  C   C1389     1.0  0.69648  0.94216  0.15295  1.0000
  H   H1390     1.0  0.67574  0.95894  0.16768  1.0000
  H   H1391     1.0  0.68981  0.97250  0.01974  1.0000
  N   N115      1.0  0.93587  0.72335  0.01156  1.0000
  C   C1390     1.0  0.69732  0.92818  0.14148  1.0000
  C   C1391     1.0  0.81901  0.89085  0.17177  1.0000
  C   C1392     1.0  0.96888  0.61593  0.11343  1.0000
  H   H1392     1.0  0.71908  0.93279  0.10000  1.0000
  H   H1393     1.0  0.80850  0.86171  0.21219  1.0000
  N   N116      1.0  0.88002  0.66115  0.09098  1.0000
  C   C1393     1.0  0.86461  0.64607  0.08574  1.0000
  C   C1394     1.0  0.87463  0.68008  0.09583  1.0000
  C   C1395     1.0  0.84337  0.65008  0.08489  1.0000
  C   C1396     1.0  0.85347  0.68453  0.09524  1.0000
  C   C1397     1.0  0.83785  0.66947  0.08964  1.0000
  C   C1398     1.0  0.90215  0.65667  0.09194  1.0000
  H   H1394     1.0  0.86891  0.63120  0.08170  1.0000
  H   H1395     1.0  0.88696  0.69216  0.09980  1.0000
  H   H1396     1.0  0.83162  0.63868  0.08002  1.0000
  H   H1397     1.0  0.84937  0.69980  0.09876  1.0000
  H   H1398     1.0  0.82171  0.67312  0.08864  1.0000
  H   H1399     1.0  0.90103  0.64696  0.10517  1.0000
  H   H1400     1.0  0.90741  0.64602  0.08317  1.0000
  H   H1401     1.0  0.91611  0.67362  0.08806  1.0000
  N   N117      1.0  0.75297  0.63058  0.20881  1.0000
  C   C1399     1.0  0.76106  0.65099  0.19575  1.0000
  C   C1400     1.0  0.76702  0.62373  0.21836  1.0000
  C   C1401     1.0  0.78344  0.66564  0.19240  1.0000
  C   C1402     1.0  0.78943  0.63805  0.21549  1.0000
  C   C1403     1.0  0.79761  0.65920  0.20247  1.0000
  C   C1404     1.0  0.72939  0.61562  0.21213  1.0000
  H   H1402     1.0  0.75015  0.65613  0.18790  1.0000
  H   H1403     1.0  0.76075  0.60738  0.22850  1.0000
  C   C1405     1.0  0.72227  0.55298  0.21913  1.0000
  H   H1404     1.0  0.80011  0.63305  0.22364  1.0000
  H   H1405     1.0  0.81485  0.67060  0.20026  1.0000
  H   H1406     1.0  0.72885  0.60469  0.20292  1.0000
  S   S479      1.0  0.94050  0.54639  0.20522  1.0000
  C   C1406     1.0  0.96050  0.69082  0.00633  1.0000
  C   C1407     1.0  0.93704  0.53568  0.22721  1.0000
  C   C1408     1.0  0.73098  0.95096  0.09441  1.0000
  S   S480      1.0  0.95199  0.63493  0.10872  1.0000
  C   C1409     1.0  0.75463  0.76595  0.10240  1.0000
  C   C1410     1.0  0.75677  0.66971  0.23559  1.0000
  H   H1407     1.0  0.78965  0.68190  0.18208  1.0000
  C   C1411     1.0  0.66681  0.64526  0.15375  1.0000
  C   C1412     1.0  0.96513  0.60303  0.13036  1.0000
  H   H1408     1.0  0.95113  0.60394  0.14029  1.0000
  S   S481      1.0  0.97930  0.52540  0.16926  1.0000
  H   H1409     1.0  0.97466  0.62293  0.23865  1.0000
  H   H1410     1.0  0.71312  0.98576  0.04405  1.0000
  C   C1413     1.0  0.84693  0.99131  0.09132  1.0000
  C   C1414     1.0  0.88452  0.51159  0.22601  1.0000
  H   H1411     1.0  0.73067  0.96026  0.10468  1.0000
  H   H1412     1.0  0.80298  0.94555  0.09857  1.0000
  C   C1415     1.0  0.76914  0.94840  0.09721  1.0000
  C   C1416     1.0  0.67824  0.62554  0.10643  1.0000
  N   N118      1.0  0.80877  0.87211  0.18601  1.0000
  C   C1417     1.0  0.70803  0.97205  0.01633  1.0000
  C   C1418     1.0  0.79125  0.94656  0.09059  1.0000
  C   C1419     1.0  0.78286  0.94719  0.06349  1.0000
  C   C1420     1.0  0.71981  0.73765  0.10299  1.0000
  C   C1421     1.0  0.76079  0.94882  0.07057  1.0000
  C   C1422     1.0  0.69834  0.61031  0.12684  1.0000
  C   C1423     1.0  0.67925  0.95560  0.22268  1.0000
  H   H1413     1.0  0.66694  0.95905  0.23306  1.0000
  C   C1424     1.0  0.94460  0.51615  0.23351  1.0000
  N   N119      1.0  0.69409  0.62934  0.11707  1.0000
  H   H1414     1.0  0.78819  0.94720  0.05017  1.0000
  C   C1425     1.0  0.71376  0.61355  0.13681  1.0000
  H   H1415     1.0  0.74901  0.94972  0.06264  1.0000
  H   H1416     1.0  0.72454  0.96117  0.08463  1.0000
  H   H1417     1.0  0.74950  0.57919  0.11211  1.0000
  H   H1418     1.0  0.66834  0.63887  0.10585  1.0000
  C   C1426     1.0  0.80069  0.84977  0.18443  1.0000
  C   C1427     1.0  0.70529  0.65193  0.11665  1.0000
  H   H1419     1.0  0.70218  0.66703  0.10872  1.0000
  H   H1420     1.0  0.81216  0.99975  0.20362  1.0000
  S   S482      1.0  0.97006  0.70062  0.08723  1.0000
  C   C1428     1.0  0.67664  0.92495  0.20721  1.0000
  C   C1429     1.0  0.74181  0.77342  0.11515  1.0000
  H   H1421     1.0  0.99246  0.68895  0.12256  1.0000
  C   C1430     1.0  0.77813  0.98209  0.20266  1.0000
  H   H1422     1.0  0.75068  0.78706  0.12009  1.0000
  C   C1431     1.0  0.72059  0.65585  0.12666  1.0000
  C   C1432     1.0  0.73320  0.63231  0.01647  1.0000
  H   H1423     1.0  0.81672  0.89322  0.20292  1.0000
  H   H1424     1.0  0.92034  0.56165  0.23384  1.0000
  H   H1425     1.0  0.68958  0.59244  0.12710  1.0000
  H   H1426     1.0  0.99362  0.50838  0.24260  1.0000
  N   N120      1.0  0.71849  0.76340  0.12151  1.0000
  H   H1427     1.0  0.71445  0.78842  0.13606  1.0000
  C   C1433     1.0  0.92666  0.54685  0.23856  1.0000
  S   S483      1.0  0.70755  0.54432  0.13316  1.0000
  C   C1434     1.0  0.98684  0.61454  0.10060  1.0000
  C   C1435     1.0  0.80515  0.87607  0.20307  1.0000
  H   H1428     1.0  0.68814  0.77123  0.13367  1.0000
  H   H1429     1.0  0.75334  0.74185  0.08652  1.0000
  C   C1436     1.0  0.82526  0.98899  0.10195  1.0000
  C   C1437     1.0  0.74326  0.63984  0.99882  1.0000
  H   H1430     1.0  0.72855  0.99193  0.22254  1.0000
  H   H1431     1.0  0.70358  0.68443  0.00554  1.0000
  C   C1438     1.0  0.97981  0.58937  0.13455  1.0000
  H   H1432     1.0  0.73659  0.63928  0.14467  1.0000
  C   C1439     1.0  0.82154  0.88742  0.15543  1.0000
  C   C1440     1.0  0.69732  0.54892  0.20018  1.0000
  C   C1441     1.0  0.67787  0.54228  0.21416  1.0000
  C   C1442     1.0  0.80284  0.84570  0.16828  1.0000
  H   H1433     1.0  0.79162  0.83510  0.19570  1.0000
  C   C1443     1.0  0.72377  0.99866  0.03225  1.0000
  C   C1444     1.0  0.71995  0.69149  0.99587  1.0000
  H   H1434     1.0  0.90946  0.70161  0.00416  1.0000
  H   H1435     1.0  0.74377  0.63055  0.02527  1.0000
  H   H1436     1.0  0.77451  0.68054  0.23142  1.0000
  H   H1437     1.0  0.72926  0.67377  0.12648  1.0000
  H   H1438     1.0  0.79570  0.82806  0.16713  1.0000
  C   C1445     1.0  0.74675  0.99342  0.21851  1.0000
  C   C1446     1.0  0.76044  0.96015  0.00251  1.0000
  H   H1439     1.0  0.71714  0.59827  0.14437  1.0000
  H   H1440     1.0  0.69531  0.54909  0.18755  1.0000
  H   H1441     1.0  0.71104  0.72343  0.09851  1.0000
  C   C1447     1.0  0.75451  0.97977  0.20803  1.0000
  H   H1442     1.0  0.82936  0.90246  0.14420  1.0000
  C   C1448     1.0  0.98718  0.63093  0.22633  1.0000
  C   C1449     1.0  0.74353  0.74794  0.09631  1.0000
  H   H1443     1.0  0.68977  0.97290  0.21355  1.0000
  C   C1450     1.0  0.74060  0.69509  0.00076  1.0000
  S   S484      1.0  0.99602  0.71976  0.04628  1.0000
  H   H1444     1.0  0.68909  0.73737  0.12095  1.0000
  H   H1445     1.0  0.68083  0.64759  0.15960  1.0000
  H   H1446     1.0  0.93097  0.67230  0.99971  1.0000
  S   S485      1.0  0.74037  0.93463  0.00167  1.0000
  S   S486      1.0  0.66968  0.00131  0.17193  1.0000
  N   N121      1.0  0.66707  0.94078  0.21365  1.0000
  C   C1451     1.0  0.99557  0.67159  0.12197  1.0000
  H   H1447     1.0  0.68813  0.62665  0.09331  1.0000
  H   H1448     1.0  0.97009  0.67802  0.00452  1.0000
  H   H1449     1.0  0.98947  0.62403  0.08745  1.0000
  H   H1450     1.0  0.66567  0.53700  0.24134  1.0000
  C   C1452     1.0  0.86133  0.56037  0.23754  1.0000
  C   C1453     1.0  0.98844  0.59128  0.22408  1.0000
  H   H1451     1.0  0.98133  0.65710  0.13155  1.0000
  N   N122      1.0  0.99605  0.61714  0.21710  1.0000
  H   H1452     1.0  0.98787  0.66653  0.22783  1.0000
  C   C1454     1.0  0.78954  0.00223  0.00491  1.0000
  N   N123      1.0  0.86512  0.53697  0.23838  1.0000
  H   H1453     1.0  0.99510  0.66969  0.10904  1.0000
  H   H1454     1.0  0.87226  0.56994  0.24438  1.0000
  H   H1455     1.0  0.66567  0.62683  0.21345  1.0000
  C   C1455     1.0  0.87998  0.53356  0.22498  1.0000
  H   H1456     1.0  0.95150  0.50666  0.22493  1.0000
  H   H1457     1.0  0.72134  0.99526  0.17292  1.0000
  H   H1458     1.0  0.71218  0.96883  0.00347  1.0000
  H   H1459     1.0  0.69298  0.00390  0.23412  1.0000
  Fe  Fe243     1.0  0.99472  0.68203  0.04676  1.0000
  H   H1460     1.0  0.84294  0.55861  0.24367  1.0000
  H   H1461     1.0  0.74463  0.50737  0.21027  1.0000
  H   H1462     1.0  0.73810  0.50747  0.18169  1.0000
  H   H1463     1.0  0.98707  0.71314  0.01355  1.0000
  N   N124      1.0  0.72338  0.99423  0.01681  1.0000
  H   H1464     1.0  0.89667  0.50915  0.21545  1.0000
  H   H1465     1.0  0.99623  0.58212  0.21506  1.0000
  C   C1456     1.0  0.73246  0.98267  0.43532  1.0000
  S   S487      1.0  0.70460  0.88676  0.46914  1.0000
  C   C1457     1.0  0.92541  0.53963  0.25597  1.0000
  H   H1466     1.0  0.71374  0.58037  0.33716  1.0000
  C   C1458     1.0  0.79299  0.95088  0.49360  1.0000
  C   C1459     1.0  0.67557  0.52370  0.33973  1.0000
  S   S488      1.0  0.76151  0.94088  0.44944  1.0000
  C   C1460     1.0  0.97368  0.57296  0.35024  1.0000
  H   H1467     1.0  0.70451  0.80123  0.43586  1.0000
  H   H1468     1.0  0.71659  0.74283  0.43749  1.0000
  C   C1461     1.0  0.68100  0.52444  0.48053  1.0000
  Fe  Fe244     1.0  0.93127  0.59670  0.28658  1.0000
  S   S489      1.0  0.92065  0.56276  0.30744  1.0000
  S   S490      1.0  0.90566  0.61463  0.27799  1.0000
  S   S491      1.0  0.97546  0.56436  0.29866  1.0000
  Fe  Fe245     1.0  0.94503  0.55112  0.28922  1.0000
  Fe  Fe246     1.0  0.95207  0.57923  0.31501  1.0000
  S   S492      1.0  0.95347  0.58387  0.26784  1.0000
  S   S493      1.0  0.96083  0.61450  0.29555  1.0000
  S   S494      1.0  0.76243  0.57586  0.29001  1.0000
  H   H1469     1.0  0.70558  0.67001  0.42835  1.0000
  C   C1462     1.0  0.68492  0.76636  0.48940  1.0000
  H   H1470     1.0  0.75930  0.63070  0.44134  1.0000
  Fe  Fe247     1.0  0.76356  0.59993  0.26500  1.0000
  Fe  Fe248     1.0  0.73203  0.91670  0.47136  1.0000
  H   H1471     1.0  0.91758  0.54846  0.26467  1.0000
  C   C1463     1.0  0.98408  0.60375  0.47738  1.0000
  C   C1464     1.0  0.70401  0.53241  0.48096  1.0000
  N   N125      1.0  0.68049  0.58412  0.33606  1.0000
  H   H1472     1.0  0.84225  0.58581  0.31132  1.0000
  H   H1473     1.0  0.92362  0.60988  0.33643  1.0000
  C   C1465     1.0  0.68086  0.81268  0.48112  1.0000
  H   H1474     1.0  0.70802  0.53221  0.49304  1.0000
  C   C1466     1.0  0.80916  0.97290  0.48572  1.0000
  C   C1467     1.0  0.87475  0.60943  0.48976  1.0000
  C   C1468     1.0  0.79582  0.98222  0.44061  1.0000
  S   S495      1.0  0.75174  0.59646  0.48809  1.0000
  H   H1475     1.0  0.91834  0.58519  0.48075  1.0000
  N   N126      1.0  0.88687  0.59497  0.48383  1.0000
  H   H1476     1.0  0.97535  0.51306  0.30122  1.0000
  H   H1477     1.0  0.94558  0.55036  0.48350  1.0000
  C   C1469     1.0  0.67483  0.52122  0.35701  1.0000
  S   S496      1.0  0.75082  0.54512  0.46611  1.0000
  Fe  Fe249     1.0  0.76179  0.56375  0.48514  1.0000
  S   S497      1.0  0.79970  0.58169  0.47813  1.0000
  S   S498      1.0  0.73941  0.70409  0.44044  1.0000
  S   S499      1.0  0.94901  0.57482  0.34310  1.0000
  H   H1478     1.0  0.68456  0.92800  0.42190  1.0000
  S   S500      1.0  0.70716  0.93127  0.48654  1.0000
  C   C1470     1.0  0.72183  0.53916  0.46586  1.0000
  C   C1471     1.0  0.71657  0.53932  0.45028  1.0000
  C   C1472     1.0  0.69362  0.53176  0.44983  1.0000
  C   C1473     1.0  0.74630  0.78572  0.46201  1.0000
  C   C1474     1.0  0.91930  0.61372  0.49264  1.0000
  H   H1479     1.0  0.74187  0.75403  0.45350  1.0000
  H   H1480     1.0  0.73034  0.54461  0.43857  1.0000
  H   H1481     1.0  0.68986  0.53104  0.43784  1.0000
  C   C1475     1.0  0.69747  0.58209  0.34403  1.0000
  H   H1482     1.0  0.67489  0.60615  0.44977  1.0000
  C   C1476     1.0  0.78841  0.66457  0.45889  1.0000
  C   C1477     1.0  0.76571  0.65928  0.46889  1.0000
  C   C1478     1.0  0.75085  0.67197  0.46356  1.0000
  C   C1479     1.0  0.75838  0.68945  0.44796  1.0000
  C   C1480     1.0  0.78106  0.69470  0.43793  1.0000
  C   C1481     1.0  0.79614  0.68249  0.44350  1.0000
  H   H1483     1.0  0.81951  0.97671  0.47265  1.0000
  H   H1484     1.0  0.73363  0.66816  0.47159  1.0000
  H   H1485     1.0  0.78700  0.70823  0.42584  1.0000
  H   H1486     1.0  0.81373  0.68673  0.43577  1.0000
  C   C1482     1.0  0.78659  0.68701  0.49298  1.0000
  H   H1487     1.0  0.66981  0.58278  0.38382  1.0000
  C   C1483     1.0  0.97157  0.56663  0.36785  1.0000
  C   C1484     1.0  0.71305  0.76031  0.43408  1.0000
  S   S501      1.0  0.75126  0.53215  0.27143  1.0000
  H   H1488     1.0  0.74990  0.96522  0.47560  1.0000
  H   H1489     1.0  0.70704  0.57897  0.36778  1.0000
  S   S502      1.0  0.70035  0.71349  0.47938  1.0000
  H   H1490     1.0  0.88801  0.57397  0.46608  1.0000
  C   C1485     1.0  0.99092  0.56511  0.37392  1.0000
  C   C1486     1.0  0.71651  0.53148  0.34956  1.0000
  C   C1487     1.0  0.74077  0.62514  0.44312  1.0000
  H   H1491     1.0  0.80329  0.97616  0.42993  1.0000
  S   S503      1.0  0.99247  0.62513  0.48795  1.0000
  C   C1488     1.0  0.77520  0.96803  0.45251  1.0000
  C   C1489     1.0  0.72583  0.81284  0.45149  1.0000
  C   C1490     1.0  0.71670  0.79704  0.44284  1.0000
  S   S504      1.0  0.73091  0.57778  0.26249  1.0000
  Fe  Fe250     1.0  0.98210  0.59823  0.27851  1.0000
  H   H1492     1.0  0.91061  0.63426  0.31425  1.0000
  H   H1493     1.0  0.68804  0.64690  0.42194  1.0000
  C   C1491     1.0  0.72809  0.60182  0.45183  1.0000
  C   C1492     1.0  0.71727  0.53420  0.33223  1.0000
  S   S505      1.0  0.69708  0.53512  0.30564  1.0000
  C   C1493     1.0  0.66510  0.95214  0.42799  1.0000
  H   H1494     1.0  0.95491  0.56285  0.37685  1.0000
  H   H1495     1.0  0.73367  0.53911  0.32273  1.0000
  H   H1496     1.0  0.98908  0.56028  0.38752  1.0000
  C   C1494     1.0  0.71162  0.97981  0.44709  1.0000
  S   S506      1.0  0.68652  0.65848  0.47738  1.0000
  C   C1495     1.0  0.93476  0.52144  0.26203  1.0000
  C   C1496     1.0  0.87982  0.59505  0.27792  1.0000
  C   C1497     1.0  0.86199  0.60399  0.27376  1.0000
  C   C1498     1.0  0.84092  0.58846  0.27433  1.0000
  C   C1499     1.0  0.83760  0.56393  0.27918  1.0000
  C   C1500     1.0  0.85545  0.55506  0.28333  1.0000
  C   C1501     1.0  0.87653  0.57055  0.28258  1.0000
  H   H1497     1.0  0.86445  0.62296  0.27012  1.0000
  H   H1498     1.0  0.82725  0.59547  0.27106  1.0000
  H   H1499     1.0  0.89019  0.56346  0.28565  1.0000
  H   H1500     1.0  0.66726  0.51820  0.49230  1.0000
  S   S507      1.0  0.93802  0.51611  0.28284  1.0000
  H   H1501     1.0  0.69400  0.75691  0.43700  1.0000
  H   H1502     1.0  0.80098  0.69571  0.48167  1.0000
  H   H1503     1.0  0.72141  0.62013  0.26559  1.0000
  C   C1502     1.0  0.99154  0.58894  0.45242  1.0000
  C   C1503     1.0  0.90887  0.59692  0.48519  1.0000
  H   H1504     1.0  0.82986  0.57059  0.33365  1.0000
  H   H1505     1.0  0.85299  0.53611  0.28721  1.0000
  C   C1504     1.0  0.75030  0.00356  0.43149  1.0000
  N   N127      1.0  0.72243  0.77619  0.44365  1.0000
  C   C1505     1.0  0.69418  0.65149  0.43278  1.0000
  Fe  Fe251     1.0  0.70482  0.69421  0.45933  1.0000
  C   C1506     1.0  0.69342  0.61162  0.44790  1.0000
  H   H1506     1.0  0.79065  0.93748  0.48667  1.0000
  Fe  Fe252     1.0  0.78252  0.55784  0.27366  1.0000
  C   C1507     1.0  0.87571  0.57613  0.47711  1.0000
  N   N128      1.0  0.70598  0.63449  0.43943  1.0000
  C   C1508     1.0  0.72940  0.64130  0.43682  1.0000
  H   H1507     1.0  0.72080  0.76840  0.42015  1.0000
  H   H1508     1.0  0.70176  0.58328  0.31225  1.0000
  S   S508      1.0  0.78655  0.58413  0.24900  1.0000
  C   C1509     1.0  0.70425  0.59495  0.45425  1.0000
  C   C1510     1.0  0.80695  0.00416  0.44249  1.0000
  Fe  Fe253     1.0  0.78938  0.61331  0.48335  1.0000
  H   H1509     1.0  0.69315  0.63113  0.25060  1.0000
  H   H1510     1.0  0.67939  0.83057  0.47777  1.0000
  H   H1511     1.0  0.73677  0.58911  0.45665  1.0000
  C   C1511     1.0  0.67582  0.52370  0.46498  1.0000
  S   S509      1.0  0.69491  0.52377  0.38335  1.0000
  C   C1512     1.0  0.73724  0.77052  0.45292  1.0000
  H   H1512     1.0  0.67907  0.65104  0.44296  1.0000
  C   C1513     1.0  0.67360  0.93258  0.43195  1.0000
  C   C1514     1.0  0.69387  0.58146  0.36133  1.0000
  C   C1515     1.0  0.95978  0.56615  0.47708  1.0000
  Fe  Fe254     1.0  0.73147  0.55205  0.28610  1.0000
  C   C1516     1.0  0.77662  0.99824  0.46800  1.0000
  C   C1517     1.0  0.69678  0.53042  0.32729  1.0000
  H   H1513     1.0  0.69423  0.57681  0.46095  1.0000
  C   C1518     1.0  0.67182  0.77222  0.47822  1.0000
  S   S510      1.0  0.67196  0.96858  0.40664  1.0000
  H   H1514     1.0  0.85697  0.60722  0.48934  1.0000
  H   H1515     1.0  0.86906  0.55910  0.48735  1.0000
  S   S511      1.0  0.81180  0.54380  0.27968  1.0000
  H   H1516     1.0  0.73492  0.96857  0.42944  1.0000
  S   S512      1.0  0.80755  0.64969  0.46582  1.0000
  Fe  Fe255     1.0  0.70890  0.86612  0.49353  1.0000
  H   H1517     1.0  0.75745  0.78091  0.46979  1.0000
  N   N129      1.0  0.86636  0.58409  0.32641  1.0000
  C   C1519     1.0  0.87920  0.60692  0.31806  1.0000
  C   C1520     1.0  0.87336  0.57057  0.33862  1.0000
  C   C1521     1.0  0.90000  0.61652  0.32147  1.0000
  C   C1522     1.0  0.89386  0.57976  0.34257  1.0000
  C   C1523     1.0  0.90733  0.60283  0.33382  1.0000
  C   C1524     1.0  0.68423  0.58454  0.31797  1.0000
  H   H1518     1.0  0.87386  0.61765  0.30825  1.0000
  H   H1519     1.0  0.86328  0.55244  0.34519  1.0000
  H   H1520     1.0  0.73943  0.65934  0.42991  1.0000
  H   H1521     1.0  0.89969  0.56890  0.35200  1.0000
  Fe  Fe256     1.0  0.68014  0.89962  0.48664  1.0000
  C   C1525     1.0  0.75006  0.64902  0.24907  1.0000
  C   C1526     1.0  0.81107  0.99047  0.49438  1.0000
  C   C1527     1.0  0.97323  0.56853  0.46067  1.0000
  C   C1528     1.0  0.69481  0.80696  0.49169  1.0000
  C   C1529     1.0  0.69530  0.52524  0.36195  1.0000
  S   S513      1.0  0.67379  0.69918  0.45073  1.0000
  H   H1522     1.0  0.76672  0.71124  0.48676  1.0000
  H   H1523     1.0  0.68625  0.74851  0.49296  1.0000
  H   H1524     1.0  0.69777  0.96359  0.45026  1.0000
  H   H1525     1.0  0.74678  0.81866  0.46868  1.0000
  C   C1530     1.0  0.96537  0.58364  0.48550  1.0000
  S   S514      1.0  0.96785  0.54528  0.45113  1.0000
  C   C1531     1.0  0.76566  0.97606  0.46626  1.0000
  C   C1532     1.0  0.74051  0.80700  0.46127  1.0000
  H   H1526     1.0  0.75982  0.64607  0.48107  1.0000
  H   H1527     1.0  0.73240  0.53449  0.35333  1.0000
  Fe  Fe257     1.0  0.75349  0.56029  0.24810  1.0000
  C   C1533     1.0  0.67288  0.58325  0.37040  1.0000
  H   H1528     1.0  0.84294  0.52162  0.26366  1.0000
  S   S515      1.0  0.77089  0.63960  0.25807  1.0000
  H   H1529     1.0  0.84521  0.55694  0.31924  1.0000
  C   C1534     1.0  0.84485  0.57390  0.32251  1.0000
  C   C1535     1.0  0.71092  0.64187  0.24631  1.0000
  C   C1536     1.0  0.72699  0.63541  0.25464  1.0000
  H   H1530     1.0  0.67169  0.56909  0.31658  1.0000
  H   H1531     1.0  0.93664  0.61509  0.49390  1.0000
  H   H1532     1.0  0.72077  0.82907  0.45123  1.0000
  H   H1533     1.0  0.67456  0.90375  0.45180  1.0000
  C   C1537     1.0  0.66945  0.79533  0.47436  1.0000
  C   C1538     1.0  0.99433  0.51647  0.29631  1.0000
  H   H1534     1.0  0.86078  0.57998  0.47276  1.0000
  C   C1539     1.0  0.70876  0.99784  0.45479  1.0000
  C   C1540     1.0  0.66813  0.91898  0.44890  1.0000
  Fe  Fe258     1.0  0.66779  0.71624  0.47239  1.0000
  C   C1541     1.0  0.99534  0.57792  0.33870  1.0000
  H   H1535     1.0  0.76926  0.00406  0.47873  1.0000
  C   C1542     1.0  0.85471  0.51896  0.25304  1.0000
  C   C1543     1.0  0.94331  0.50893  0.25095  1.0000
  H   H1536     1.0  0.69251  0.99589  0.46380  1.0000
  C   C1544     1.0  0.99324  0.51165  0.26805  1.0000
  H   H1537     1.0  0.68223  0.60122  0.31048  1.0000
  S   S516      1.0  0.73883  0.89502  0.49411  1.0000
  H   H1538     1.0  0.70476  0.54604  0.24574  1.0000
  Fe  Fe259     1.0  0.66596  0.00448  0.40323  1.0000
  H   H1539     1.0  0.69765  0.50567  0.41789  1.0000
  H   H1540     1.0  0.70694  0.77906  0.50440  1.0000
  H   H1541     1.0  0.84877  0.61412  0.54310  1.0000
  C   C1545     1.0  0.77743  0.94642  0.70831  1.0000
  C   C1546     1.0  0.87867  0.57611  0.53189  1.0000
  S   S517      1.0  0.73965  0.88049  0.72420  1.0000
  C   C1547     1.0  0.74865  0.68365  0.51013  1.0000
  C   C1548     1.0  0.69031  0.79409  0.70760  1.0000
  H   H1542     1.0  0.73752  0.96081  0.67748  1.0000
  Fe  Fe260     1.0  0.71205  0.89477  0.71571  1.0000
  C   C1549     1.0  0.76720  0.95892  0.53627  1.0000
  N   N130      1.0  0.78183  0.96360  0.51889  1.0000
  C   C1550     1.0  0.72795  0.98859  0.56557  1.0000
  C   C1551     1.0  0.68156  0.86347  0.66052  1.0000
  H   H1543     1.0  0.80113  0.65882  0.50163  1.0000
  C   C1552     1.0  0.70862  0.98396  0.52468  1.0000
  S   S518      1.0  0.71885  0.92569  0.52934  1.0000
  H   H1544     1.0  0.72125  0.66385  0.54137  1.0000
  H   H1545     1.0  0.69926  0.96520  0.52631  1.0000
  H   H1546     1.0  0.77671  0.96794  0.54412  1.0000
  S   S519      1.0  0.68266  0.86361  0.73211  1.0000
  S   S520      1.0  0.69831  0.69847  0.69153  1.0000
  S   S521      1.0  0.71933  0.66166  0.72629  1.0000
  N   N131      1.0  0.74920  0.66368  0.52136  1.0000
  H   H1547     1.0  0.76093  0.93963  0.54287  1.0000
  Fe  Fe261     1.0  0.96559  0.58531  0.55141  1.0000
  Fe  Fe262     1.0  0.70995  0.85067  0.74199  1.0000
  C   C1553     1.0  0.84254  0.56932  0.52379  1.0000
  H   H1548     1.0  0.97645  0.50926  0.59789  1.0000
  C   C1554     1.0  0.77142  0.98072  0.71728  1.0000
  S   S522      1.0  0.72707  0.59494  0.53400  1.0000
  H   H1549     1.0  0.73130  0.98484  0.68535  1.0000
  H   H1550     1.0  0.71743  0.99182  0.51085  1.0000
  C   C1555     1.0  0.68689  0.58196  0.55883  1.0000
  C   C1556     1.0  0.70365  0.57382  0.54953  1.0000
  C   C1557     1.0  0.70148  0.54951  0.55300  1.0000
  Fe  Fe263     1.0  0.97350  0.61604  0.51563  1.0000
  H   H1551     1.0  0.68526  0.60742  0.63433  1.0000
  C   C1558     1.0  0.78267  0.96301  0.71738  1.0000
  C   C1559     1.0  0.69552  0.00313  0.57599  1.0000
  C   C1560     1.0  0.67060  0.57021  0.63705  1.0000
  C   C1561     1.0  0.72929  0.65117  0.53611  1.0000
  S   S523      1.0  0.82465  0.55492  0.51297  1.0000
  H   H1552     1.0  0.68963  0.80302  0.69506  1.0000
  H   H1553     1.0  0.89457  0.57166  0.53235  1.0000
  C   C1562     1.0  0.79708  0.98553  0.51103  1.0000
  H   H1554     1.0  0.95851  0.57790  0.58983  1.0000
  H   H1555     1.0  0.71604  0.95451  0.69743  1.0000
  S   S524      1.0  0.71215  0.82871  0.49845  1.0000
  H   H1556     1.0  0.72191  0.98434  0.53182  1.0000
  C   C1563     1.0  0.75351  0.78091  0.73486  1.0000
  H   H1557     1.0  0.97176  0.59127  0.61312  1.0000
  H   H1558     1.0  0.74613  0.99522  0.70820  1.0000
  H   H1559     1.0  0.68381  0.85958  0.69225  1.0000
  H   H1560     1.0  0.73356  0.69022  0.51214  1.0000
  S   S525      1.0  0.75884  0.54950  0.51307  1.0000
  Fe  Fe264     1.0  0.75219  0.58426  0.51539  1.0000
  H   H1561     1.0  0.91443  0.64070  0.50540  1.0000
  H   H1562     1.0  0.75196  0.96562  0.53575  1.0000
  N   N132      1.0  0.75054  0.96572  0.69869  1.0000
  H   H1563     1.0  0.67224  0.92906  0.64708  1.0000
  C   C1564     1.0  0.69100  0.91308  0.68226  1.0000
  S   S526      1.0  0.70989  0.91700  0.73425  1.0000
  H   H1564     1.0  0.77495  0.99324  0.72475  1.0000
  H   H1565     1.0  0.73605  0.97435  0.56614  1.0000
  C   C1565     1.0  0.86302  0.56335  0.52477  1.0000
  C   C1566     1.0  0.69242  0.92620  0.55981  1.0000
  H   H1566     1.0  0.70771  0.92526  0.65523  1.0000
  C   C1567     1.0  0.69166  0.92097  0.66504  1.0000
  Fe  Fe265     1.0  0.67192  0.71353  0.70497  1.0000
  C   C1568     1.0  0.70583  0.98460  0.57642  1.0000
  H   H1567     1.0  0.75115  0.79788  0.72806  1.0000
  H   H1568     1.0  0.74684  0.71593  0.69992  1.0000
  H   H1569     1.0  0.70642  0.61567  0.60374  1.0000
  C   C1569     1.0  0.69736  0.80745  0.71851  1.0000
  C   C1570     1.0  0.69452  0.57937  0.60308  1.0000
  H   H1570     1.0  0.68164  0.73865  0.73282  1.0000
  C   C1571     1.0  0.77934  0.94651  0.51028  1.0000
  H   H1571     1.0  0.69357  0.87388  0.63290  1.0000
  C   C1572     1.0  0.67151  0.92303  0.66037  1.0000
  H   H1572     1.0  0.86698  0.54910  0.51974  1.0000
  H   H1573     1.0  0.69813  0.86175  0.66213  1.0000
  S   S527      1.0  0.94546  0.58349  0.53188  1.0000
  S   S528      1.0  0.68489  0.66466  0.52233  1.0000
  S   S529      1.0  0.66609  0.68941  0.73110  1.0000
  S   S530      1.0  0.89330  0.61201  0.54646  1.0000
  C   C1573     1.0  0.74900  0.72978  0.70649  1.0000
  C   C1574     1.0  0.68414  0.59325  0.62804  1.0000
  C   C1575     1.0  0.87364  0.59457  0.53839  1.0000
  C   C1576     1.0  0.69601  0.59785  0.61090  1.0000
  H   H1574     1.0  0.69696  0.96737  0.58527  1.0000
  C   C1577     1.0  0.75513  0.98169  0.70794  1.0000
  H   H1575     1.0  0.67838  0.63534  0.55582  1.0000
  H   H1576     1.0  0.70211  0.82662  0.71438  1.0000
  H   H1577     1.0  0.71443  0.54312  0.54588  1.0000
  C   C1578     1.0  0.78668  0.66623  0.50421  1.0000
  H   H1578     1.0  0.70384  0.58262  0.58980  1.0000
  H   H1579     1.0  0.73280  0.77927  0.70984  1.0000
  C   C1579     1.0  0.67415  0.98570  0.54480  1.0000
  H   H1580     1.0  0.71623  0.63927  0.53209  1.0000
  S   S531      1.0  0.94754  0.60853  0.56366  1.0000
  S   S532      1.0  0.99497  0.61545  0.53405  1.0000
  C   C1580     1.0  0.83738  0.58753  0.53054  1.0000
  C   C1581     1.0  0.98210  0.58316  0.60523  1.0000
  H   H1581     1.0  0.70202  0.94466  0.55668  1.0000
  S   S533      1.0  0.66780  0.66494  0.66234  1.0000
  C   C1582     1.0  0.85281  0.59998  0.53795  1.0000
  S   S534      1.0  0.99310  0.66973  0.55301  1.0000
  H   H1582     1.0  0.69101  0.61059  0.74255  1.0000
  Fe  Fe266     1.0  0.69062  0.67285  0.71725  1.0000
  H   H1583     1.0  0.66959  0.90187  0.70822  1.0000
  Fe  Fe267     1.0  0.97577  0.63861  0.54483  1.0000
  C   C1583     1.0  0.68270  0.53345  0.56606  1.0000
  C   C1584     1.0  0.73855  0.74798  0.70336  1.0000
  C   C1585     1.0  0.66881  0.59979  0.52174  1.0000
  H   H1584     1.0  0.79490  0.96164  0.72494  1.0000
  N   N133      1.0  0.75297  0.76400  0.72444  1.0000
  S   S535      1.0  0.95661  0.64194  0.52484  1.0000
  C   C1586     1.0  0.76179  0.72910  0.71846  1.0000
  S   S536      1.0  0.97864  0.55658  0.56477  1.0000
  S   S537      1.0  0.71617  0.90910  0.68764  1.0000
  C   C1587     1.0  0.97466  0.57577  0.59194  1.0000
  H   H1585     1.0  0.68857  0.60071  0.55619  1.0000
  C   C1588     1.0  0.68566  0.88839  0.55306  1.0000
  Fe  Fe268     1.0  0.92982  0.60950  0.54261  1.0000
  C   C1589     1.0  0.67022  0.90777  0.69487  1.0000
  S   S538      1.0  0.67821  0.75334  0.69796  1.0000
  H   H1586     1.0  0.82152  0.59202  0.53010  1.0000
  C   C1590     1.0  0.76320  0.74616  0.72763  1.0000
  C   C1591     1.0  0.67440  0.91624  0.57483  1.0000
  C   C1592     1.0  0.68589  0.75776  0.72881  1.0000
  Fe  Fe269     1.0  0.67874  0.67819  0.49688  1.0000
  H   H1587     1.0  0.68125  0.51466  0.56900  1.0000
  H   H1588     1.0  0.76661  0.92943  0.51624  1.0000
  H   H1589     1.0  0.67007  0.92715  0.58310  1.0000
  S   S539      1.0  0.68236  0.87688  0.51101  1.0000
  H   H1590     1.0  0.73417  0.64018  0.54651  1.0000
  H   H1591     1.0  0.75722  0.93501  0.69200  1.0000
  C   C1593     1.0  0.74099  0.76520  0.71235  1.0000
  C   C1594     1.0  0.69768  0.91242  0.54874  1.0000
  Fe  Fe270     1.0  0.71195  0.90757  0.50926  1.0000
  H   H1592     1.0  0.67108  0.96715  0.55125  1.0000
  H   H1593     1.0  0.67066  0.58210  0.52752  1.0000
  C   C1595     1.0  0.69905  0.79599  0.73449  1.0000
  C   C1596     1.0  0.73301  0.96661  0.68931  1.0000
  H   H1594     1.0  0.69014  0.87755  0.54475  1.0000
  H   H1595     1.0  0.76960  0.71475  0.72121  1.0000
  C   C1597     1.0  0.68476  0.76924  0.71265  1.0000
  H   H1596     1.0  0.72823  0.74855  0.69427  1.0000
  H   H1597     1.0  0.97450  0.52310  0.50937  1.0000
  H   H1598     1.0  0.77020  0.78519  0.73812  1.0000
  C   C1598     1.0  0.76127  0.94808  0.69893  1.0000
  H   H1599     1.0  0.76754  0.63810  0.52681  1.0000
  Fe  Fe271     1.0  0.66852  0.67275  0.68775  1.0000
  H   H1600     1.0  0.78548  0.93207  0.70887  1.0000
  C   C1599     1.0  0.68080  0.55656  0.61249  1.0000
  H   H1601     1.0  0.67870  0.61316  0.52684  1.0000
  H   H1602     1.0  0.95536  0.58130  0.49831  1.0000
  Fe  Fe272     1.0  0.79639  0.57013  0.50618  1.0000
  S   S540      1.0  0.78947  0.60365  0.51077  1.0000
  C   C1600     1.0  0.69312  0.77113  0.73966  1.0000
  C   C1601     1.0  0.66610  0.85121  0.69170  1.0000
  C   C1602     1.0  0.76763  0.65460  0.51836  1.0000
  C   C1603     1.0  0.67911  0.87033  0.64398  1.0000
  H   H1603     1.0  0.98462  0.55062  0.52698  1.0000
  C   C1604     1.0  0.98894  0.53896  0.50393  1.0000
  C   C1605     1.0  0.73011  0.67351  0.74154  1.0000
  C   C1606     1.0  0.98770  0.56505  0.58178  1.0000
  H   H1604     1.0  0.98806  0.63658  0.58896  1.0000
  H   H1605     1.0  0.67674  0.60426  0.50775  1.0000
  C   C1607     1.0  0.66814  0.87822  0.56840  1.0000
  H   H1606     1.0  0.70828  0.69669  0.74399  1.0000
  C   C1608     1.0  0.99452  0.55445  0.51375  1.0000
  H   H1607     1.0  0.97853  0.53024  0.61956  1.0000
  H   H1608     1.0  0.67980  0.54226  0.60635  1.0000
  N   N134      1.0  0.66862  0.55238  0.62913  1.0000
  C   C1609     1.0  0.66799  0.56598  0.57156  1.0000
  H   H1609     1.0  0.77207  0.74467  0.73761  1.0000
  H   H1610     1.0  0.87465  0.63710  0.50264  1.0000
  C   C1610     1.0  0.98631  0.51745  0.62556  1.0000
  N   N135      1.0  0.69280  0.99703  0.53098  1.0000
  C   C1611     1.0  0.88464  0.62636  0.49731  1.0000
  Fe  Fe273     1.0  0.73456  0.89973  0.74460  1.0000
  H   H1611     1.0  0.66442  0.51864  0.64555  1.0000
  C   C1612     1.0  0.66601  0.54173  0.57540  1.0000
  S   S541      1.0  0.66788  0.99910  0.58915  1.0000
  H   H1612     1.0  0.79839  0.99939  0.51760  1.0000
  C   C1613     1.0  0.90698  0.62835  0.49888  1.0000
  H   H1613     1.0  0.75413  0.65248  0.74199  1.0000
  C   C1614     1.0  0.69644  0.78367  0.49604  1.0000
  C   C1615     1.0  0.76737  0.69568  0.49581  1.0000
  Fe  Fe274     1.0  0.73626  0.88768  0.95749  1.0000
  Fe  Fe275     1.0  0.76182  0.93864  0.93819  1.0000
  S   S542      1.0  0.73714  0.95334  0.95372  1.0000
  S   S543      1.0  0.79062  0.96583  0.91748  1.0000
  Fe  Fe276     1.0  0.73937  0.92679  0.97621  1.0000
  C   C1616     1.0  0.69964  0.64267  0.78586  1.0000
  Fe  Fe277     1.0  0.71001  0.92395  0.95082  1.0000
  S   S544      1.0  0.76614  0.91394  0.96088  1.0000
  S   S545      1.0  0.73452  0.91143  0.93327  1.0000
  N   N136      1.0  0.69079  0.62268  0.76491  1.0000
  H   H1614     1.0  0.71990  0.65079  0.83849  1.0000
  H   H1615     1.0  0.77353  0.97507  0.97527  1.0000
  C   C1617     1.0  0.99031  0.61647  0.87600  1.0000
  C   C1618     1.0  0.73165  0.57175  0.78601  1.0000
  S   S546      1.0  0.80675  0.96419  0.84079  1.0000
  H   H1616     1.0  0.68501  0.67431  0.85868  1.0000
  C   C1619     1.0  0.74007  0.58640  0.79563  1.0000
  H   H1617     1.0  0.73466  0.94927  0.75450  1.0000
  C   C1620     1.0  0.72449  0.59305  0.80729  1.0000
  C   C1621     1.0  0.74002  0.69998  0.83556  1.0000
  H   H1618     1.0  0.74354  0.56635  0.77709  1.0000
  C   C1622     1.0  0.99351  0.57037  0.88369  1.0000
  Fe  Fe278     1.0  0.78030  0.65358  0.82747  1.0000
  S   S547      1.0  0.80400  0.63316  0.81782  1.0000
  S   S548      1.0  0.75821  0.64243  0.85434  1.0000
  Fe  Fe279     1.0  0.78166  0.68116  0.79193  1.0000
  S   S549      1.0  0.80563  0.66301  0.77924  1.0000
  S   S550      1.0  0.76161  0.70400  0.78007  1.0000
  Fe  Fe280     1.0  0.78326  0.62974  0.79898  1.0000
  S   S551      1.0  0.76991  0.59503  0.79343  1.0000
  Fe  Fe281     1.0  0.82434  0.66842  0.79925  1.0000
  S   S552      1.0  0.86339  0.67934  0.79006  1.0000
  S   S553      1.0  0.75822  0.64751  0.80999  1.0000
  S   S554      1.0  0.80194  0.68939  0.81053  1.0000
  C   C1623     1.0  0.75696  0.67466  0.75910  1.0000
  C   C1624     1.0  0.72044  0.69655  0.97853  1.0000
  S   S555      1.0  0.97840  0.66092  0.83926  1.0000
  H   H1619     1.0  0.71319  0.94128  0.80421  1.0000
  Fe  Fe282     1.0  0.67743  0.70070  0.91485  1.0000
  C   C1625     1.0  0.72180  0.69048  0.74820  1.0000
  Fe  Fe283     1.0  0.96556  0.69219  0.83047  1.0000
  S   S556      1.0  0.92796  0.69088  0.83954  1.0000
  H   H1620     1.0  0.73011  0.65792  0.96212  1.0000
  H   H1621     1.0  0.76189  0.64424  0.99407  1.0000
  H   H1622     1.0  0.79661  0.71682  0.86460  1.0000
  C   C1626     1.0  0.74913  0.69198  0.76551  1.0000
  C   C1627     1.0  0.72937  0.95676  0.89288  1.0000
  H   H1623     1.0  0.73398  0.73405  0.86317  1.0000
  Fe  Fe284     1.0  0.80758  0.99983  0.82518  1.0000
  H   H1624     1.0  0.85506  0.99499  0.82409  1.0000
  C   C1628     1.0  0.69344  0.96632  0.89298  1.0000
  C   C1629     1.0  0.67550  0.92764  0.77303  1.0000
  H   H1625     1.0  0.68874  0.59009  0.81841  1.0000
  N   N137      1.0  0.71747  0.57810  0.85809  1.0000
  Fe  Fe285     1.0  0.68272  0.88442  0.75157  1.0000
  C   C1630     1.0  0.90992  0.68699  0.82589  1.0000
  C   C1631     1.0  0.88606  0.68309  0.83221  1.0000
  C   C1632     1.0  0.87144  0.68060  0.82141  1.0000
  C   C1633     1.0  0.88074  0.68242  0.80417  1.0000
  C   C1634     1.0  0.90458  0.68641  0.79787  1.0000
  C   C1635     1.0  0.91906  0.68840  0.80871  1.0000
  H   H1626     1.0  0.87883  0.68202  0.84549  1.0000
  H   H1627     1.0  0.85305  0.67751  0.82639  1.0000
  H   H1628     1.0  0.91186  0.68781  0.78454  1.0000
  H   H1629     1.0  0.93731  0.69154  0.80362  1.0000
  C   C1636     1.0  0.96580  0.75627  0.79076  1.0000
  H   H1630     1.0  0.73060  0.60331  0.81539  1.0000
  C   C1637     1.0  0.67731  0.90729  0.92144  1.0000
  C   C1638     1.0  0.76580  0.94382  0.76021  1.0000
  C   C1639     1.0  0.67716  0.98646  0.91336  1.0000
  C   C1640     1.0  0.71274  0.82951  0.92277  1.0000
  C   C1641     1.0  0.76211  0.70125  0.88116  1.0000
  C   C1642     1.0  0.74210  0.68239  0.88560  1.0000
  C   C1643     1.0  0.74122  0.66424  0.87745  1.0000
  C   C1644     1.0  0.76015  0.66520  0.86446  1.0000
  C   C1645     1.0  0.78006  0.68428  0.85963  1.0000
  C   C1646     1.0  0.78113  0.70220  0.86814  1.0000
  H   H1631     1.0  0.72717  0.68183  0.89517  1.0000
  H   H1632     1.0  0.72570  0.64965  0.88107  1.0000
  H   H1633     1.0  0.79478  0.68499  0.84961  1.0000
  C   C1647     1.0  0.71280  0.66522  0.83310  1.0000
  Fe  Fe286     1.0  0.72874  0.72017  0.90904  1.0000
  S   S557      1.0  0.67529  0.96082  0.81031  1.0000
  H   H1634     1.0  0.67883  0.66572  0.79203  1.0000
  H   H1635     1.0  0.68093  0.65064  0.90448  1.0000
  H   H1636     1.0  0.69220  0.90258  0.92426  1.0000
  C   C1648     1.0  0.79097  0.96313  0.89691  1.0000
  C   C1649     1.0  0.79510  0.94320  0.89209  1.0000
  C   C1650     1.0  0.79888  0.94298  0.87487  1.0000
  C   C1651     1.0  0.79802  0.96247  0.86261  1.0000
  C   C1652     1.0  0.69241  0.57088  0.79935  1.0000
  S   S558      1.0  0.70341  0.68558  0.92516  1.0000
  H   H1637     1.0  0.79655  0.92850  0.90148  1.0000
  H   H1638     1.0  0.80326  0.92809  0.87098  1.0000
  C   C1653     1.0  0.93039  0.74700  0.81210  1.0000
  N   N138      1.0  0.69505  0.97605  0.90629  1.0000
  C   C1654     1.0  0.71745  0.80720  0.95433  1.0000
  H   H1639     1.0  0.71906  0.79846  0.96663  1.0000
  H   H1640     1.0  0.71630  0.88416  0.79502  1.0000
  S   S559      1.0  0.76438  0.91755  0.75362  1.0000
  C   C1655     1.0  0.76179  0.70404  0.98830  1.0000
  C   C1656     1.0  0.72832  0.93567  0.80554  1.0000
  N   N139      1.0  0.73184  0.91601  0.80084  1.0000
  C   C1657     1.0  0.67001  0.64626  0.89635  1.0000
  H   H1641     1.0  0.98454  0.76146  0.78691  1.0000
  H   H1642     1.0  0.96336  0.75411  0.76558  1.0000
  H   H1643     1.0  0.71090  0.83821  0.91054  1.0000
  C   C1658     1.0  0.76226  0.70950  0.97097  1.0000
  H   H1644     1.0  0.95923  0.74377  0.83192  1.0000
  C   C1659     1.0  0.74767  0.66566  0.74705  1.0000
  H   H1645     1.0  0.84611  0.98097  0.85491  1.0000
  C   C1660     1.0  0.68209  0.65349  0.78454  1.0000
  C   C1661     1.0  0.73093  0.96693  0.90635  1.0000
  H   H1646     1.0  0.69426  0.76218  0.75206  1.0000
  H   H1647     1.0  0.74539  0.96713  0.91183  1.0000
  H   H1648     1.0  0.80099  0.98071  0.77613  1.0000
  H   H1649     1.0  0.99546  0.55256  0.88641  1.0000
  H   H1650     1.0  0.71474  0.98413  0.92355  1.0000
  H   H1651     1.0  0.69336  0.96123  0.77571  1.0000
  H   H1652     1.0  0.70159  0.55308  0.78010  1.0000
  H   H1653     1.0  0.67791  0.84635  0.96958  1.0000
  H   H1654     1.0  0.67873  0.96585  0.88780  1.0000
  H   H1655     1.0  0.76308  0.57027  0.83142  1.0000
  C   C1662     1.0  0.74588  0.71815  0.84332  1.0000
  S   S560      1.0  0.99426  0.71772  0.83557  1.0000
  S   S561      1.0  0.70721  0.86856  0.76316  1.0000
  H   H1656     1.0  0.79753  0.94360  0.76702  1.0000
  H   H1657     1.0  0.74260  0.63331  0.96485  1.0000
  H   H1658     1.0  0.70923  0.60903  0.86254  1.0000
  N   N140      1.0  0.72987  0.64207  0.98773  1.0000
  N   N141      1.0  0.71828  0.68467  0.84096  1.0000
  H   H1659     1.0  0.92104  0.74425  0.82530  1.0000
  C   C1663     1.0  0.74064  0.64912  0.96926  1.0000
  C   C1664     1.0  0.95391  0.75222  0.77860  1.0000
  H   H1660     1.0  0.71305  0.60536  0.75237  1.0000
  C   C1665     1.0  0.66767  0.89841  0.90940  1.0000
  S   S562      1.0  0.67749  0.93163  0.94617  1.0000
  H   H1661     1.0  0.97411  0.60705  0.85683  1.0000
  C   C1666     1.0  0.75132  0.97729  0.76412  1.0000
  S   S563      1.0  0.70324  0.73421  0.89764  1.0000
  H   H1662     1.0  0.78607  0.99764  0.88845  1.0000
  C   C1667     1.0  0.67359  0.63325  0.76349  1.0000
  C   C1668     1.0  0.69990  0.56261  0.85504  1.0000
  C   C1669     1.0  0.71208  0.59259  0.86969  1.0000
  H   H1663     1.0  0.76836  0.79141  0.98622  1.0000
  N   N142      1.0  0.76923  0.79369  0.93926  1.0000
  C   C1670     1.0  0.76578  0.77240  0.95077  1.0000
  C   C1671     1.0  0.77207  0.81414  0.94435  1.0000
  C   C1672     1.0  0.76562  0.77128  0.96778  1.0000
  C   C1673     1.0  0.77198  0.81365  0.96126  1.0000
  C   C1674     1.0  0.76874  0.79207  0.97302  1.0000
  C   C1675     1.0  0.76856  0.79449  0.92162  1.0000
  H   H1664     1.0  0.76305  0.75610  0.94687  1.0000
  H   H1665     1.0  0.77376  0.83091  0.93547  1.0000
  H   H1666     1.0  0.76292  0.75439  0.97690  1.0000
  C   C1676     1.0  0.76997  0.98625  0.77032  1.0000
  H   H1667     1.0  0.98924  0.63455  0.87273  1.0000
  H   H1668     1.0  0.77396  0.77959  0.91757  1.0000
  H   H1669     1.0  0.75076  0.79328  0.92049  1.0000
  H   H1670     1.0  0.78036  0.81125  0.91254  1.0000
  C   C1677     1.0  0.98147  0.60093  0.86708  1.0000
  N   N143      1.0  0.91884  0.63085  0.81275  1.0000
  C   C1678     1.0  0.89559  0.62812  0.81727  1.0000
  C   C1679     1.0  0.93054  0.63490  0.79600  1.0000
  C   C1680     1.0  0.88331  0.62880  0.80492  1.0000
  C   C1681     1.0  0.91882  0.63587  0.78331  1.0000
  C   C1682     1.0  0.89505  0.63284  0.78783  1.0000
  C   C1683     1.0  0.93145  0.63103  0.82581  1.0000
  H   H1671     1.0  0.88651  0.62610  0.83041  1.0000
  H   H1672     1.0  0.94911  0.63764  0.79237  1.0000
  H   H1673     1.0  0.86499  0.62738  0.80843  1.0000
  H   H1674     1.0  0.92815  0.63930  0.77002  1.0000
  H   H1675     1.0  0.88577  0.63428  0.77811  1.0000
  H   H1676     1.0  0.93499  0.64881  0.82822  1.0000
  H   H1677     1.0  0.92127  0.61757  0.83798  1.0000
  H   H1678     1.0  0.94815  0.62697  0.82174  1.0000
  C   C1684     1.0  0.96646  0.75838  0.81987  1.0000
  S   S564      1.0  0.73368  0.84848  0.96236  1.0000
  H   H1679     1.0  0.69424  0.99530  0.85102  1.0000
  C   C1685     1.0  0.70793  0.56420  0.78774  1.0000
  C   C1686     1.0  0.74532  0.56745  0.83847  1.0000
  S   S565      1.0  0.69457  0.68944  0.97265  1.0000
  S   S566      1.0  0.70966  0.89837  0.97480  1.0000
  H   H1680     1.0  0.98513  0.75985  0.81519  1.0000
  C   C1687     1.0  0.91796  0.74309  0.80023  1.0000
  C   C1688     1.0  0.70208  0.68669  0.85419  1.0000
  H   H1681     1.0  0.77865  0.71628  0.96130  1.0000
  C   C1689     1.0  0.75154  0.90960  0.80178  1.0000
  S   S567      1.0  0.76312  0.72404  0.89140  1.0000
  H   H1682     1.0  0.74271  0.94907  0.88777  1.0000
  H   H1683     1.0  0.74225  0.70897  0.95271  1.0000
  H   H1684     1.0  0.70480  0.77436  0.94821  1.0000
  H   H1685     1.0  0.75304  0.69799  0.82536  1.0000
  C   C1690     1.0  0.72326  0.83207  0.94900  1.0000
  H   H1686     1.0  0.97683  0.56563  0.86390  1.0000
  C   C1691     1.0  0.74165  0.70569  0.96609  1.0000
  H   H1687     1.0  0.98800  0.59032  0.80151  1.0000
  C   C1692     1.0  0.70944  0.79352  0.94390  1.0000
  C   C1693     1.0  0.73145  0.69984  0.76009  1.0000
  S   S568      1.0  0.72532  0.73885  0.92971  1.0000
  C   C1694     1.0  0.70066  0.58512  0.80928  1.0000
  C   C1695     1.0  0.70378  0.62725  0.77587  1.0000
  C   C1696     1.0  0.72094  0.84320  0.93315  1.0000
  H   H1688     1.0  0.72548  0.86233  0.92887  1.0000
  H   H1689     1.0  0.69700  0.90097  0.80119  1.0000
  H   H1690     1.0  0.68206  0.56115  0.86107  1.0000
  Fe  Fe287     1.0  0.69759  0.70551  0.94490  1.0000
  H   H1691     1.0  0.72635  0.59770  0.87557  1.0000
  C   C1697     1.0  0.70698  0.80465  0.92811  1.0000
  H   H1692     1.0  0.73151  0.54108  0.82654  1.0000
  S   S569      1.0  0.69581  0.78796  0.91519  1.0000
  C   C1698     1.0  0.66928  0.93923  0.79946  1.0000
  H   H1693     1.0  0.76328  0.72992  0.83931  1.0000
  H   H1694     1.0  0.68351  0.58760  0.76251  1.0000
  C   C1699     1.0  0.71052  0.95647  0.88610  1.0000
  H   H1695     1.0  0.70898  0.94848  0.87571  1.0000
  H   H1696     1.0  0.69072  0.53680  0.84123  1.0000
  C   C1700     1.0  0.78449  0.95287  0.76631  1.0000
  H   H1697     1.0  0.68370  0.93205  0.75953  1.0000
  H   H1698     1.0  0.77371  0.82987  0.96530  1.0000
  H   H1699     1.0  0.71780  0.61935  0.77663  1.0000
  H   H1700     1.0  0.79070  0.99629  0.85851  1.0000
  C   C1701     1.0  0.92983  0.74562  0.78340  1.0000
  C   C1702     1.0  0.72756  0.55104  0.83572  1.0000
  Fe  Fe288     1.0  0.69729  0.74988  0.91984  1.0000
  H   H1701     1.0  0.69387  0.65784  0.83552  1.0000
  H   H1702     1.0  0.92032  0.74203  0.77421  1.0000
  H   H1703     1.0  0.69442  0.70599  0.87280  1.0000
  H   H1704     1.0  0.78348  0.91741  0.80899  1.0000
  C   C1703     1.0  0.68075  0.94427  0.78216  1.0000
  N   N144      1.0  0.95398  0.75353  0.80728  1.0000
  H   H1705     1.0  0.67534  0.88710  0.90288  1.0000
  C   C1704     1.0  0.73993  0.58102  0.84970  1.0000
  C   C1705     1.0  0.78646  0.97387  0.77151  1.0000
  S   S570      1.0  0.98330  0.69881  0.80286  1.0000
  C   C1706     1.0  0.78930  0.98220  0.88475  1.0000
  C   C1707     1.0  0.70732  0.70466  0.86221  1.0000
  C   C1708     1.0  0.70467  0.54870  0.84394  1.0000
  H   H1706     1.0  0.72523  0.71319  0.76505  1.0000
  H   H1707     1.0  0.72044  0.67157  0.81901  1.0000
  H   H1708     1.0  0.67363  0.81703  0.95282  1.0000
  C   C1709     1.0  0.72940  0.72047  0.85672  1.0000
  H   H1709     1.0  0.71753  0.91143  0.78035  1.0000
  C   C1710     1.0  0.67054  0.62670  0.88959  1.0000
  H   H1710     1.0  0.69579  0.63885  0.98504  1.0000
  H   H1711     1.0  0.75381  0.59412  0.85149  1.0000
  C   C1711     1.0  0.79227  0.98160  0.86772  1.0000
  C   C1712     1.0  0.76411  0.94223  0.81346  1.0000
  H   H1712     1.0  0.83891  0.99149  0.88239  1.0000
  C   C1713     1.0  0.71486  0.90248  0.79402  1.0000
  H   H1713     1.0  0.74143  0.96468  0.81552  1.0000
  H   H1714     1.0  0.75788  0.66215  0.96599  1.0000
  C   C1714     1.0  0.76785  0.92246  0.80827  1.0000
  S   S571      1.0  0.66386  0.95026  0.85928  1.0000
  H   H1715     1.0  0.77675  0.95250  0.81834  1.0000
  C   C1715     1.0  0.74430  0.94901  0.81197  1.0000
  S   S572      1.0  0.99601  0.63998  0.79930  1.0000
  H   H1716     1.0  0.71036  0.64652  0.79426  1.0000
  H   H1717     1.0  0.73930  0.77332  0.74688  1.0000
  H   H1718     1.0  0.75489  0.89470  0.79725  1.0000
  H   H1719     1.0  0.96495  0.77530  0.82269  1.0000
  H   H1720     1.0  0.77047  0.66839  0.76319  1.0000
  C   C1716     1.0  0.77421  0.97759  0.98768  1.0000
  H   H1721     1.0  0.89923  0.73729  0.80421  1.0000
  C   C1717     1.0  0.71358  0.97664  0.91288  1.0000
  S   S573      1.0  0.78799  0.70866  0.99384  1.0000
  C   C1718     1.0  0.85319  0.99912  0.85508  1.0000
  H   H1722     1.0  0.69633  0.58278  0.88029  1.0000
  C   C1719     1.0  0.66905  0.64891  0.77320  1.0000
  H   H1723     1.0  0.88579  0.00426  0.82168  1.0000
  S   S574      1.0  0.66891  0.71765  0.93632  1.0000
  C   C1720     1.0  0.66637  0.84651  0.96136  1.0000
  C   C1721     1.0  0.69472  0.60563  0.75513  1.0000
  C   C1722     1.0  0.66705  0.92143  0.93020  1.0000
  C   C1723     1.0  0.78871  0.99853  0.98889  1.0000
  H   H1724     1.0  0.73850  0.98681  0.76317  1.0000
  S   S575      1.0  0.71029  0.81232  0.74758  1.0000
  C   C1724     1.0  0.70640  0.63674  0.99381  1.0000
  C   C1725     1.0  0.98301  0.57771  0.87104  1.0000
  H   H1725     1.0  0.68196  0.61616  0.89260  1.0000
  H   H1726     1.0  0.67251  0.98093  0.92757  1.0000
  C   C1726     1.0  0.74911  0.95603  0.75922  1.0000
  C   C1727     1.0  0.66413  0.83014  0.95166  1.0000
  H   H1727     1.0  0.66360  0.62994  0.75457  1.0000
  H   H1728     1.0  0.66425  0.82357  0.91733  1.0000
  C   C1728     1.0  0.84913  0.00494  0.87067  1.0000
  S   S576      1.0  0.77416  0.00505  0.82167  1.0000
