data_image0
_chemical_formula_structural       H2CHCNHCHCNHNCH5C2H2C2HCHC3HCHCSFeS2Fe2HSFeS2FeS2FeSFeS2FeSHCSFeSFeS3FeS2HSNFeS2FeSCH2CSFeHSFeH2CHCHS3CH2CHC5NHCFeCH2C5HCH2CHCH2C4H3C6H2CHFeC8H4C6H4C4H2FeC3S2H4C3H2CSH3CFeSHS2H3CH3CH2CHNHC2H4NC5H4CHCHCFeCHC5H2CH2C2SHCHCH2C2HNC2H4C5HCNHCHC2H2NH4SH2SHC2HC3H2CHCHCH3FeCSCHCHS2FeS2FeS2FeSFeS3NC2HCHC3HCHSCNH2CH2C2HCH7CHC7H3C7H4C6H3C2H2C2H2C2FeSH2C2NC6H9NH2CHC2HC3H2C2HCHC2HNC2HS3H5CHCHCHCH3CHSCH3CFeSCFeSHSHFeS2FeS2FeSFeS3CH2CHCHCH2CSHFeH2C5H2C6H2CH4CHNC2HC3HNH2CHC2H5C2H2CSCHCHNC2H2CHC2HC3N2C2HCH2CH2CH4CH2CH3CHC2FeS2FeCSFeCFeCS2H2CSHC4HCHSC5H4CHC2HNHCH2C5HFeCHFeCNHC4H2NC3HNCH3CSCHCH4SHC2H3CHFeS2FeS2FeSFeHS2NCHFeSCFeH2NFeSC2HCSC2SFeSCFeSHFeSFeS3C6H3CH3CNC4SH2C2H2CNC7H4C6H4C7H3C2S2H2C2HNFeH2C2HC3SCH2C4H2C2H2CHCSHFeSHSCH2SHC3H2CHS3H2FeH2C3H3CFeHCH2C2SH2SCH4FeH2CSC3SH3C3NHSHSHC2FeH2C2SC3H2CHNCSH2CHCNHC2SH3FeCS2HFeHSH2FeCH2CFeCHSCH3CHCHNC3H2FeH3CH4SH3NHCFeS2FeS2FeSFeS3HSHSC2FeSCFeSHFeSFeS3H2CHFeSCSHCHCHSC2H2CSHCSC7H3SC4HCHC3SNCH2CSC6H4C6H4C3H3CH3FeH2C2H2CHC3HCHC2HCHS2NC2HFeHSHCH3CH2CSHCSC3HC2HCHNC2H3SH4C3HFeHNC2H2CHC4NH2SC2SNHCH2CHSC4H4CH4CFe2SFeHSCHCH5C2FeH4CHCHCH2CFeHCFeCHC3HS4HCH3NFeC2H2CHCNCHC4H3CH3C4HC2H2NFeS2CHFeS3FeS2FeS2FeSFeS3CHFeS2FeSHCH4S2H2FeSCSFeS2FeCHFe2S3C6H4C6H2CHC6H4C6H7C6H4C4HCH4CH2CH2CH3SNFeCS2H2C3HC2NC6HC3HCHC3H3C2NCHCH3C2HFeH3CHCH2C2SCNSH2CH4S2NCH2FeHC2HCHCHNFeCH5C3H2CH4CHCH2C6SCFeCH4NCH2CH2C2H3CSFeSH2C2H2CH2C2SHC2NH3SHCHCSH2SHCNCFeS2FeSHFeCFeS3FeSCFeS2FeCFeHS2FeS2FeS2FeSFeS3H2CHNCHC3FeHCH4C2HCH2C6H4C6H5C3HCH2SHCH3C4HC4H3S2CHCSC2HCH3C5SCH4CHCHC2SH3SH3C4H4C2SHC4NCNCH2CHCH4SCNH2C2H2C4H5CHCHSCHSC2H3CH5C4HFeH5CHCNC2HS2HC2FeH2CHFeS2C2HSH2C2H4CFeS2FeS2FeSFeS3H3FeS2FeSHCSCFeS2FeS2FeHFeS3C6H4C6H5C4H4NSH2NH2C7H4C7H3CNH2CNCNC2H2C2HC2HC2H3NC2H6CFeH2C2H2C2HNSC3HC3HCHCHCHCHNCHC2H2CH3CFeHC2HC4HCHCH5CHCHC4H2CSC2HFeSFeSFeSFeS3FeSFeS2FeSFeCSHSNS2HCH2CNFeSHFeS2FeSFeNS2CHC6H5CH5CHCH3CHC6H7C6H2C4HNHC3SNC2NHC2HCHCFeH3C2SH2C4H2CNHCSC2HCSHC2HC2HC2HCH2C2H5CHC2HSHCHCHSH2CHNC6SH4CH2CHCH2CSC2HCSH2C2H3CFeCHSNC2H2SFeC2H4SCFeSHFeS2FeSFeS3FeCSHCH4SCFeCSHCNHFeS2NFeS2FeS2FeSFeHS2CSCHC3HNSH2CH5C4H4C7H4CHNC2HC2HC4HCH3FeC6H4C6H4CNCH2C2SH2C3HFeH3CHCHSH5CH4C3HC3NCHSHNCHCH3CSHCHCH2C2NCHC2HC2H2C2HCH6SC4HCHNHCHSH2FeSHFeS2FeHFeS3FeS2FeS2FeSFeS2FeS2FeSHFeSFeS3CHFeC4NH4C2HC3H3C2H2C2HC3H5NC2H3C2H3C6H4C6H4C8H2CHCHSHCHC2SC2NC6H8NC6H2CSH4CHNCHSH3SC3FeCHSH3C2H3CHCH2C3NHC3HSCH3CH2CHCH3CH3CSFeS2FeSFe2SC4FeS2NCFeSHSFeCHFeS2CFeS3FeS2FeS2FeSFeS3FeS2HFeH2C9H4C2HCH3C6H4C6H8C6H4C6H4CHCHCSH2CH2CH5NCSH2SCHCSNCH4NC5H5FeSCH2CH2C2SC4HCHCH2NC4H2C2H3C4HNC2HCHC4HC2FeHC5H2CH2NH5CHCH4SH2SHCHSCNH4CHSFeH3CH2CFeH2S2NHCSH3CSCH4SFeS2FeS2FeSFeS3FeS2FeS2FeSFeCS2Fe2CFeSHFeSC2S2HS2C3HC3HSCHSHCH2C2H2C6H4C6H4C6H4C6H6C2H3NHCFeSC3H2C2HS2C2HNC6HCHCH4S2H2CFeH2CH3SCNC6H3CHCHCNC6H8NCH4CH2SH2CFeH3SCSFeC4H2C2HC2HC2SFeSCHCHCHSNHC3HSHFeHC2HC3HSH6SC2FeSH6CSCH2CHNHC4HSFeS2FeS2FeCFeS3CSCSFeSFeH3FeS2FeSCFeSFeCS2FeSFeS2FeCFeCSHFeC6H4C6H2CH2SHCHFe2HCH3C6H4C6H4CHC7H3CHC2H4CH2SCHSHC2NCHCH8CH2FeSC2H2CHC3H2CNC3HCH3SCSC2FeNCHCSHCHSH3C2SNC2HCHC2H2NC6H5NCSCHSCNC2H2CHCH2CHSFeSH3FeHSCHCHCHSHNFeC3H3CHSC11SCSCHSCH5SC2H3SH2CH3NC2HNC2HSCH4CH4SCSH2SFeS2FeS2FeSFeS3HSCFeCSFeS2CFeHS2FeSCH2SHSHNHFeHSHC2H3CS3H2C5HCSCSHC6H4C2HCSCHCHC7H4C6H4C4HCHC8H4NHCHC4HFeCH4C3H3C3H3CH3Fe3H3SHCHC3FeH4FeHN2C8H2CHCHFeSH3C2HCH2CH2SNC6H2SH2SH5C3HCSCNHFeSCHCNC5HCHC2HC3H2C2H3NH2CH2CHCHCSHCSCH2CHCS2H4FeS2CHCSHCHSCH3FeHSCHSCFeH2FeCH2CHCNSC3H2NH2CHC5H3NCSH2SC2HCHFeH4NC2HCHC4SFeS2FeSCFeC2SHFeSHS2HCHFeSCSHCH4FeHC2H3C2HC2SHC6H4CHC3HNH3FeC2HSH2C3FeC2SC3HNHNC3H5C2HCHCHFe2S2FeS2FeSFeS3CHCFeS2HCFeSCSCSHCFeSCHNCFe2CHNHS2H3FeSC2SHCH4FeNH3CH2CHFeHSHCSC2HNH2C2H7C2HC4H2C6H4C3NHC6H4C6H5CH3C7SFeHC4HCH2C3SHCHCHCH2C2HC2HCHSCH3FeC2HSHSCH2CHCHCHSCHCH3C3HNH2FeS2Fe2CFeSFeHS2FeS2FeS2FeSFeS3CSCNSH2CH2SCHC4HCHFeSH2SCHNH4C9H3CH2SHCNH3C3SH2FeCH2C6H7SH3C6H4C6H4CHCSH4C2HCNSHCHNSH2NH2CHCHC3HCHC3H3CFeC3HCFeHC2H2CNC5SHCHCHCH2S2H2CSC3HSFeCHCHCH3C3H2C2NHCH3CH
_chemical_formula_sum              "H1728 C1728 N144 S576 Fe288"
_cell_length_a       68.0173
_cell_length_b       68.539
_cell_length_c       68.3258
_cell_angle_alpha    83.1659
_cell_angle_beta     83.1566
_cell_angle_gamma    83.1631

_space_group_name_H-M_alt    "P 1"
_space_group_IT_number       1

loop_
  _space_group_symop_operation_xyz
  'x, y, z'

loop_
  _atom_site_type_symbol
  _atom_site_label
  _atom_site_symmetry_multiplicity
  _atom_site_fract_x
  _atom_site_fract_y
  _atom_site_fract_z
  _atom_site_occupancy
  H   H1        1.0  0.44761  0.01101  0.08648  1.0000
  H   H2        1.0  0.41085  0.00856  0.05161  1.0000
  C   C1        1.0  0.42641  0.00518  0.04623  1.0000
  H   H3        1.0  0.42204  0.01663  0.08197  1.0000
  C   C2        1.0  0.43533  0.00566  0.07991  1.0000
  N   N1        1.0  0.44086  0.00316  0.05887  1.0000
  H   H4        1.0  0.04082  0.32508  0.00888  1.0000
  C   C3        1.0  0.43129  0.00187  0.02634  1.0000
  H   H5        1.0  0.41963  0.00273  0.01661  1.0000
  C   C4        1.0  0.46025  0.99739  0.05231  1.0000
  N   N2        1.0  0.18865  0.05441  0.48005  1.0000
  H   H6        1.0  0.48743  0.30345  0.46620  1.0000
  N   N3        1.0  0.47739  0.31612  0.49296  1.0000
  C   C5        1.0  0.49112  0.31505  0.47476  1.0000
  H   H7        1.0  0.01409  0.02826  0.32218  1.0000
  H   H8        1.0  0.20458  0.02711  0.47240  1.0000
  H   H9        1.0  0.02712  0.01555  0.29004  1.0000
  H   H10       1.0  0.19996  0.04557  0.45178  1.0000
  H   H11       1.0  0.15892  0.06130  0.47241  1.0000
  C   C6        1.0  0.02700  0.01730  0.32136  1.0000
  C   C7        1.0  0.19362  0.03906  0.46649  1.0000
  H   H12       1.0  0.15073  0.08821  0.49427  1.0000
  H   H13       1.0  0.02959  0.01459  0.35255  1.0000
  C   C8        1.0  0.03435  0.01023  0.30329  1.0000
  C   C9        1.0  0.17017  0.06485  0.48102  1.0000
  H   H14       1.0  0.18025  0.03184  0.46456  1.0000
  C   C10       1.0  0.20282  0.05884  0.49097  1.0000
  H   H15       1.0  0.01724  0.21751  0.49342  1.0000
  C   C11       1.0  0.03578  0.00940  0.33850  1.0000
  C   C12       1.0  0.17468  0.99903  0.49482  1.0000
  C   C13       1.0  0.16545  0.08007  0.49331  1.0000
  H   H16       1.0  0.21735  0.05033  0.49056  1.0000
  C   C14       1.0  0.45944  0.32745  0.49242  1.0000
  H   H17       1.0  0.49023  0.32946  0.46529  1.0000
  C   C15       1.0  0.12099  0.01044  0.60477  1.0000
  S   S1        1.0  0.03296  0.18448  0.58184  1.0000
  Fe  Fe1       1.0  0.05613  0.22792  0.59857  1.0000
  S   S2        1.0  0.05408  0.19914  0.61769  1.0000
  S   S3        1.0  0.07068  0.25368  0.60744  1.0000
  Fe  Fe2       1.0  0.06383  0.18501  0.58961  1.0000
  Fe  Fe3       1.0  0.02338  0.20079  0.60832  1.0000
  H   H18       1.0  0.17162  0.00918  0.60172  1.0000
  S   S4        1.0  0.02420  0.23078  0.59098  1.0000
  Fe  Fe4       1.0  0.17237  0.09668  0.55906  1.0000
  S   S5        1.0  0.20443  0.08376  0.55905  1.0000
  S   S6        1.0  0.02768  0.21853  0.53289  1.0000
  Fe  Fe5       1.0  0.15696  0.06240  0.58579  1.0000
  S   S7        1.0  0.18754  0.04699  0.58852  1.0000
  S   S8        1.0  0.06816  0.21358  0.57070  1.0000
  Fe  Fe6       1.0  0.19662  0.07695  0.59210  1.0000
  S   S9        1.0  0.21080  0.08130  0.61992  1.0000
  Fe  Fe7       1.0  0.19235  0.05496  0.55551  1.0000
  S   S10       1.0  0.16524  0.09143  0.59199  1.0000
  S   S11       1.0  0.16118  0.06892  0.55277  1.0000
  Fe  Fe8       1.0  0.24168  0.16523  0.71308  1.0000
  S   S12       1.0  0.25362  0.17860  0.68330  1.0000
  H   H19       1.0  0.03046  0.03265  0.63886  1.0000
  C   C16       1.0  0.03420  0.16315  0.53952  1.0000
  S   S13       1.0  0.29585  0.15318  0.69073  1.0000
  Fe  Fe9       1.0  0.28035  0.18251  0.69811  1.0000
  S   S14       1.0  0.29200  0.21248  0.69205  1.0000
  Fe  Fe10      1.0  0.26765  0.14802  0.67850  1.0000
  S   S15       1.0  0.26761  0.13901  0.64727  1.0000
  S   S16       1.0  0.39240  0.25765  0.74307  1.0000
  S   S17       1.0  0.25419  0.13414  0.70772  1.0000
  Fe  Fe11      1.0  0.39076  0.25182  0.71173  1.0000
  S   S18       1.0  0.42201  0.25942  0.70133  1.0000
  S   S19       1.0  0.38028  0.22213  0.70837  1.0000
  H   H20       1.0  0.22532  0.22301  0.68898  1.0000
  S   S20       1.0  0.41093  0.29901  0.72490  1.0000
  N   N4        1.0  0.13687  0.21324  0.73820  1.0000
  Fe  Fe12      1.0  0.40809  0.29059  0.69444  1.0000
  S   S21       1.0  0.41560  0.31502  0.66983  1.0000
  S   S22       1.0  0.30108  0.11976  0.73927  1.0000
  Fe  Fe13      1.0  0.38054  0.28877  0.73289  1.0000
  S   S23       1.0  0.37675  0.28233  0.70221  1.0000
  C   C17       1.0  0.32410  0.31518  0.71091  1.0000
  H   H21       1.0  0.04699  0.10652  0.57826  1.0000
  H   H22       1.0  0.01352  0.12505  0.58069  1.0000
  C   C18       1.0  0.19339  0.01801  0.52134  1.0000
  S   S24       1.0  0.20901  0.17416  0.72084  1.0000
  Fe  Fe14      1.0  0.12261  0.28188  0.70267  1.0000
  H   H23       1.0  0.06300  0.14985  0.54688  1.0000
  S   S25       1.0  0.10593  0.26006  0.68948  1.0000
  Fe  Fe15      1.0  0.15168  0.31333  0.70177  1.0000
  H   H24       1.0  0.47344  0.28238  0.66036  1.0000
  H   H25       1.0  0.16677  0.17020  0.74373  1.0000
  C   C19       1.0  0.46487  0.30581  0.67909  1.0000
  H   H26       1.0  0.18367  0.00821  0.56812  1.0000
  C   C20       1.0  0.05314  0.05102  0.62544  1.0000
  H   H27       1.0  0.48435  0.30486  0.63115  1.0000
  S   S26       1.0  0.15618  0.28079  0.69819  1.0000
  S   S27       1.0  0.11819  0.31502  0.70341  1.0000
  S   S28       1.0  0.13028  0.04854  0.60139  1.0000
  C   C21       1.0  0.47852  0.31095  0.64487  1.0000
  H   H28       1.0  0.06814  0.08344  0.60900  1.0000
  H   H29       1.0  0.10089  0.04529  0.63508  1.0000
  C   C22       1.0  0.48845  0.28999  0.74816  1.0000
  H   H30       1.0  0.28310  0.20117  0.65119  1.0000
  C   C23       1.0  0.17351  0.02387  0.51817  1.0000
  C   C24       1.0  0.47611  0.32396  0.73926  1.0000
  C   C25       1.0  0.28948  0.19055  0.64040  1.0000
  C   C26       1.0  0.07996  0.07086  0.61081  1.0000
  C   C27       1.0  0.14224  0.00254  0.56845  1.0000
  N   N5        1.0  0.23051  0.24554  0.70625  1.0000
  H   H31       1.0  0.45966  0.29916  0.73782  1.0000
  C   C28       1.0  0.04703  0.14927  0.54993  1.0000
  Fe  Fe16      1.0  0.42260  0.26722  0.73243  1.0000
  C   C29       1.0  0.02467  0.27617  0.56461  1.0000
  H   H32       1.0  0.11298  0.01327  0.61892  1.0000
  H   H33       1.0  0.33557  0.30276  0.71160  1.0000
  C   C30       1.0  0.11165  0.16033  0.56154  1.0000
  C   C31       1.0  0.42629  0.31452  0.64482  1.0000
  C   C32       1.0  0.43126  0.29697  0.63592  1.0000
  C   C33       1.0  0.43966  0.29754  0.61594  1.0000
  C   C34       1.0  0.44330  0.31560  0.60472  1.0000
  H   H34       1.0  0.16538  0.03602  0.52544  1.0000
  C   C35       1.0  0.17981  0.08468  0.50450  1.0000
  H   H35       1.0  0.42849  0.28300  0.64435  1.0000
  H   H36       1.0  0.44329  0.28391  0.60914  1.0000
  C   C36       1.0  0.47336  0.30394  0.74139  1.0000
  H   H37       1.0  0.01073  0.28019  0.57339  1.0000
  C   C37       1.0  0.07870  0.02670  0.64877  1.0000
  H   H38       1.0  0.35936  0.18805  0.70959  1.0000
  H   H39       1.0  0.08893  0.01699  0.65751  1.0000
  C   C38       1.0  0.00371  0.16226  0.62710  1.0000
  C   C39       1.0  0.23185  0.26518  0.73284  1.0000
  C   C40       1.0  0.18895  0.21110  0.71564  1.0000
  C   C41       1.0  0.01942  0.13557  0.56895  1.0000
  H   H40       1.0  0.00762  0.26173  0.52474  1.0000
  H   H41       1.0  0.17032  0.23890  0.71401  1.0000
  H   H42       1.0  0.14343  0.18860  0.72124  1.0000
  C   C42       1.0  0.31618  0.21503  0.69781  1.0000
  C   C43       1.0  0.32252  0.23396  0.69635  1.0000
  C   C44       1.0  0.34199  0.23640  0.69996  1.0000
  C   C45       1.0  0.35539  0.21987  0.70467  1.0000
  C   C46       1.0  0.34903  0.20092  0.70610  1.0000
  C   C47       1.0  0.32943  0.19850  0.70295  1.0000
  H   H43       1.0  0.31238  0.24681  0.69232  1.0000
  H   H44       1.0  0.34675  0.25104  0.69873  1.0000
  C   C48       1.0  0.05309  0.12104  0.57497  1.0000
  H   H45       1.0  0.32472  0.18384  0.70406  1.0000
  Fe  Fe17      1.0  0.03600  0.21395  0.56484  1.0000
  C   C49       1.0  0.21705  0.25969  0.69803  1.0000
  C   C50       1.0  0.12426  0.22467  0.72400  1.0000
  C   C51       1.0  0.22618  0.09813  0.62690  1.0000
  C   C52       1.0  0.22664  0.09969  0.64721  1.0000
  C   C53       1.0  0.23881  0.11245  0.65365  1.0000
  C   C54       1.0  0.25102  0.12361  0.63985  1.0000
  C   C55       1.0  0.25051  0.12214  0.61951  1.0000
  C   C56       1.0  0.23809  0.10959  0.61305  1.0000
  H   H46       1.0  0.21761  0.09084  0.65809  1.0000
  H   H47       1.0  0.23907  0.11329  0.66932  1.0000
  H   H48       1.0  0.25996  0.13059  0.60868  1.0000
  H   H49       1.0  0.23816  0.10840  0.59740  1.0000
  C   C57       1.0  0.08059  0.25513  0.63030  1.0000
  C   C58       1.0  0.07938  0.24014  0.64608  1.0000
  C   C59       1.0  0.08721  0.24198  0.66395  1.0000
  C   C60       1.0  0.09645  0.25876  0.66638  1.0000
  C   C61       1.0  0.09775  0.27373  0.65058  1.0000
  C   C62       1.0  0.08985  0.27191  0.63270  1.0000
  H   H50       1.0  0.07227  0.22718  0.64459  1.0000
  H   H51       1.0  0.08601  0.23032  0.67603  1.0000
  H   H52       1.0  0.10477  0.28673  0.65213  1.0000
  H   H53       1.0  0.09091  0.28363  0.62066  1.0000
  C   C63       1.0  0.13769  0.13381  0.55388  1.0000
  C   C64       1.0  0.10204  0.14723  0.57578  1.0000
  C   C65       1.0  0.10972  0.12735  0.57830  1.0000
  C   C66       1.0  0.12737  0.12064  0.56730  1.0000
  H   H54       1.0  0.10226  0.11712  0.58917  1.0000
  H   H55       1.0  0.13313  0.10526  0.56947  1.0000
  Fe  Fe18      1.0  0.15443  0.27706  0.73133  1.0000
  C   C67       1.0  0.04238  0.26270  0.53634  1.0000
  C   C68       1.0  0.12950  0.15356  0.55051  1.0000
  C   C69       1.0  0.23741  0.22775  0.69634  1.0000
  S   S29       1.0  0.12132  0.27615  0.73617  1.0000
  S   S30       1.0  0.16161  0.12588  0.54298  1.0000
  H   H56       1.0  0.13326  0.23461  0.71344  1.0000
  H   H57       1.0  0.05345  0.01068  0.65963  1.0000
  H   H58       1.0  0.07456  0.27354  0.56697  1.0000
  H   H59       1.0  0.31722  0.20733  0.65490  1.0000
  C   C70       1.0  0.18156  0.22967  0.72177  1.0000
  C   C71       1.0  0.02894  0.13430  0.62388  1.0000
  C   C72       1.0  0.02370  0.15439  0.62584  1.0000
  H   H60       1.0  0.04447  0.12847  0.62283  1.0000
  H   H61       1.0  0.03524  0.16381  0.62618  1.0000
  C   C73       1.0  0.00462  0.21579  0.52400  1.0000
  S   S31       1.0  0.26725  0.17154  0.72856  1.0000
  H   H62       1.0  0.09274  0.07659  0.61619  1.0000
  H   H63       1.0  0.04009  0.17432  0.52848  1.0000
  H   H64       1.0  0.11746  0.21502  0.71532  1.0000
  C   C74       1.0  0.00618  0.14933  0.55897  1.0000
  Fe  Fe19      1.0  0.11939  0.30907  0.73649  1.0000
  S   S32       1.0  0.15240  0.30937  0.73458  1.0000
  H   H65       1.0  0.21897  0.99736  0.51409  1.0000
  S   S33       1.0  0.20648  0.03105  0.53585  1.0000
  S   S34       1.0  0.45357  0.31581  0.57949  1.0000
  H   H66       1.0  0.44013  0.31733  0.54033  1.0000
  H   H67       1.0  0.19968  0.28799  0.70078  1.0000
  H   H68       1.0  0.21104  0.25762  0.68451  1.0000
  C   C75       1.0  0.21787  0.27951  0.72477  1.0000
  H   H69       1.0  0.04256  0.28385  0.58617  1.0000
  H   H70       1.0  0.45960  0.29609  0.69184  1.0000
  H   H71       1.0  0.30254  0.29914  0.73005  1.0000
  C   C76       1.0  0.00384  0.21595  0.50347  1.0000
  H   H72       1.0  0.10572  0.17571  0.55951  1.0000
  H   H73       1.0  0.20116  0.12511  0.59851  1.0000
  C   C77       1.0  0.12559  0.15282  0.61786  1.0000
  H   H74       1.0  0.18328  0.20602  0.70321  1.0000
  N   N6        1.0  0.14659  0.14582  0.61266  1.0000
  H   H75       1.0  0.13737  0.16379  0.54001  1.0000
  C   C78       1.0  0.15692  0.13406  0.62646  1.0000
  C   C79       1.0  0.18595  0.13118  0.60254  1.0000
  H   H76       1.0  0.12030  0.16546  0.60730  1.0000
  H   H77       1.0  0.04311  0.06013  0.61605  1.0000
  H   H78       1.0  0.20971  0.07700  0.51247  1.0000
  H   H79       1.0  0.23747  0.26703  0.74663  1.0000
  N   N7        1.0  0.30902  0.18115  0.64535  1.0000
  C   C80       1.0  0.31482  0.16190  0.64206  1.0000
  C   C81       1.0  0.32169  0.19198  0.65253  1.0000
  C   C82       1.0  0.33340  0.15274  0.64684  1.0000
  C   C83       1.0  0.34043  0.18334  0.65733  1.0000
  C   C84       1.0  0.34622  0.16354  0.65462  1.0000
  H   H80       1.0  0.30493  0.15337  0.63607  1.0000
  H   H81       1.0  0.33767  0.13731  0.64471  1.0000
  H   H82       1.0  0.35027  0.19193  0.66336  1.0000
  H   H83       1.0  0.36060  0.15659  0.65858  1.0000
  C   C85       1.0  0.49391  0.32976  0.74373  1.0000
  H   H84       1.0  0.04250  0.25614  0.52263  1.0000
  C   C86       1.0  0.17679  0.12673  0.62167  1.0000
  H   H85       1.0  0.06799  0.11874  0.56644  1.0000
  C   C87       1.0  0.20301  0.19874  0.72607  1.0000
  Fe  Fe20      1.0  0.28118  0.14167  0.72057  1.0000
  C   C88       1.0  0.21055  0.27689  0.70715  1.0000
  H   H86       1.0  0.14729  0.03306  0.56487  1.0000
  C   C89       1.0  0.08536  0.04269  0.63604  1.0000
  C   C90       1.0  0.17521  0.14290  0.58848  1.0000
  C   C91       1.0  0.05881  0.02312  0.64993  1.0000
  C   C92       1.0  0.18792  0.23570  0.73860  1.0000
  C   C93       1.0  0.14044  0.02157  0.57441  1.0000
  H   H87       1.0  0.11178  0.23390  0.73162  1.0000
  H   H88       1.0  0.12324  0.15795  0.63286  1.0000
  C   C94       1.0  0.04257  0.27834  0.57190  1.0000
  H   H89       1.0  0.18196  0.14595  0.57336  1.0000
  H   H90       1.0  0.08515  0.06539  0.59619  1.0000
  C   C95       1.0  0.16431  0.01457  0.50487  1.0000
  C   C96       1.0  0.04592  0.03539  0.63824  1.0000
  S   S35       1.0  0.08138  0.15493  0.59200  1.0000
  H   H91       1.0  0.00562  0.31111  0.74232  1.0000
  C   C97       1.0  0.30538  0.31302  0.72140  1.0000
  H   H92       1.0  0.15050  0.99955  0.55439  1.0000
  C   C98       1.0  0.01425  0.12194  0.62297  1.0000
  H   H93       1.0  0.19027  0.32077  0.71795  1.0000
  H   H94       1.0  0.14916  0.01976  0.50201  1.0000
  C   C99       1.0  0.46876  0.30525  0.52737  1.0000
  C   C100      1.0  0.45047  0.31679  0.52694  1.0000
  H   H95       1.0  0.07449  0.25955  0.53499  1.0000
  N   N8        1.0  0.07256  0.05470  0.62470  1.0000
  C   C101      1.0  0.06055  0.26460  0.54323  1.0000
  C   C102      1.0  0.15902  0.18438  0.74718  1.0000
  H   H96       1.0  0.27611  0.32784  0.72933  1.0000
  H   H97       1.0  0.25031  0.23059  0.68520  1.0000
  H   H98       1.0  0.14725  0.15927  0.58283  1.0000
  H   H99       1.0  0.17631  0.09641  0.51416  1.0000
  C   C103      1.0  0.20358  0.00206  0.51178  1.0000
  C   C104      1.0  0.47249  0.29812  0.66140  1.0000
  C   C105      1.0  0.06060  0.27247  0.56113  1.0000
  C   C106      1.0  0.15546  0.15021  0.59386  1.0000
  C   C107      1.0  0.00576  0.26531  0.54036  1.0000
  H   H100      1.0  0.14978  0.13017  0.64123  1.0000
  C   C108      1.0  0.23824  0.24829  0.72319  1.0000
  N   N9        1.0  0.02474  0.26845  0.54703  1.0000
  H   H101      1.0  0.24912  0.23718  0.72952  1.0000
  C   C109      1.0  0.01365  0.16306  0.54403  1.0000
  H   H102      1.0  0.35969  0.32538  0.69727  1.0000
  C   C110      1.0  0.21023  0.20528  0.74218  1.0000
  C   C111      1.0  0.13019  0.02547  0.59276  1.0000
  H   H103      1.0  0.18495  0.11724  0.63255  1.0000
  H   H104      1.0  0.11615  0.14073  0.61747  1.0000
  N   N10       1.0  0.03954  0.13544  0.56411  1.0000
  H   H105      1.0  0.05504  0.12647  0.58918  1.0000
  H   H106      1.0  0.29086  0.19846  0.62523  1.0000
  H   H107      1.0  0.27868  0.17942  0.64104  1.0000
  H   H108      1.0  0.33559  0.18798  0.74737  1.0000
  S   S36       1.0  0.02153  0.09754  0.61748  1.0000
  H   H109      1.0  0.24214  0.21513  0.70717  1.0000
  H   H110      1.0  0.47263  0.29685  0.54115  1.0000
  S   S37       1.0  0.45073  0.25455  0.74671  1.0000
  H   H111      1.0  0.21248  0.29247  0.73233  1.0000
  C   C112      1.0  0.48212  0.30502  0.51011  1.0000
  C   C113      1.0  0.29068  0.32907  0.72111  1.0000
  H   H112      1.0  0.37131  0.19333  0.74558  1.0000
  C   C114      1.0  0.34731  0.32879  0.74552  1.0000
  C   C115      1.0  0.14587  0.19492  0.73445  1.0000
  C   C116      1.0  0.19859  0.07394  0.50342  1.0000
  H   H113      1.0  0.49635  0.29607  0.51059  1.0000
  H   H114      1.0  0.03271  0.99956  0.62103  1.0000
  C   C117      1.0  0.46369  0.32612  0.68014  1.0000
  H   H115      1.0  0.00356  0.17388  0.53624  1.0000
  C   C118      1.0  0.44576  0.32801  0.50938  1.0000
  H   H116      1.0  0.34805  0.33038  0.67453  1.0000
  C   C119      1.0  0.35962  0.04181  0.91983  1.0000
  H   H117      1.0  0.48806  0.22710  0.80242  1.0000
  H   H118      1.0  0.44678  0.08681  0.82847  1.0000
  H   H119      1.0  0.29637  0.07608  0.76439  1.0000
  Fe  Fe21      1.0  0.48516  0.18708  0.87048  1.0000
  C   C120      1.0  0.37908  0.00519  0.81016  1.0000
  S   S38       1.0  0.46076  0.16867  0.88520  1.0000
  C   C121      1.0  0.36115  0.01717  0.94897  1.0000
  H   H120      1.0  0.05160  0.31747  0.86072  1.0000
  C   C122      1.0  0.34314  0.01181  0.92201  1.0000
  H   H121      1.0  0.39179  0.17612  0.77143  1.0000
  S   S39       1.0  0.48607  0.19813  0.83837  1.0000
  S   S40       1.0  0.47743  0.25364  0.83324  1.0000
  Fe  Fe22      1.0  0.37309  0.06710  0.83374  1.0000
  S   S41       1.0  0.34447  0.07073  0.85356  1.0000
  S   S42       1.0  0.38046  0.04443  0.81220  1.0000
  Fe  Fe23      1.0  0.38836  0.10414  0.84488  1.0000
  S   S43       1.0  0.36071  0.11063  0.86548  1.0000
  S   S44       1.0  0.41263  0.12387  0.83330  1.0000
  Fe  Fe24      1.0  0.36417  0.07769  0.87557  1.0000
  S   S45       1.0  0.36506  0.06548  0.90812  1.0000
  Fe  Fe25      1.0  0.34402  0.10277  0.84130  1.0000
  S   S46       1.0  0.31734  0.12118  0.82874  1.0000
  S   S47       1.0  0.39301  0.07197  0.85613  1.0000
  S   S48       1.0  0.37144  0.09843  0.82031  1.0000
  N   N11       1.0  0.49138  0.10739  0.87467  1.0000
  C   C123      1.0  0.36469  0.18361  0.75772  1.0000
  C   C124      1.0  0.34937  0.00548  0.94087  1.0000
  H   H122      1.0  0.34430  0.99790  0.85914  1.0000
  C   C125      1.0  0.30965  0.06827  0.81078  1.0000
  H   H123      1.0  0.33621  0.05060  0.81968  1.0000
  C   C126      1.0  0.27974  0.08757  0.79920  1.0000
  C   C127      1.0  0.30491  0.07029  0.77666  1.0000
  C   C128      1.0  0.45050  0.02168  0.81070  1.0000
  H   H124      1.0  0.28052  0.09717  0.81107  1.0000
  C   C129      1.0  0.04264  0.32499  0.84938  1.0000
  H   H125      1.0  0.34329  0.03455  0.89707  1.0000
  S   S49       1.0  0.35392  0.30322  0.75086  1.0000
  C   C130      1.0  0.46529  0.05216  0.80940  1.0000
  N   N12       1.0  0.44678  0.06234  0.81215  1.0000
  H   H126      1.0  0.13441  0.23648  0.75686  1.0000
  H   H127      1.0  0.06882  0.32776  0.98268  1.0000
  C   C131      1.0  0.47166  0.07380  0.88520  1.0000
  H   H128      1.0  0.42997  0.09087  0.80955  1.0000
  H   H129      1.0  0.27612  0.09758  0.78577  1.0000
  C   C132      1.0  0.10658  0.31007  0.81409  1.0000
  C   C133      1.0  0.10752  0.31101  0.79328  1.0000
  H   H130      1.0  0.46400  0.06065  0.88924  1.0000
  C   C134      1.0  0.43014  0.05252  0.81474  1.0000
  H   H131      1.0  0.11186  0.29646  0.82250  1.0000
  H   H132      1.0  0.11347  0.29819  0.78580  1.0000
  H   H133      1.0  0.41855  0.02430  0.81587  1.0000
  H   H134      1.0  0.33400  0.00290  0.91559  1.0000
  H   H135      1.0  0.37462  0.04457  0.94526  1.0000
  H   H136      1.0  0.32079  0.16548  0.77507  1.0000
  H   H137      1.0  0.34811  0.04190  0.78586  1.0000
  C   C135      1.0  0.46260  0.09025  0.87432  1.0000
  H   H138      1.0  0.35643  0.03048  0.84804  1.0000
  C   C136      1.0  0.09873  0.32651  0.82412  1.0000
  C   C137      1.0  0.46984  0.25381  0.80923  1.0000
  C   C138      1.0  0.45618  0.26924  0.80196  1.0000
  C   C139      1.0  0.44960  0.26944  0.78309  1.0000
  C   C140      1.0  0.45692  0.25433  0.77122  1.0000
  C   C141      1.0  0.47094  0.23922  0.77831  1.0000
  C   C142      1.0  0.47722  0.23883  0.79726  1.0000
  H   H139      1.0  0.45059  0.28104  0.81101  1.0000
  H   H140      1.0  0.43915  0.28144  0.77762  1.0000
  H   H141      1.0  0.47703  0.22770  0.76907  1.0000
  C   C143      1.0  0.33632  0.16806  0.77427  1.0000
  C   C144      1.0  0.44664  0.15695  0.87078  1.0000
  C   C145      1.0  0.44984  0.15914  0.85010  1.0000
  C   C146      1.0  0.43890  0.14929  0.83890  1.0000
  C   C147      1.0  0.42485  0.13685  0.84825  1.0000
  C   C148      1.0  0.42146  0.13468  0.86896  1.0000
  C   C149      1.0  0.43230  0.14477  0.88017  1.0000
  H   H142      1.0  0.46106  0.16804  0.84268  1.0000
  H   H143      1.0  0.44169  0.15095  0.82290  1.0000
  H   H144      1.0  0.41061  0.12516  0.87634  1.0000
  H   H145      1.0  0.42970  0.14296  0.89620  1.0000
  C   C150      1.0  0.30665  0.12271  0.76332  1.0000
  C   C151      1.0  0.29395  0.13443  0.77596  1.0000
  C   C152      1.0  0.29759  0.13414  0.79591  1.0000
  C   C153      1.0  0.31393  0.12222  0.80331  1.0000
  C   C154      1.0  0.32701  0.11117  0.79041  1.0000
  C   C155      1.0  0.32339  0.11146  0.77054  1.0000
  H   H146      1.0  0.28094  0.14310  0.77060  1.0000
  H   H147      1.0  0.28743  0.14284  0.80576  1.0000
  H   H148      1.0  0.33958  0.10186  0.79582  1.0000
  C   C156      1.0  0.02741  0.31595  0.84333  1.0000
  C   C157      1.0  0.36602  0.03533  0.93860  1.0000
  H   H149      1.0  0.47851  0.05986  0.80770  1.0000
  H   H150      1.0  0.26756  0.07802  0.80381  1.0000
  C   C158      1.0  0.49079  0.07421  0.89052  1.0000
  C   C159      1.0  0.50101  0.14880  0.81857  1.0000
  H   H151      1.0  0.46587  0.11944  0.86020  1.0000
  H   H152      1.0  0.30482  0.07234  0.82561  1.0000
  C   C160      1.0  0.36083  0.01839  0.83915  1.0000
  C   C161      1.0  0.38014  0.15147  0.80280  1.0000
  Fe  Fe26      1.0  0.49469  0.22597  0.84716  1.0000
  S   S50       1.0  0.49139  0.09130  0.82371  1.0000
  H   H153      1.0  0.49821  0.06135  0.89861  1.0000
  H   H154      1.0  0.02408  0.30147  0.85024  1.0000
  C   C162      1.0  0.46744  0.03169  0.80861  1.0000
  C   C163      1.0  0.44480  0.08373  0.81327  1.0000
  N   N13       1.0  0.43128  0.22609  0.83909  1.0000
  C   C164      1.0  0.42095  0.24428  0.83535  1.0000
  C   C165      1.0  0.43570  0.21373  0.82448  1.0000
  C   C166      1.0  0.41408  0.25020  0.81682  1.0000
  C   C167      1.0  0.42937  0.21931  0.80568  1.0000
  C   C168      1.0  0.41836  0.23761  0.80190  1.0000
  C   C169      1.0  0.43845  0.22036  0.85858  1.0000
  H   H155      1.0  0.41824  0.25443  0.84665  1.0000
  H   H156      1.0  0.44438  0.19955  0.82723  1.0000
  H   H157      1.0  0.40612  0.26474  0.81380  1.0000
  H   H158      1.0  0.43340  0.20975  0.79394  1.0000
  H   H159      1.0  0.41380  0.24234  0.78721  1.0000
  H   H160      1.0  0.42687  0.22467  0.87064  1.0000
  H   H161      1.0  0.44228  0.20410  0.86137  1.0000
  H   H162      1.0  0.45193  0.22776  0.85955  1.0000
  H   H163      1.0  0.34158  0.14908  0.80091  1.0000
  N   N14       1.0  0.29868  0.07530  0.79539  1.0000
  H   H164      1.0  0.45620  0.09089  0.80271  1.0000
  H   H165      1.0  0.47571  0.13194  0.82332  1.0000
  C   C170      1.0  0.33413  0.05116  0.78848  1.0000
  H   H166      1.0  0.41549  0.06050  0.81726  1.0000
  C   C171      1.0  0.34816  0.15878  0.78882  1.0000
  C   C172      1.0  0.37615  0.17394  0.77244  1.0000
  H   H167      1.0  0.44784  0.09010  0.86985  1.0000
  C   C173      1.0  0.49170  0.13137  0.82044  1.0000
  C   C174      1.0  0.32748  0.05609  0.80754  1.0000
  C   C175      1.0  0.43175  0.03207  0.81397  1.0000
  H   H168      1.0  0.48214  0.02363  0.80648  1.0000
  H   H169      1.0  0.39135  0.16075  0.80623  1.0000
  C   C176      1.0  0.34842  0.02975  0.91143  1.0000
  C   C177      1.0  0.37306  0.02112  0.82129  1.0000
  H   H170      1.0  0.36601  0.01257  0.96348  1.0000
  C   C178      1.0  0.47281  0.10695  0.86905  1.0000
  H   H171      1.0  0.33333  0.10240  0.76085  1.0000
  C   C179      1.0  0.32280  0.05830  0.77289  1.0000
  C   C180      1.0  0.01639  0.32571  0.82843  1.0000
  H   H172      1.0  0.38808  0.13766  0.79743  1.0000
  N   N15       1.0  0.36777  0.16191  0.78785  1.0000
  C   C181      1.0  0.34464  0.18062  0.75870  1.0000
  C   C182      1.0  0.16306  0.19278  0.76368  1.0000
  H   H173      1.0  0.37107  0.14739  0.81705  1.0000
  S   S51       1.0  0.49176  0.21576  0.88011  1.0000
  S   S52       1.0  0.09693  0.32417  0.85042  1.0000
  S   S53       1.0  0.09980  0.32982  0.75626  1.0000
  H   H174      1.0  0.17384  0.18510  0.77319  1.0000
  H   H175      1.0  0.32793  0.05473  0.75796  1.0000
  H   H176      1.0  0.38859  0.00721  0.79636  1.0000
  H   H177      1.0  0.49210  0.16279  0.81973  1.0000
  H   H178      1.0  0.31783  0.32774  0.76090  1.0000
  C   C183      1.0  0.35403  0.99992  0.84549  1.0000
  H   H179      1.0  0.15750  0.21856  0.77967  1.0000
  C   C184      1.0  0.10019  0.32833  0.78231  1.0000
  H   H180      1.0  0.45178  0.00589  0.80984  1.0000
  C   C185      1.0  0.14082  0.22162  0.75432  1.0000
  H   H181      1.0  0.22091  0.19569  0.75041  1.0000
  C   C186      1.0  0.15388  0.21150  0.76734  1.0000
  H   H182      1.0  0.20746  0.22827  0.76160  1.0000
  H   H183      1.0  0.00428  0.31891  0.82392  1.0000
  H   H184      1.0  0.49172  0.13799  0.86371  1.0000
  C   C187      1.0  0.50055  0.09118  0.88498  1.0000
  H   H185      1.0  0.48638  0.27443  0.74947  1.0000
  S   S54       1.0  0.17688  0.25740  0.74844  1.0000
  C   C188      1.0  0.20254  0.22366  0.74855  1.0000
  H   H186      1.0  0.02617  0.58868  0.11087  1.0000
  H   H187      1.0  0.05555  0.65183  0.00303  1.0000
  H   H188      1.0  0.00768  0.49839  0.20689  1.0000
  C   C189      1.0  0.01695  0.58565  0.09992  1.0000
  Fe  Fe27      1.0  0.23634  0.65518  0.01335  1.0000
  S   S55       1.0  0.20613  0.65622  0.03075  1.0000
  C   C190      1.0  0.21096  0.55938  0.02614  1.0000
  Fe  Fe28      1.0  0.21103  0.62300  0.03333  1.0000
  S   S56       1.0  0.20031  0.60401  0.06111  1.0000
  H   H189      1.0  0.25455  0.57444  0.00349  1.0000
  S   S57       1.0  0.24241  0.62191  0.01811  1.0000
  H   H190      1.0  0.10624  0.58611  0.03855  1.0000
  Fe  Fe29      1.0  0.05512  0.63132  0.14138  1.0000
  S   S58       1.0  0.06473  0.61114  0.16762  1.0000
  S   S59       1.0  0.02549  0.64934  0.14238  1.0000
  Fe  Fe30      1.0  0.09333  0.62088  0.11522  1.0000
  S   S60       1.0  0.10583  0.59995  0.13948  1.0000
  S   S61       1.0  0.10863  0.62944  0.08484  1.0000
  Fe  Fe31      1.0  0.07496  0.58943  0.14509  1.0000
  S   S62       1.0  0.06959  0.55690  0.14527  1.0000
  Fe  Fe32      1.0  0.09401  0.62408  0.15909  1.0000
  S   S63       1.0  0.11208  0.63613  0.18028  1.0000
  S   S64       1.0  0.06353  0.60923  0.11940  1.0000
  S   S65       1.0  0.08337  0.64540  0.13427  1.0000
  C   C191      1.0  0.09075  0.63332  0.03378  1.0000
  H   H191      1.0  0.11395  0.60519  0.05060  1.0000
  H   H192      1.0  0.04680  0.65074  0.17870  1.0000
  C   C192      1.0  0.14179  0.64097  0.13186  1.0000
  H   H193      1.0  0.02131  0.62674  0.07409  1.0000
  C   C193      1.0  0.01352  0.61239  0.14700  1.0000
  H   H194      1.0  0.19326  0.62295  0.10614  1.0000
  C   C194      1.0  0.01084  0.52764  0.15532  1.0000
  H   H195      1.0  0.12738  0.64603  0.13918  1.0000
  H   H196      1.0  0.13754  0.64617  0.05642  1.0000
  C   C195      1.0  0.03585  0.47510  0.17037  1.0000
  S   S66       1.0  0.46102  0.65023  0.24768  1.0000
  H   H197      1.0  0.02452  0.50945  0.13279  1.0000
  Fe  Fe33      1.0  0.19506  0.65270  0.00189  1.0000
  H   H198      1.0  0.06614  0.52699  0.18230  1.0000
  H   H199      1.0  0.07695  0.51351  0.16234  1.0000
  C   C196      1.0  0.07432  0.60750  0.02487  1.0000
  C   C197      1.0  0.03074  0.55324  0.16211  1.0000
  C   C198      1.0  0.15353  0.62541  0.14141  1.0000
  C   C199      1.0  0.06166  0.66243  0.20035  1.0000
  C   C200      1.0  0.01287  0.56620  0.09943  1.0000
  H   H200      1.0  0.03716  0.51703  0.20303  1.0000
  H   H201      1.0  0.22795  0.58280  0.03027  1.0000
  C   C201      1.0  0.17489  0.61078  0.06847  1.0000
  C   C202      1.0  0.16424  0.59951  0.08376  1.0000
  C   C203      1.0  0.14391  0.60525  0.08937  1.0000
  C   C204      1.0  0.13418  0.62201  0.07937  1.0000
  C   C205      1.0  0.14490  0.63317  0.06420  1.0000
  C   C206      1.0  0.16521  0.62778  0.05911  1.0000
  H   H202      1.0  0.17167  0.58636  0.09121  1.0000
  H   H203      1.0  0.13572  0.59646  0.10105  1.0000
  C   C207      1.0  0.07019  0.51174  0.17802  1.0000
  H   H204      1.0  0.17344  0.63685  0.04788  1.0000
  H   H205      1.0  0.15812  0.63742  0.02107  1.0000
  H   H206      1.0  0.00976  0.39738  0.03854  1.0000
  H   H207      1.0  0.07275  0.59189  0.02531  1.0000
  C   C208      1.0  0.04609  0.54721  0.14792  1.0000
  H   H208      1.0  0.05558  0.52623  0.12663  1.0000
  N   N16       1.0  0.02287  0.38641  0.01168  1.0000
  C   C209      1.0  0.22555  0.53860  0.00087  1.0000
  C   C210      1.0  0.02605  0.52176  0.14085  1.0000
  H   H209      1.0  0.11994  0.66223  0.10549  1.0000
  C   C211      1.0  0.22716  0.57044  0.02194  1.0000
  C   C212      1.0  0.01277  0.62110  0.08807  1.0000
  C   C213      1.0  0.16681  0.64367  0.10460  1.0000
  H   H210      1.0  0.02747  0.60738  0.15292  1.0000
  N   N17       1.0  0.08843  0.61366  0.03475  1.0000
  H   H211      1.0  0.03247  0.56515  0.17063  1.0000
  H   H212      1.0  0.18129  0.60660  0.13925  1.0000
  C   C214      1.0  0.11278  0.66183  0.18193  1.0000
  H   H213      1.0  0.19752  0.53467  0.01864  1.0000
  C   C215      1.0  0.06229  0.62114  0.01340  1.0000
  C   C216      1.0  0.06468  0.64118  0.01213  1.0000
  H   H214      1.0  0.06760  0.64790  0.20654  1.0000
  H   H215      1.0  0.49865  0.63519  0.21374  1.0000
  H   H216      1.0  0.00505  0.58301  0.14806  1.0000
  H   H217      1.0  0.05141  0.61618  0.00522  1.0000
  H   H218      1.0  0.13836  0.60908  0.02204  1.0000
  C   C217      1.0  0.04366  0.53133  0.13738  1.0000
  C   C218      1.0  0.07901  0.64736  0.02235  1.0000
  H   H219      1.0  0.19913  0.56334  0.03760  1.0000
  H   H220      1.0  0.08145  0.50389  0.18748  1.0000
  C   C219      1.0  0.17215  0.61884  0.13214  1.0000
  S   S67       1.0  0.19784  0.61957  0.00553  1.0000
  C   C220      1.0  0.10066  0.59902  0.04684  1.0000
  H   H221      1.0  0.14811  0.61850  0.15588  1.0000
  C   C221      1.0  0.14989  0.63617  0.00894  1.0000
  H   H222      1.0  0.13320  0.65678  0.20431  1.0000
  N   N18       1.0  0.00897  0.60064  0.08718  1.0000
  C   C222      1.0  0.17892  0.62809  0.11367  1.0000
  C   C223      1.0  0.00885  0.38499  0.02971  1.0000
  H   H223      1.0  0.09184  0.59418  0.06094  1.0000
  H   H224      1.0  0.06467  0.48256  0.15734  1.0000
  C   C224      1.0  0.13865  0.62022  0.00945  1.0000
  H   H225      1.0  0.10189  0.63821  0.04169  1.0000
  C   C225      1.0  0.01331  0.54350  0.16581  1.0000
  C   C226      1.0  0.50128  0.64860  0.20328  1.0000
  H   H226      1.0  0.00667  0.47163  0.18572  1.0000
  C   C227      1.0  0.01982  0.47946  0.18445  1.0000
  C   C228      1.0  0.02040  0.49449  0.19639  1.0000
  C   C229      1.0  0.00835  0.63247  0.14153  1.0000
  N   N19       1.0  0.05264  0.50083  0.18001  1.0000
  N   N20       1.0  0.14833  0.64962  0.11354  1.0000
  C   C230      1.0  0.03704  0.50507  0.19399  1.0000
  C   C231      1.0  0.24221  0.56549  0.00695  1.0000
  H   H227      1.0  0.01866  0.55453  0.11004  1.0000
  C   C232      1.0  0.21010  0.54334  0.01556  1.0000
  H   H228      1.0  0.01196  0.37068  0.03892  1.0000
  H   H229      1.0  0.03532  0.46366  0.16079  1.0000
  C   C233      1.0  0.05232  0.48591  0.16843  1.0000
  H   H230      1.0  0.08111  0.66290  0.02134  1.0000
  H   H231      1.0  0.17214  0.65061  0.09014  1.0000
  C   C234      1.0  0.04183  0.37715  0.01187  1.0000
  H   H232      1.0  0.02133  0.62250  0.10064  1.0000
  H   H233      1.0  0.48775  0.65932  0.20539  1.0000
  H   H234      1.0  0.04627  0.36800  0.02500  1.0000
  H   H235      1.0  0.00171  0.54819  0.17707  1.0000
  C   C235      1.0  0.36519  0.53626  0.45059  1.0000
  H   H236      1.0  0.40175  0.63656  0.42817  1.0000
  H   H237      1.0  0.36286  0.52624  0.44016  1.0000
  C   C236      1.0  0.35892  0.65869  0.48206  1.0000
  H   H238      1.0  0.47820  0.61255  0.33186  1.0000
  H   H239      1.0  0.48507  0.58817  0.39910  1.0000
  H   H240      1.0  0.47708  0.64889  0.33249  1.0000
  C   C237      1.0  0.31755  0.54436  0.47714  1.0000
  H   H241      1.0  0.31833  0.60067  0.46151  1.0000
  C   C238      1.0  0.41585  0.63550  0.46623  1.0000
  C   C239      1.0  0.49524  0.63989  0.48229  1.0000
  Fe  Fe34      1.0  0.32838  0.61230  0.41407  1.0000
  S   S68       1.0  0.30984  0.64189  0.41579  1.0000
  S   S69       1.0  0.32029  0.58127  0.42556  1.0000
  Fe  Fe35      1.0  0.36539  0.63126  0.39385  1.0000
  C   C240      1.0  0.48117  0.61849  0.34511  1.0000
  S   S70       1.0  0.39802  0.62494  0.38351  1.0000
  Fe  Fe36      1.0  0.33741  0.65156  0.42509  1.0000
  C   C241      1.0  0.49575  0.59946  0.39553  1.0000
  Fe  Fe37      1.0  0.32421  0.65015  0.38484  1.0000
  C   C242      1.0  0.48519  0.64628  0.36227  1.0000
  S   S71       1.0  0.35489  0.62164  0.42534  1.0000
  S   S72       1.0  0.34028  0.61964  0.38202  1.0000
  H   H242      1.0  0.49392  0.63908  0.39162  1.0000
  H   H243      1.0  0.37602  0.65101  0.35537  1.0000
  C   C243      1.0  0.48037  0.63010  0.49431  1.0000
  S   S73       1.0  0.47773  0.63609  0.29074  1.0000
  H   H244      1.0  0.38479  0.62813  0.44919  1.0000
  C   C244      1.0  0.34143  0.63422  0.47072  1.0000
  C   C245      1.0  0.31771  0.57745  0.48589  1.0000
  C   C246      1.0  0.36472  0.62419  0.49509  1.0000
  C   C247      1.0  0.48630  0.60579  0.36173  1.0000
  H   H245      1.0  0.36793  0.58519  0.45243  1.0000
  C   C248      1.0  0.39583  0.65365  0.32829  1.0000
  H   H246      1.0  0.36411  0.56168  0.42852  1.0000
  S   S74       1.0  0.41941  0.65451  0.29299  1.0000
  C   C249      1.0  0.41464  0.64789  0.31869  1.0000
  C   C250      1.0  0.42868  0.63591  0.32938  1.0000
  C   C251      1.0  0.42366  0.62923  0.34943  1.0000
  C   C252      1.0  0.40456  0.63441  0.35879  1.0000
  C   C253      1.0  0.39072  0.64681  0.34823  1.0000
  H   H247      1.0  0.34766  0.60437  0.48381  1.0000
  H   H248      1.0  0.44314  0.63127  0.32203  1.0000
  H   H249      1.0  0.43440  0.61964  0.35757  1.0000
  H   H250      1.0  0.34983  0.50727  0.48566  1.0000
  C   C254      1.0  0.48056  0.63886  0.34545  1.0000
  H   H251      1.0  0.33097  0.63052  0.46138  1.0000
  C   C255      1.0  0.33893  0.65291  0.31290  1.0000
  C   C256      1.0  0.36602  0.55629  0.44386  1.0000
  H   H252      1.0  0.31695  0.52872  0.48143  1.0000
  N   N21       1.0  0.49039  0.61320  0.37836  1.0000
  H   H253      1.0  0.37633  0.50293  0.48729  1.0000
  C   C257      1.0  0.37323  0.62812  0.30364  1.0000
  H   H254      1.0  0.36655  0.61234  0.33260  1.0000
  H   H255      1.0  0.31750  0.54210  0.44583  1.0000
  C   C258      1.0  0.31772  0.55200  0.45699  1.0000
  C   C259      1.0  0.36472  0.50879  0.47731  1.0000
  C   C260      1.0  0.31845  0.57233  0.45116  1.0000
  C   C261      1.0  0.31829  0.58500  0.46576  1.0000
  C   C262      1.0  0.36805  0.56954  0.45730  1.0000
  H   H256      1.0  0.37043  0.57290  0.48785  1.0000
  Fe  Fe38      1.0  0.48913  0.63397  0.25877  1.0000
  C   C263      1.0  0.37956  0.64770  0.27131  1.0000
  H   H257      1.0  0.49635  0.65528  0.48364  1.0000
  Fe  Fe39      1.0  0.45137  0.65497  0.27962  1.0000
  C   C264      1.0  0.49011  0.63316  0.37871  1.0000
  N   N22       1.0  0.40378  0.64856  0.45506  1.0000
  H   H258      1.0  0.48739  0.58996  0.36113  1.0000
  C   C265      1.0  0.34450  0.63692  0.32643  1.0000
  C   C266      1.0  0.36933  0.56266  0.47719  1.0000
  C   C267      1.0  0.35073  0.65617  0.29484  1.0000
  C   C268      1.0  0.35081  0.61949  0.48344  1.0000
  H   H259      1.0  0.49565  0.60713  0.40901  1.0000
  H   H260      1.0  0.38701  0.61875  0.30048  1.0000
  N   N23       1.0  0.36759  0.64381  0.29040  1.0000
  C   C269      1.0  0.49309  0.60005  0.47918  1.0000
  C   C270      1.0  0.36843  0.54257  0.48341  1.0000
  C   C271      1.0  0.36177  0.62444  0.32185  1.0000
  H   H261      1.0  0.43712  0.63185  0.48776  1.0000
  N   N24       1.0  0.36651  0.52963  0.47015  1.0000
  C   C272      1.0  0.39207  0.64104  0.44154  1.0000
  H   H262      1.0  0.33553  0.63444  0.34055  1.0000
  H   H263      1.0  0.39321  0.63706  0.26980  1.0000
  H   H264      1.0  0.37072  0.64673  0.25889  1.0000
  C   C273      1.0  0.34612  0.65362  0.46939  1.0000
  S   S75       1.0  0.48550  0.36584  0.48827  1.0000
  C   C274      1.0  0.31765  0.55709  0.49169  1.0000
  H   H265      1.0  0.36658  0.49930  0.46497  1.0000
  C   C275      1.0  0.42760  0.64226  0.47891  1.0000
  H   H266      1.0  0.41632  0.61972  0.46550  1.0000
  H   H267      1.0  0.37999  0.65230  0.43660  1.0000
  H   H268      1.0  0.45589  0.33660  0.47895  1.0000
  H   H269      1.0  0.49242  0.58448  0.47835  1.0000
  S   S76       1.0  0.35037  0.66199  0.39462  1.0000
  H   H270      1.0  0.38503  0.66319  0.32020  1.0000
  C   C276      1.0  0.47917  0.61019  0.49242  1.0000
  C   C277      1.0  0.36830  0.64391  0.49488  1.0000
  H   H271      1.0  0.38469  0.66267  0.27007  1.0000
  H   H272      1.0  0.31736  0.58748  0.49705  1.0000
  H   H273      1.0  0.48541  0.66207  0.36236  1.0000
  C   C278      1.0  0.42689  0.66251  0.48017  1.0000
  H   H274      1.0  0.32565  0.66282  0.31658  1.0000
  Fe  Fe40      1.0  0.32550  0.51765  0.53255  1.0000
  S   S77       1.0  0.35825  0.50786  0.53055  1.0000
  S   S78       1.0  0.31756  0.54857  0.51729  1.0000
  Fe  Fe41      1.0  0.31565  0.48336  0.56471  1.0000
  S   S79       1.0  0.34770  0.47165  0.56477  1.0000
  S   S80       1.0  0.29507  0.46346  0.58447  1.0000
  Fe  Fe42      1.0  0.35338  0.50310  0.56338  1.0000
  S   S81       1.0  0.37693  0.51031  0.58018  1.0000
  Fe  Fe43      1.0  0.34983  0.47719  0.53188  1.0000
  H   H275      1.0  0.48268  0.62294  0.55201  1.0000
  S   S82       1.0  0.32124  0.51487  0.56613  1.0000
  S   S83       1.0  0.31707  0.48690  0.53113  1.0000
  N   N25       1.0  0.36614  0.55583  0.58162  1.0000
  C   C279      1.0  0.21255  0.34026  0.71940  1.0000
  H   H276      1.0  0.31702  0.36288  0.69246  1.0000
  Fe  Fe44      1.0  0.45928  0.38848  0.55480  1.0000
  S   S84       1.0  0.43953  0.41542  0.56434  1.0000
  C   C280      1.0  0.32600  0.64373  0.53576  1.0000
  Fe  Fe45      1.0  0.39874  0.61438  0.52821  1.0000
  H   H277      1.0  0.36058  0.54190  0.61115  1.0000
  H   H278      1.0  0.38802  0.56647  0.53505  1.0000
  N   N26       1.0  0.45712  0.44357  0.64031  1.0000
  Fe  Fe46      1.0  0.26893  0.43335  0.70162  1.0000
  S   S85       1.0  0.27446  0.45963  0.67851  1.0000
  C   C281      1.0  0.22109  0.35740  0.71097  1.0000
  C   C282      1.0  0.36648  0.42026  0.57207  1.0000
  H   H279      1.0  0.33508  0.55413  0.58972  1.0000
  C   C283      1.0  0.37124  0.55129  0.60205  1.0000
  S   S86       1.0  0.27217  0.54727  0.72111  1.0000
  C   C284      1.0  0.47995  0.42379  0.70290  1.0000
  C   C285      1.0  0.22434  0.65838  0.69145  1.0000
  S   S87       1.0  0.21943  0.57284  0.73014  1.0000
  Fe  Fe47      1.0  0.37778  0.48786  0.71212  1.0000
  S   S88       1.0  0.37128  0.49627  0.68079  1.0000
  C   C286      1.0  0.48673  0.40362  0.70189  1.0000
  Fe  Fe48      1.0  0.42097  0.47083  0.69912  1.0000
  S   S89       1.0  0.41739  0.47945  0.66692  1.0000
  H   H280      1.0  0.29177  0.65784  0.57247  1.0000
  Fe  Fe49      1.0  0.40106  0.50790  0.67595  1.0000
  S   S90       1.0  0.40061  0.53977  0.66255  1.0000
  Fe  Fe50      1.0  0.38812  0.46706  0.67508  1.0000
  S   S91       1.0  0.37674  0.44825  0.65531  1.0000
  S   S92       1.0  0.40716  0.50069  0.70777  1.0000
  S   S93       1.0  0.39222  0.45717  0.70683  1.0000
  C   C287      1.0  0.41026  0.54655  0.63789  1.0000
  C   C288      1.0  0.42088  0.53273  0.62603  1.0000
  C   C289      1.0  0.42877  0.53892  0.60658  1.0000
  C   C290      1.0  0.42580  0.55884  0.59884  1.0000
  C   C291      1.0  0.41482  0.57255  0.61056  1.0000
  C   C292      1.0  0.40724  0.56644  0.63008  1.0000
  H   H281      1.0  0.42317  0.51736  0.63188  1.0000
  H   H282      1.0  0.43710  0.52820  0.59750  1.0000
  H   H283      1.0  0.39909  0.57720  0.63922  1.0000
  C   C293      1.0  0.38086  0.55914  0.56651  1.0000
  H   H284      1.0  0.38607  0.54251  0.60237  1.0000
  H   H285      1.0  0.22365  0.60873  0.69250  1.0000
  H   H286      1.0  0.39395  0.41798  0.58549  1.0000
  C   C294      1.0  0.29468  0.53292  0.72643  1.0000
  N   N27       1.0  0.33129  0.44608  0.69220  1.0000
  C   C295      1.0  0.47306  0.38983  0.70223  1.0000
  C   C296      1.0  0.16811  0.37683  0.72578  1.0000
  C   C297      1.0  0.32532  0.51393  0.71387  1.0000
  C   C298      1.0  0.30698  0.52495  0.71071  1.0000
  S   S94       1.0  0.32735  0.39378  0.72680  1.0000
  H   H287      1.0  0.33456  0.50803  0.70156  1.0000
  H   H288      1.0  0.30245  0.52756  0.69588  1.0000
  C   C299      1.0  0.20286  0.50357  0.74788  1.0000
  C   C300      1.0  0.34748  0.42765  0.60904  1.0000
  H   H289      1.0  0.19296  0.65361  0.63975  1.0000
  H   H290      1.0  0.49061  0.43427  0.70309  1.0000
  C   C301      1.0  0.47002  0.33850  0.66338  1.0000
  N   N28       1.0  0.35611  0.54985  0.72296  1.0000
  C   C302      1.0  0.48336  0.34417  0.62852  1.0000
  C   C303      1.0  0.37688  0.49283  0.60083  1.0000
  C   C304      1.0  0.35930  0.48464  0.60847  1.0000
  C   C305      1.0  0.35933  0.47024  0.62479  1.0000
  C   C306      1.0  0.37699  0.46401  0.63332  1.0000
  C   C307      1.0  0.39457  0.47208  0.62551  1.0000
  C   C308      1.0  0.39450  0.48662  0.60935  1.0000
  H   H291      1.0  0.34554  0.48978  0.60213  1.0000
  H   H292      1.0  0.34557  0.46455  0.63115  1.0000
  H   H293      1.0  0.40826  0.46724  0.63193  1.0000
  H   H294      1.0  0.40809  0.49294  0.60337  1.0000
  C   C309      1.0  0.29106  0.46189  0.61081  1.0000
  C   C310      1.0  0.28247  0.44552  0.62134  1.0000
  C   C311      1.0  0.27801  0.44420  0.64214  1.0000
  C   C312      1.0  0.28161  0.45954  0.65259  1.0000
  C   C313      1.0  0.29057  0.47572  0.64211  1.0000
  C   C314      1.0  0.29555  0.47677  0.62139  1.0000
  H   H295      1.0  0.27882  0.43398  0.61331  1.0000
  H   H296      1.0  0.27102  0.43172  0.64995  1.0000
  H   H297      1.0  0.29343  0.48769  0.65001  1.0000
  H   H298      1.0  0.30214  0.48946  0.61351  1.0000
  C   C315      1.0  0.38997  0.44447  0.52716  1.0000
  C   C316      1.0  0.40074  0.42661  0.52229  1.0000
  C   C317      1.0  0.41640  0.41779  0.53320  1.0000
  C   C318      1.0  0.42136  0.42681  0.54903  1.0000
  C   C319      1.0  0.41094  0.44492  0.55351  1.0000
  C   C320      1.0  0.39540  0.45375  0.54257  1.0000
  C   C321      1.0  0.33771  0.55995  0.72680  1.0000
  H   H299      1.0  0.42442  0.40389  0.52955  1.0000
  H   H300      1.0  0.41476  0.45212  0.56559  1.0000
  H   H301      1.0  0.38766  0.46779  0.54613  1.0000
  C   C322      1.0  0.14279  0.37756  0.70281  1.0000
  C   C323      1.0  0.22528  0.62389  0.68660  1.0000
  S   S95       1.0  0.43011  0.60022  0.52731  1.0000
  S   S96       1.0  0.26851  0.39406  0.74779  1.0000
  H   H302      1.0  0.26300  0.50941  0.70463  1.0000
  H   H303      1.0  0.33909  0.43289  0.66513  1.0000
  C   C324      1.0  0.18956  0.34432  0.69425  1.0000
  C   C325      1.0  0.33492  0.36894  0.73481  1.0000
  H   H304      1.0  0.42245  0.42414  0.60786  1.0000
  N   N29       1.0  0.32819  0.33294  0.70075  1.0000
  Fe  Fe51      1.0  0.46489  0.34363  0.56244  1.0000
  H   H305      1.0  0.49880  0.34751  0.62931  1.0000
  H   H306      1.0  0.41444  0.42184  0.64467  1.0000
  C   C326      1.0  0.32347  0.46430  0.72055  1.0000
  C   C327      1.0  0.30063  0.52928  0.74556  1.0000
  H   H307      1.0  0.43698  0.43427  0.66509  1.0000
  C   C328      1.0  0.19829  0.36133  0.68557  1.0000
  C   C329      1.0  0.32605  0.56704  0.71139  1.0000
  C   C330      1.0  0.19676  0.33387  0.71121  1.0000
  S   S97       1.0  0.47273  0.36753  0.57873  1.0000
  C   C331      1.0  0.23179  0.64833  0.65820  1.0000
  H   H308      1.0  0.35388  0.62580  0.53964  1.0000
  H   H309      1.0  0.46686  0.59210  0.56372  1.0000
  C   C332      1.0  0.32673  0.44224  0.67268  1.0000
  C   C333      1.0  0.44589  0.41672  0.70363  1.0000
  C   C334      1.0  0.33646  0.63011  0.56756  1.0000
  C   C335      1.0  0.35440  0.36093  0.72898  1.0000
  H   H310      1.0  0.43012  0.42159  0.70452  1.0000
  H   H311      1.0  0.39630  0.55778  0.56951  1.0000
  C   C336      1.0  0.36054  0.34085  0.73415  1.0000
  C   C337      1.0  0.37782  0.42053  0.58781  1.0000
  H   H312      1.0  0.37682  0.42519  0.61861  1.0000
  H   H313      1.0  0.20123  0.53395  0.73536  1.0000
  C   C338      1.0  0.45952  0.43045  0.70380  1.0000
  H   H314      1.0  0.34318  0.42939  0.54368  1.0000
  C   C339      1.0  0.44053  0.43522  0.64911  1.0000
  S   S98       1.0  0.46446  0.64287  0.51232  1.0000
  H   H315      1.0  0.15708  0.55781  0.74499  1.0000
  Fe  Fe52      1.0  0.22170  0.60263  0.74001  1.0000
  S   S99       1.0  0.24112  0.36425  0.72197  1.0000
  H   H316      1.0  0.44092  0.34711  0.60527  1.0000
  S   S100      1.0  0.39208  0.60748  0.56093  1.0000
  C   C340      1.0  0.33786  0.45198  0.73034  1.0000
  H   H317      1.0  0.47963  0.56116  0.54906  1.0000
  H   H318      1.0  0.32079  0.43476  0.55940  1.0000
  S   S101      1.0  0.35441  0.49627  0.73741  1.0000
  H   H319      1.0  0.35975  0.42663  0.72857  1.0000
  C   C341      1.0  0.34670  0.55713  0.57781  1.0000
  C   C342      1.0  0.43846  0.33309  0.61371  1.0000
  C   C343      1.0  0.37628  0.56387  0.54696  1.0000
  H   H320      1.0  0.21810  0.33197  0.73246  1.0000
  H   H321      1.0  0.13258  0.39140  0.70364  1.0000
  C   C344      1.0  0.45263  0.39651  0.70303  1.0000
  H   H322      1.0  0.45265  0.43905  0.59222  1.0000
  S   S102      1.0  0.48838  0.39017  0.53558  1.0000
  S   S103      1.0  0.38225  0.65550  0.58455  1.0000
  S   S104      1.0  0.43592  0.56624  0.57449  1.0000
  H   H323      1.0  0.32440  0.45633  0.66298  1.0000
  H   H324      1.0  0.22051  0.38111  0.68728  1.0000
  Fe  Fe53      1.0  0.42434  0.59623  0.56047  1.0000
  H   H325      1.0  0.37405  0.41739  0.55765  1.0000
  H   H326      1.0  0.33040  0.40925  0.55700  1.0000
  C   C345      1.0  0.36823  0.42447  0.60636  1.0000
  C   C346      1.0  0.34159  0.56179  0.55842  1.0000
  C   C347      1.0  0.35649  0.56525  0.54294  1.0000
  H   H327      1.0  0.32623  0.56239  0.55531  1.0000
  H   H328      1.0  0.35267  0.56887  0.52785  1.0000
  H   H329      1.0  0.31302  0.43462  0.67437  1.0000
  C   C348      1.0  0.42779  0.42809  0.63763  1.0000
  Fe  Fe54      1.0  0.25430  0.39359  0.71973  1.0000
  H   H330      1.0  0.28354  0.35950  0.71034  1.0000
  C   C349      1.0  0.35235  0.55386  0.68814  1.0000
  H   H331      1.0  0.24277  0.46969  0.74003  1.0000
  H   H332      1.0  0.47332  0.35819  0.62760  1.0000
  C   C350      1.0  0.22229  0.63876  0.69932  1.0000
  C   C351      1.0  0.48683  0.57451  0.54424  1.0000
  S   S105      1.0  0.36888  0.45426  0.51500  1.0000
  H   H333      1.0  0.32917  0.64585  0.51974  1.0000
  H   H334      1.0  0.32438  0.56894  0.67992  1.0000
  S   S106      1.0  0.44954  0.36459  0.53954  1.0000
  C   C352      1.0  0.34006  0.63236  0.54692  1.0000
  H   H335      1.0  0.15517  0.37997  0.69089  1.0000
  H   H336      1.0  0.46463  0.33501  0.73390  1.0000
  H   H337      1.0  0.37874  0.64779  0.50398  1.0000
  H   H338      1.0  0.37159  0.56513  0.60888  1.0000
  Fe  Fe55      1.0  0.29453  0.40427  0.72754  1.0000
  H   H339      1.0  0.39671  0.41940  0.51032  1.0000
  H   H340      1.0  0.23525  0.53045  0.71756  1.0000
  C   C353      1.0  0.21387  0.36801  0.69404  1.0000
  S   S107      1.0  0.45175  0.45599  0.70515  1.0000
  C   C354      1.0  0.34535  0.43384  0.70174  1.0000
  C   C355      1.0  0.29486  0.34696  0.71042  1.0000
  C   C356      1.0  0.32178  0.35695  0.74642  1.0000
  S   S108      1.0  0.40657  0.64504  0.52946  1.0000
  H   H341      1.0  0.36883  0.53751  0.49900  1.0000
  H   H342      1.0  0.46918  0.35426  0.66440  1.0000
  H   H343      1.0  0.23170  0.61718  0.65627  1.0000
  C   C357      1.0  0.34783  0.33483  0.68965  1.0000
  C   C358      1.0  0.36359  0.54701  0.70390  1.0000
  C   C359      1.0  0.31379  0.34870  0.70027  1.0000
  N   N30       1.0  0.34618  0.42404  0.57468  1.0000
  H   H344      1.0  0.44192  0.38596  0.70344  1.0000
  S   S109      1.0  0.37799  0.60497  0.50890  1.0000
  H   H345      1.0  0.48296  0.33741  0.61458  1.0000
  S   S110      1.0  0.28149  0.40176  0.69949  1.0000
  H   H346      1.0  0.35370  0.42159  0.69473  1.0000
  C   C360      1.0  0.34885  0.43661  0.72093  1.0000
  C   C361      1.0  0.33457  0.42426  0.55788  1.0000
  Fe  Fe56      1.0  0.43789  0.63022  0.53108  1.0000
  H   H347      1.0  0.30908  0.47074  0.69386  1.0000
  H   H348      1.0  0.47754  0.43802  0.66199  1.0000
  C   C362      1.0  0.22946  0.51768  0.72627  1.0000
  C   C363      1.0  0.22929  0.66314  0.67098  1.0000
  S   S111      1.0  0.48068  0.36409  0.70259  1.0000
  C   C364      1.0  0.31879  0.63898  0.57676  1.0000
  C   C365      1.0  0.33343  0.56387  0.69195  1.0000
  C   C366      1.0  0.33143  0.51033  0.73292  1.0000
  H   H349      1.0  0.41250  0.58794  0.60475  1.0000
  H   H350      1.0  0.18584  0.65837  0.67317  1.0000
  C   C367      1.0  0.21028  0.51979  0.73632  1.0000
  H   H351      1.0  0.36469  0.37020  0.72015  1.0000
  N   N31       1.0  0.24078  0.49976  0.72745  1.0000
  C   C368      1.0  0.46158  0.44490  0.62015  1.0000
  S   S112      1.0  0.24036  0.42517  0.71963  1.0000
  H   H352      1.0  0.46800  0.60235  0.50164  1.0000
  H   H353      1.0  0.31614  0.63790  0.59281  1.0000
  C   C369      1.0  0.47955  0.59195  0.55247  1.0000
  H   H354      1.0  0.32052  0.42976  0.59519  1.0000
  C   C370      1.0  0.33662  0.42718  0.59300  1.0000
  N   N32       1.0  0.30874  0.65245  0.54492  1.0000
  H   H355      1.0  0.31460  0.47601  0.72795  1.0000
  C   C371      1.0  0.43217  0.42949  0.61705  1.0000
  C   C372      1.0  0.22980  0.62871  0.66608  1.0000
  S   S113      1.0  0.21478  0.63357  0.72488  1.0000
  H   H356      1.0  0.33983  0.43082  0.62335  1.0000
  H   H357      1.0  0.34763  0.62207  0.57642  1.0000
  H   H358      1.0  0.17684  0.38564  0.71450  1.0000
  Fe  Fe57      1.0  0.40175  0.63738  0.56241  1.0000
  C   C373      1.0  0.26106  0.49780  0.71735  1.0000
  S   S114      1.0  0.43407  0.62555  0.56456  1.0000
  S   S115      1.0  0.49405  0.34122  0.54283  1.0000
  H   H359      1.0  0.19292  0.36942  0.67233  1.0000
  Fe  Fe58      1.0  0.24948  0.56457  0.74159  1.0000
  H   H360      1.0  0.35832  0.55126  0.67310  1.0000
  S   S116      1.0  0.28348  0.43638  0.72886  1.0000
  H   H361      1.0  0.42620  0.34619  0.64033  1.0000
  H   H362      1.0  0.35176  0.35024  0.68857  1.0000
  Fe  Fe59      1.0  0.50066  0.36663  0.55780  1.0000
  C   C374      1.0  0.30503  0.65020  0.56515  1.0000
  H   H363      1.0  0.13477  0.36586  0.69830  1.0000
  H   H364      1.0  0.26454  0.48329  0.71130  1.0000
  C   C375      1.0  0.32043  0.46121  0.70132  1.0000
  Fe  Fe60      1.0  0.47987  0.36471  0.52179  1.0000
  C   C376      1.0  0.44915  0.43794  0.60823  1.0000
  H   H365      1.0  0.37827  0.53923  0.70080  1.0000
  S   S117      1.0  0.23609  0.65406  0.63226  1.0000
  C   C377      1.0  0.23367  0.48381  0.73885  1.0000
  H   H366      1.0  0.27189  0.49919  0.72792  1.0000
  H   H367      1.0  0.47478  0.45139  0.61313  1.0000
  H   H368      1.0  0.46160  0.46096  0.66284  1.0000
  C   C378      1.0  0.48859  0.60916  0.54611  1.0000
  H   H369      1.0  0.34046  0.45435  0.74521  1.0000
  C   C379      1.0  0.47028  0.45068  0.65278  1.0000
  H   H370      1.0  0.48210  0.45881  0.64393  1.0000
  N   N33       1.0  0.15037  0.37126  0.72203  1.0000
  C   C380      1.0  0.36809  0.54268  0.73933  1.0000
  C   C381      1.0  0.17556  0.37080  0.74401  1.0000
  C   C382      1.0  0.13921  0.36050  0.73642  1.0000
  H   H371      1.0  0.31114  0.57438  0.71457  1.0000
  H   H372      1.0  0.12500  0.35634  0.73355  1.0000
  Fe  Fe61      1.0  0.25609  0.42602  0.74678  1.0000
  H   H373      1.0  0.12294  0.55012  0.74112  1.0000
  H   H374      1.0  0.49636  0.34528  0.74157  1.0000
  H   H375      1.0  0.43179  0.33745  0.50903  1.0000
  C   C383      1.0  0.43000  0.33253  0.63360  1.0000
  H   H376      1.0  0.23617  0.66038  0.74467  1.0000
  H   H377      1.0  0.37547  0.33471  0.72929  1.0000
  H   H378      1.0  0.18998  0.37471  0.74662  1.0000
  H   H379      1.0  0.37948  0.53034  0.73532  1.0000
  S   S118      1.0  0.16943  0.33669  0.68395  1.0000
  H   H380      1.0  0.33170  0.56209  0.74192  1.0000
  H   H381      1.0  0.37571  0.55486  0.74334  1.0000
  H   H382      1.0  0.29529  0.66098  0.51803  1.0000
  N   N34       1.0  0.47697  0.33089  0.64594  1.0000
  H   H383      1.0  0.45768  0.33234  0.69375  1.0000
  C   C384      1.0  0.10714  0.46917  0.90251  1.0000
  Fe  Fe62      1.0  0.18688  0.51598  0.87554  1.0000
  S   S119      1.0  0.21823  0.52241  0.87684  1.0000
  S   S120      1.0  0.16322  0.53590  0.86056  1.0000
  Fe  Fe63      1.0  0.19121  0.47689  0.90137  1.0000
  S   S121      1.0  0.22315  0.47992  0.90484  1.0000
  S   S122      1.0  0.17422  0.45188  0.91686  1.0000
  Fe  Fe64      1.0  0.21292  0.51194  0.90950  1.0000
  S   S123      1.0  0.21577  0.52593  0.93788  1.0000
  Fe  Fe65      1.0  0.22570  0.49008  0.87194  1.0000
  S   S124      1.0  0.25056  0.47826  0.84944  1.0000
  S   S125      1.0  0.18093  0.50776  0.90811  1.0000
  S   S126      1.0  0.19463  0.48470  0.86859  1.0000
  H   H384      1.0  0.26906  0.53421  0.98778  1.0000
  S   S127      1.0  0.23611  0.43983  0.77209  1.0000
  H   H385      1.0  0.11161  0.45680  0.91366  1.0000
  S   S128      1.0  0.18379  0.54314  0.77579  1.0000
  C   C385      1.0  0.04970  0.38982  0.97769  1.0000
  C   C386      1.0  0.16653  0.65569  0.92514  1.0000
  Fe  Fe66      1.0  0.04438  0.48607  0.81309  1.0000
  S   S129      1.0  0.05036  0.49301  0.84326  1.0000
  C   C387      1.0  0.01161  0.33927  0.75012  1.0000
  Fe  Fe67      1.0  0.07716  0.51172  0.79229  1.0000
  S   S130      1.0  0.08455  0.52018  0.82082  1.0000
  H   H386      1.0  0.20499  0.40744  0.83567  1.0000
  Fe  Fe68      1.0  0.08241  0.48842  0.83150  1.0000
  S   S131      1.0  0.10721  0.47309  0.84787  1.0000
  Fe  Fe69      1.0  0.05180  0.52428  0.82966  1.0000
  S   S132      1.0  0.03874  0.55171  0.84415  1.0000
  S   S133      1.0  0.07699  0.47914  0.80245  1.0000
  S   S134      1.0  0.04388  0.51818  0.80010  1.0000
  H   H387      1.0  0.07746  0.55937  0.78670  1.0000
  H   H388      1.0  0.18596  0.53541  0.81946  1.0000
  C   C388      1.0  0.14607  0.35441  0.75492  1.0000
  H   H389      1.0  0.05497  0.41811  0.80703  1.0000
  Fe  Fe70      1.0  0.23648  0.58522  0.77913  1.0000
  S   S135      1.0  0.24063  0.59113  0.81018  1.0000
  C   C389      1.0  0.14723  0.65089  0.92379  1.0000
  S   S136      1.0  0.06743  0.59471  0.96606  1.0000
  H   H390      1.0  0.09137  0.42109  0.80523  1.0000
  C   C390      1.0  0.24844  0.61347  0.81522  1.0000
  H   H391      1.0  0.29215  0.64700  0.95977  1.0000
  C   C391      1.0  0.01630  0.35348  0.97325  1.0000
  H   H392      1.0  0.20905  0.47274  0.75825  1.0000
  S   S137      1.0  0.08047  0.56587  0.91889  1.0000
  C   C392      1.0  0.21595  0.57534  0.96526  1.0000
  C   C393      1.0  0.13021  0.52110  0.78407  1.0000
  H   H393      1.0  0.16779  0.40561  0.85523  1.0000
  H   H394      1.0  0.14204  0.65891  0.96343  1.0000
  C   C394      1.0  0.17815  0.39767  0.86569  1.0000
  S   S138      1.0  0.06405  0.62513  0.92468  1.0000
  H   H395      1.0  0.12289  0.51086  0.79503  1.0000
  C   C395      1.0  0.14969  0.54758  0.75591  1.0000
  S   S139      1.0  0.10795  0.60385  0.93630  1.0000
  C   C396      1.0  0.22359  0.42372  0.84948  1.0000
  C   C397      1.0  0.06860  0.56274  0.89799  1.0000
  C   C398      1.0  0.07393  0.54533  0.88877  1.0000
  C   C399      1.0  0.06448  0.54181  0.87257  1.0000
  C   C400      1.0  0.04973  0.55569  0.86525  1.0000
  C   C401      1.0  0.04450  0.57327  0.87422  1.0000
  C   C402      1.0  0.05393  0.57682  0.89056  1.0000
  H   H396      1.0  0.06849  0.52829  0.86570  1.0000
  H   H397      1.0  0.03311  0.58414  0.86854  1.0000
  H   H398      1.0  0.04969  0.59029  0.89753  1.0000
  S   S140      1.0  0.05892  0.34959  0.89055  1.0000
  C   C403      1.0  0.14054  0.64861  0.97652  1.0000
  C   C404      1.0  0.12943  0.63268  0.97691  1.0000
  C   C405      1.0  0.21800  0.65146  0.79299  1.0000
  C   C406      1.0  0.07333  0.57035  0.79766  1.0000
  H   H399      1.0  0.14304  0.44232  0.85797  1.0000
  C   C407      1.0  0.01938  0.34293  0.99180  1.0000
  H   H400      1.0  0.12261  0.63068  0.96401  1.0000
  C   C408      1.0  0.06111  0.42333  0.81913  1.0000
  C   C409      1.0  0.22027  0.55003  0.94208  1.0000
  C   C410      1.0  0.21010  0.55830  0.95883  1.0000
  S   S141      1.0  0.10532  0.35673  0.89286  1.0000
  N   N35       1.0  0.10954  0.48810  0.90939  1.0000
  C   C411      1.0  0.15603  0.44742  0.88392  1.0000
  H   H401      1.0  0.06830  0.57958  0.83484  1.0000
  H   H402      1.0  0.19803  0.55104  0.96729  1.0000
  C   C412      1.0  0.23385  0.51546  0.81124  1.0000
  S   S142      1.0  0.20590  0.59486  0.77035  1.0000
  C   C413      1.0  0.14719  0.52007  0.85422  1.0000
  C   C414      1.0  0.12681  0.52293  0.86038  1.0000
  C   C415      1.0  0.11451  0.50855  0.85809  1.0000
  C   C416      1.0  0.12257  0.49130  0.84979  1.0000
  C   C417      1.0  0.14282  0.48870  0.84308  1.0000
  C   C418      1.0  0.15506  0.50325  0.84502  1.0000
  H   H403      1.0  0.12065  0.53568  0.86788  1.0000
  H   H404      1.0  0.09891  0.51040  0.86344  1.0000
  H   H405      1.0  0.14899  0.47554  0.83626  1.0000
  H   H406      1.0  0.17061  0.50140  0.83942  1.0000
  C   C419      1.0  0.24083  0.45063  0.79326  1.0000
  C   C420      1.0  0.26004  0.45106  0.79850  1.0000
  C   C421      1.0  0.26279  0.45951  0.81574  1.0000
  C   C422      1.0  0.24642  0.46757  0.82795  1.0000
  C   C423      1.0  0.22725  0.46726  0.82256  1.0000
  C   C424      1.0  0.22450  0.45887  0.80536  1.0000
  H   H407      1.0  0.27277  0.44479  0.78936  1.0000
  H   H408      1.0  0.27771  0.45974  0.81966  1.0000
  H   H409      1.0  0.21449  0.47352  0.83158  1.0000
  H   H410      1.0  0.20957  0.45867  0.80147  1.0000
  C   C425      1.0  0.13412  0.41734  0.90361  1.0000
  C   C426      1.0  0.14646  0.42670  0.91389  1.0000
  C   C427      1.0  0.15750  0.44172  0.90405  1.0000
  H   H411      1.0  0.12589  0.40558  0.91119  1.0000
  H   H412      1.0  0.14768  0.42207  0.92944  1.0000
  H   H413      1.0  0.25157  0.53759  0.96935  1.0000
  C   C428      1.0  0.05419  0.33484  0.97983  1.0000
  H   H414      1.0  0.16438  0.45891  0.87612  1.0000
  H   H415      1.0  0.08545  0.53450  0.89405  1.0000
  H   H416      1.0  0.05993  0.39033  0.96419  1.0000
  Fe  Fe71      1.0  0.05448  0.38163  0.87936  1.0000
  H   H417      1.0  0.08141  0.48956  0.92698  1.0000
  H   H418      1.0  0.21734  0.63642  0.76713  1.0000
  C   C429      1.0  0.31888  0.51788  0.74879  1.0000
  C   C430      1.0  0.13730  0.65815  0.90731  1.0000
  H   H419      1.0  0.13966  0.64214  0.93579  1.0000
  H   H420      1.0  0.11512  0.53862  0.92672  1.0000
  C   C431      1.0  0.11378  0.52419  0.92226  1.0000
  H   H421      1.0  0.04234  0.38236  0.82942  1.0000
  C   C432      1.0  0.04628  0.34392  0.84076  1.0000
  C   C433      1.0  0.19801  0.41608  0.88352  1.0000
  C   C434      1.0  0.09682  0.51471  0.92890  1.0000
  H   H422      1.0  0.25892  0.52650  0.82111  1.0000
  C   C435      1.0  0.12865  0.51540  0.90929  1.0000
  H   H423      1.0  0.08491  0.52186  0.93847  1.0000
  C   C436      1.0  0.09487  0.49659  0.92219  1.0000
  C   C437      1.0  0.09251  0.34485  0.79228  1.0000
  H   H424      1.0  0.01981  0.41585  0.77046  1.0000
  C   C438      1.0  0.14392  0.43794  0.87363  1.0000
  H   H425      1.0  0.14144  0.52311  0.90339  1.0000
  S   S143      1.0  0.02538  0.39585  0.87010  1.0000
  S   S144      1.0  0.11143  0.65601  0.90738  1.0000
  N   N36       1.0  0.05602  0.43626  0.85073  1.0000
  C   C439      1.0  0.04858  0.42881  0.83578  1.0000
  C   C440      1.0  0.04259  0.44250  0.86777  1.0000
  H   H426      1.0  0.03278  0.42741  0.83657  1.0000
  Fe  Fe72      1.0  0.09591  0.60730  0.96771  1.0000
  H   H427      1.0  0.01284  0.36908  0.75682  1.0000
  S   S145      1.0  0.22463  0.65447  0.98404  1.0000
  H   H428      1.0  0.02620  0.38160  0.81083  1.0000
  C   C441      1.0  0.08367  0.57483  0.82987  1.0000
  H   H429      1.0  0.05803  0.35084  0.84567  1.0000
  H   H430      1.0  0.07109  0.58534  0.78963  1.0000
  H   H431      1.0  0.13828  0.49018  0.89334  1.0000
  C   C442      1.0  0.14955  0.52535  0.78615  1.0000
  H   H432      1.0  0.23874  0.44013  0.86702  1.0000
  H   H433      1.0  0.32334  0.51499  0.76364  1.0000
  C   C443      1.0  0.07603  0.43729  0.85017  1.0000
  S   S146      1.0  0.11435  0.59881  0.99316  1.0000
  H   H434      1.0  0.03262  0.44430  0.78253  1.0000
  C   C444      1.0  0.24869  0.63772  0.83862  1.0000
  S   S147      1.0  0.09560  0.52581  0.76544  1.0000
  C   C445      1.0  0.13296  0.42288  0.88337  1.0000
  C   C446      1.0  0.08145  0.42504  0.81810  1.0000
  C   C447      1.0  0.26201  0.64796  0.82519  1.0000
  H   H435      1.0  0.15419  0.58763  0.92449  1.0000
  C   C448      1.0  0.12046  0.52998  0.76784  1.0000
  C   C449      1.0  0.16411  0.59505  0.93171  1.0000
  H   H436      1.0  0.08213  0.44247  0.86233  1.0000
  C   C450      1.0  0.15936  0.53868  0.77218  1.0000
  H   H437      1.0  0.22126  0.60729  0.91282  1.0000
  N   N37       1.0  0.08875  0.56956  0.81110  1.0000
  C   C451      1.0  0.12655  0.49698  0.90337  1.0000
  C   C452      1.0  0.12310  0.56306  0.81729  1.0000
  H   H438      1.0  0.19927  0.62203  0.95685  1.0000
  H   H439      1.0  0.18389  0.60074  0.90524  1.0000
  H   H440      1.0  0.16989  0.60898  0.97656  1.0000
  S   S148      1.0  0.07335  0.34943  0.94509  1.0000
  H   H441      1.0  0.23847  0.55453  0.83581  1.0000
  H   H442      1.0  0.20610  0.62991  0.90526  1.0000
  H   H443      1.0  0.18441  0.56662  0.83121  1.0000
  H   H444      1.0  0.20681  0.57719  0.83317  1.0000
  C   C453      1.0  0.08900  0.43192  0.83378  1.0000
  C   C454      1.0  0.20200  0.53364  0.81974  1.0000
  C   C455      1.0  0.21077  0.61969  0.91817  1.0000
  H   H445      1.0  0.21890  0.62815  0.92692  1.0000
  Fe  Fe73      1.0  0.09755  0.38837  0.88110  1.0000
  H   H446      1.0  0.14713  0.59168  0.96043  1.0000
  N   N38       1.0  0.19331  0.61206  0.92992  1.0000
  C   C456      1.0  0.18090  0.60252  0.92091  1.0000
  C   C457      1.0  0.21323  0.51786  0.81104  1.0000
  H   H447      1.0  0.05227  0.37250  0.80631  1.0000
  H   H448      1.0  0.10480  0.43326  0.83334  1.0000
  C   C458      1.0  0.18951  0.61439  0.94968  1.0000
  H   H449      1.0  0.25462  0.58310  0.92998  1.0000
  C   C459      1.0  0.13036  0.54314  0.75371  1.0000
  C   C460      1.0  0.23128  0.54429  0.82882  1.0000
  C   C461      1.0  0.32807  0.33698  0.75197  1.0000
  C   C462      1.0  0.17291  0.60704  0.96093  1.0000
  N   N39       1.0  0.21113  0.54689  0.82801  1.0000
  H   H450      1.0  0.24420  0.55310  0.91871  1.0000
  H   H451      1.0  0.21020  0.64071  0.80299  1.0000
  S   S149      1.0  0.11928  0.41062  0.86923  1.0000
  C   C463      1.0  0.16015  0.59732  0.95187  1.0000
  C   C464      1.0  0.24219  0.62036  0.83375  1.0000
  S   S150      1.0  0.06985  0.39284  0.90228  1.0000
  N   N40       1.0  0.03515  0.35358  0.82645  1.0000
  H   H452      1.0  0.11231  0.56070  0.78952  1.0000
  C   C465      1.0  0.09204  0.34406  0.81305  1.0000
  H   H453      1.0  0.24384  0.64289  0.85294  1.0000
  H   H454      1.0  0.23235  0.61218  0.84442  1.0000
  C   C466      1.0  0.10823  0.56425  0.80457  1.0000
  H   H455      1.0  0.12933  0.56681  0.84673  1.0000
  S   S151      1.0  0.08118  0.38053  0.85689  1.0000
  C   C467      1.0  0.01964  0.43811  0.79040  1.0000
  C   C468      1.0  0.11797  0.56789  0.83664  1.0000
  C   C469      1.0  0.09813  0.57384  0.84302  1.0000
  C   C470      1.0  0.16446  0.35945  0.75863  1.0000
  H   H456      1.0  0.27859  0.64895  0.79622  1.0000
  H   H457      1.0  0.09387  0.57744  0.85811  1.0000
  H   H458      1.0  0.09154  0.46855  0.89953  1.0000
  H   H459      1.0  0.18823  0.41307  0.89701  1.0000
  C   C471      1.0  0.24195  0.57641  0.93794  1.0000
  H   H460      1.0  0.02623  0.33385  0.75461  1.0000
  H   H461      1.0  0.13845  0.55821  0.81222  1.0000
  H   H462      1.0  0.21557  0.43352  0.89758  1.0000
  H   H463      1.0  0.01541  0.35997  0.89487  1.0000
  C   C472      1.0  0.05155  0.34579  0.96154  1.0000
  Fe  Fe74      1.0  0.22840  0.62134  0.98992  1.0000
  Fe  Fe75      1.0  0.07801  0.59426  0.93349  1.0000
  S   S152      1.0  0.08349  0.63888  0.96123  1.0000
  Fe  Fe76      1.0  0.05530  0.62615  0.95780  1.0000
  H   H464      1.0  0.29118  0.53517  0.75784  1.0000
  S   S153      1.0  0.24186  0.60413  0.96402  1.0000
  C   C473      1.0  0.03926  0.37348  0.81773  1.0000
  H   H465      1.0  0.16932  0.39542  0.88041  1.0000
  C   C474      1.0  0.22653  0.43129  0.86686  1.0000
  H   H466      1.0  0.17333  0.65133  0.93871  1.0000
  H   H467      1.0  0.13726  0.34559  0.76615  1.0000
  H   H468      1.0  0.04767  0.45540  0.87338  1.0000
  H   H469      1.0  0.20595  0.50776  0.80396  1.0000
  H   H470      1.0  0.27709  0.64903  0.98332  1.0000
  C   C475      1.0  0.03241  0.35483  0.95804  1.0000
  C   C476      1.0  0.23595  0.55949  0.93138  1.0000
  Fe  Fe77      1.0  0.07604  0.36048  0.91237  1.0000
  H   H471      1.0  0.05896  0.56654  0.80599  1.0000
  H   H472      1.0  0.04193  0.43009  0.87976  1.0000
  H   H473      1.0  0.08697  0.35836  0.78389  1.0000
  H   H474      1.0  0.20832  0.58112  0.97851  1.0000
  C   C477      1.0  0.12830  0.61858  0.99336  1.0000
  H   H475      1.0  0.24281  0.50346  0.80433  1.0000
  C   C478      1.0  0.21461  0.48544  0.74920  1.0000
  H   H476      1.0  0.08638  0.35695  0.82047  1.0000
  C   C479      1.0  0.00940  0.37824  0.86786  1.0000
  H   H477      1.0  0.26385  0.55800  0.97366  1.0000
  H   H478      1.0  0.26631  0.61874  0.78731  1.0000
  C   C480      1.0  0.26828  0.64109  0.80665  1.0000
  Fe  Fe78      1.0  0.08723  0.34920  0.86975  1.0000
  H   H479      1.0  0.03022  0.36340  0.94398  1.0000
  C   C481      1.0  0.24295  0.52853  0.82048  1.0000
  Fe  Fe79      1.0  0.09381  0.63469  0.92936  1.0000
  C   C482      1.0  0.20744  0.41286  0.84938  1.0000
  H   H480      1.0  0.26780  0.63830  0.96410  1.0000
  C   C483      1.0  0.23224  0.58422  0.95511  1.0000
  C   C484      1.0  0.21363  0.42751  0.88400  1.0000
  C   C485      1.0  0.19925  0.56353  0.83686  1.0000
  H   H481      1.0  0.19700  0.56010  0.85321  1.0000
  S   S154      1.0  0.23627  0.55403  0.77205  1.0000
  S   S155      1.0  0.25243  0.59501  0.74953  1.0000
  S   S156      1.0  0.02891  0.64172  0.97608  1.0000
  S   S157      1.0  0.01840  0.46674  0.81678  1.0000
  H   H482      1.0  0.15688  0.51829  0.79877  1.0000
  C   C486      1.0  0.15094  0.65030  0.99245  1.0000
  H   H483      1.0  0.02727  0.44715  0.86353  1.0000
  H   H484      1.0  0.18358  0.38289  0.86087  1.0000
  H   H485      1.0  0.17008  0.35454  0.77280  1.0000
  N   N41       1.0  0.19492  0.40913  0.86629  1.0000
  Fe  Fe80      1.0  0.20625  0.56431  0.76148  1.0000
  C   C487      1.0  0.26130  0.62403  0.80156  1.0000
  C   C488      1.0  0.01713  0.39761  0.99496  1.0000
  H   H486      1.0  0.23364  0.42644  0.83611  1.0000
  H   H487      1.0  0.35858  0.53657  0.75248  1.0000
  C   C489      1.0  0.25725  0.54460  0.98115  1.0000
  H   H488      1.0  0.11644  0.46708  0.88828  1.0000
  C   C490      1.0  0.22218  0.64892  0.77292  1.0000
  N   N42       1.0  0.24117  0.54982  0.99654  1.0000
  C   C491      1.0  0.05550  0.37869  0.99489  1.0000
  H   H489      1.0  0.01689  0.60155  0.98369  1.0000
  C   C492      1.0  0.00990  0.44648  0.80714  1.0000
  C   C493      1.0  0.03041  0.39941  0.97769  1.0000
  C   C494      1.0  0.27674  0.65004  0.96698  1.0000
  C   C495      1.0  0.01231  0.42195  0.78359  1.0000
  H   H490      1.0  0.30680  0.36306  0.75115  1.0000
  H   H491      1.0  0.01185  0.35222  0.80855  1.0000
  H   H492      1.0  0.02564  0.40771  0.96425  1.0000
  C   C496      1.0  0.02067  0.34455  0.81990  1.0000
  H   H493      1.0  0.24988  0.65905  0.94066  1.0000
  H   H494      1.0  0.07024  0.37061  0.99476  1.0000
  H   H495      1.0  0.22468  0.52623  0.99253  1.0000
  C   C497      1.0  0.01113  0.63043  0.99382  1.0000
  C   C498      1.0  0.03829  0.33336  0.99474  1.0000
  C   C499      1.0  0.00809  0.61055  0.99422  1.0000
  C   C500      1.0  0.00749  0.36170  0.88186  1.0000
  H   H496      1.0  0.18808  0.50513  0.75593  1.0000
  C   C501      1.0  0.00415  0.35901  0.75131  1.0000
  C   C502      1.0  0.23284  0.66240  0.76030  1.0000
  H   H497      1.0  0.00208  0.40488  0.99480  1.0000
  H   H498      1.0  0.00173  0.36093  0.97082  1.0000
  N   N43       1.0  0.09857  0.84339  0.20046  1.0000
  Fe  Fe81      1.0  0.14463  0.78561  0.19034  1.0000
  S   S158      1.0  0.11251  0.78042  0.19732  1.0000
  S   S159      1.0  0.15363  0.80226  0.16070  1.0000
  C   C503      1.0  0.43832  0.75109  0.20715  1.0000
  H   H499      1.0  0.09248  0.67215  0.16016  1.0000
  Fe  Fe82      1.0  0.12380  0.74877  0.20655  1.0000
  S   S160      1.0  0.10645  0.72722  0.19381  1.0000
  S   S161      1.0  0.46159  0.78676  0.07225  1.0000
  S   S162      1.0  0.15592  0.75382  0.19776  1.0000
  Fe  Fe83      1.0  0.26602  0.77270  0.07098  1.0000
  S   S163      1.0  0.25054  0.80311  0.07532  1.0000
  S   S164      1.0  0.24608  0.75363  0.05861  1.0000
  Fe  Fe84      1.0  0.30291  0.78186  0.08887  1.0000
  S   S165      1.0  0.29007  0.81250  0.09446  1.0000
  S   S166      1.0  0.33451  0.77122  0.09475  1.0000
  Fe  Fe85      1.0  0.26191  0.79833  0.10529  1.0000
  S   S167      1.0  0.24649  0.80251  0.13602  1.0000
  Fe  Fe86      1.0  0.28012  0.81436  0.06406  1.0000
  S   S168      1.0  0.28619  0.83712  0.03763  1.0000
  S   S169      1.0  0.27566  0.76733  0.10173  1.0000
  S   S170      1.0  0.29474  0.78426  0.05774  1.0000
  C   C504      1.0  0.38476  0.74941  0.10921  1.0000
  H   H500      1.0  0.42410  0.79583  0.05587  1.0000
  Fe  Fe87      1.0  0.34364  0.93272  0.01549  1.0000
  S   S171      1.0  0.37571  0.92338  0.01952  1.0000
  S   S172      1.0  0.32106  0.91914  0.03893  1.0000
  Fe  Fe88      1.0  0.37929  0.95572  0.01546  1.0000
  S   S173      1.0  0.39366  0.96874  0.03843  1.0000
  H   H501      1.0  0.43709  0.91576  0.11615  1.0000
  C   C505      1.0  0.43762  0.76826  0.01699  1.0000
  H   H502      1.0  0.42831  0.78873  0.13348  1.0000
  H   H503      1.0  0.07163  0.83878  0.18979  1.0000
  H   H504      1.0  0.48091  0.98861  0.02762  1.0000
  H   H505      1.0  0.27201  0.76441  0.02021  1.0000
  S   S174      1.0  0.47656  0.97488  0.10615  1.0000
  S   S175      1.0  0.48215  0.94588  0.05776  1.0000
  H   H506      1.0  0.44518  0.77554  0.11592  1.0000
  H   H507      1.0  0.43728  0.76296  0.19526  1.0000
  Fe  Fe89      1.0  0.47046  0.95102  0.13134  1.0000
  S   S176      1.0  0.43998  0.94775  0.14794  1.0000
  C   C506      1.0  0.49793  0.88053  0.14156  1.0000
  S   S177      1.0  0.48015  0.92592  0.11306  1.0000
  Fe  Fe90      1.0  0.38568  0.82111  0.16860  1.0000
  S   S178      1.0  0.37780  0.85011  0.18130  1.0000
  S   S179      1.0  0.38768  0.82075  0.13539  1.0000
  Fe  Fe91      1.0  0.39826  0.79931  0.20755  1.0000
  C   C507      1.0  0.40029  0.75285  0.09436  1.0000
  H   H508      1.0  0.17903  0.75691  0.15412  1.0000
  Fe  Fe92      1.0  0.36406  0.83195  0.20813  1.0000
  Fe  Fe93      1.0  0.40640  0.84260  0.19502  1.0000
  S   S180      1.0  0.43136  0.86211  0.19367  1.0000
  S   S181      1.0  0.36931  0.80357  0.19393  1.0000
  S   S182      1.0  0.41520  0.81435  0.18100  1.0000
  C   C508      1.0  0.43724  0.92412  0.16094  1.0000
  C   C509      1.0  0.41826  0.91762  0.16598  1.0000
  C   C510      1.0  0.41612  0.89843  0.17552  1.0000
  C   C511      1.0  0.43295  0.88592  0.18070  1.0000
  C   C512      1.0  0.45181  0.89268  0.17608  1.0000
  C   C513      1.0  0.45397  0.91154  0.16602  1.0000
  H   H509      1.0  0.40520  0.92738  0.16233  1.0000
  H   H510      1.0  0.40147  0.89353  0.17933  1.0000
  H   H511      1.0  0.46489  0.88334  0.18034  1.0000
  H   H512      1.0  0.46859  0.91659  0.16268  1.0000
  C   C514      1.0  0.41723  0.95800  0.04475  1.0000
  C   C515      1.0  0.42227  0.95916  0.06389  1.0000
  C   C516      1.0  0.44199  0.95414  0.06838  1.0000
  C   C517      1.0  0.45685  0.94837  0.05361  1.0000
  C   C518      1.0  0.45166  0.94622  0.03477  1.0000
  C   C519      1.0  0.43184  0.95088  0.03037  1.0000
  H   H513      1.0  0.41099  0.96457  0.07508  1.0000
  H   H514      1.0  0.44583  0.95556  0.08302  1.0000
  C   C520      1.0  0.46565  0.99391  0.03252  1.0000
  H   H515      1.0  0.42809  0.95003  0.01557  1.0000
  C   C521      1.0  0.34702  0.78746  0.10570  1.0000
  C   C522      1.0  0.36406  0.79468  0.09520  1.0000
  C   C523      1.0  0.37571  0.80575  0.10427  1.0000
  C   C524      1.0  0.37091  0.80907  0.12419  1.0000
  C   C525      1.0  0.35370  0.80213  0.13473  1.0000
  C   C526      1.0  0.34162  0.79151  0.12539  1.0000
  H   H516      1.0  0.36851  0.79134  0.08011  1.0000
  H   H517      1.0  0.38901  0.81099  0.09606  1.0000
  H   H518      1.0  0.34990  0.80466  0.15012  1.0000
  H   H519      1.0  0.32859  0.78575  0.13366  1.0000
  C   C527      1.0  0.29623  0.85965  0.03849  1.0000
  C   C528      1.0  0.29566  0.86817  0.05618  1.0000
  C   C529      1.0  0.30324  0.88646  0.05606  1.0000
  C   C530      1.0  0.31205  0.89604  0.03841  1.0000
  C   C531      1.0  0.31284  0.88741  0.02078  1.0000
  C   C532      1.0  0.30473  0.86942  0.02080  1.0000
  H   H520      1.0  0.28900  0.86089  0.06988  1.0000
  H   H521      1.0  0.30239  0.89313  0.06976  1.0000
  H   H522      1.0  0.30102  0.95955  0.04564  1.0000
  H   H523      1.0  0.29643  0.99035  0.01513  1.0000
  H   H524      1.0  0.21837  0.73578  0.17075  1.0000
  H   H525      1.0  0.33012  0.81251  0.07088  1.0000
  H   H526      1.0  0.35669  0.82349  0.02379  1.0000
  C   C533      1.0  0.17932  0.80345  0.15389  1.0000
  C   C534      1.0  0.18653  0.80697  0.13379  1.0000
  C   C535      1.0  0.20712  0.80677  0.12800  1.0000
  C   C536      1.0  0.22051  0.80370  0.14237  1.0000
  C   C537      1.0  0.21318  0.80097  0.16249  1.0000
  C   C538      1.0  0.19270  0.80050  0.16824  1.0000
  H   H527      1.0  0.17622  0.80939  0.12264  1.0000
  H   H528      1.0  0.21263  0.80907  0.11247  1.0000
  H   H529      1.0  0.22347  0.79879  0.17368  1.0000
  H   H530      1.0  0.18728  0.79796  0.18377  1.0000
  C   C539      1.0  0.45532  0.82447  0.22129  1.0000
  C   C540      1.0  0.42562  0.73569  0.23910  1.0000
  C   C541      1.0  0.23461  0.72235  0.04281  1.0000
  C   C542      1.0  0.13270  0.84549  0.18717  1.0000
  H   H531      1.0  0.24088  0.75560  0.13399  1.0000
  C   C543      1.0  0.47790  0.83900  0.19419  1.0000
  H   H532      1.0  0.45407  0.88234  0.12435  1.0000
  H   H533      1.0  0.44034  0.84806  0.15360  1.0000
  H   H534      1.0  0.45149  0.84659  0.12840  1.0000
  H   H535      1.0  0.22855  0.75931  0.16851  1.0000
  C   C544      1.0  0.49901  0.84482  0.14330  1.0000
  H   H536      1.0  0.17076  0.76258  0.11954  1.0000
  H   H537      1.0  0.09130  0.70737  0.16536  1.0000
  C   C545      1.0  0.39978  0.76783  0.13041  1.0000
  H   H538      1.0  0.42793  0.83744  0.13615  1.0000
  H   H539      1.0  0.27567  0.97087  0.04382  1.0000
  C   C546      1.0  0.10075  0.69641  0.17368  1.0000
  H   H540      1.0  0.40024  0.92121  0.12002  1.0000
  H   H541      1.0  0.38059  0.89295  0.13252  1.0000
  H   H542      1.0  0.49090  0.90177  0.06261  1.0000
  S   S183      1.0  0.40535  0.77097  0.22727  1.0000
  N   N44       1.0  0.46977  0.82186  0.20580  1.0000
  Fe  Fe94      1.0  0.15552  0.76287  0.22854  1.0000
  C   C547      1.0  0.43350  0.78636  0.04618  1.0000
  S   S184      1.0  0.14670  0.79524  0.22028  1.0000
  S   S185      1.0  0.33348  0.84093  0.22362  1.0000
  H   H543      1.0  0.22480  0.69825  0.03002  1.0000
  H   H544      1.0  0.47325  0.77210  0.20680  1.0000
  C   C548      1.0  0.42420  0.75122  0.22383  1.0000
  C   C549      1.0  0.41530  0.76387  0.09789  1.0000
  C   C550      1.0  0.11528  0.83611  0.18925  1.0000
  H   H545      1.0  0.39907  0.77415  0.14433  1.0000
  C   C551      1.0  0.45411  0.73576  0.20616  1.0000
  C   C552      1.0  0.29040  0.94395  0.00762  1.0000
  N   N45       1.0  0.42705  0.86896  0.13234  1.0000
  C   C553      1.0  0.40669  0.87190  0.13481  1.0000
  C   C554      1.0  0.43795  0.88445  0.12574  1.0000
  C   C555      1.0  0.39671  0.89066  0.13025  1.0000
  C   C556      1.0  0.42845  0.90338  0.12093  1.0000
  C   C557      1.0  0.40771  0.90647  0.12320  1.0000
  C   C558      1.0  0.43719  0.84933  0.13788  1.0000
  H   H546      1.0  0.39806  0.85972  0.14043  1.0000
  C   C559      1.0  0.47591  0.80337  0.20030  1.0000
  C   C560      1.0  0.11145  0.70236  0.18792  1.0000
  C   C561      1.0  0.26055  0.81694  0.24795  1.0000
  H   H547      1.0  0.33905  0.80816  0.03750  1.0000
  C   C562      1.0  0.34202  0.82373  0.03291  1.0000
  H   H548      1.0  0.28133  0.94444  0.04543  1.0000
  C   C563      1.0  0.23749  0.70478  0.03353  1.0000
  C   C564      1.0  0.45317  0.77982  0.05042  1.0000
  C   C565      1.0  0.05851  0.69741  0.19965  1.0000
  H   H549      1.0  0.28283  0.72874  0.04625  1.0000
  H   H550      1.0  0.08566  0.69050  0.22435  1.0000
  H   H551      1.0  0.31942  0.89471  0.00706  1.0000
  C   C566      1.0  0.09845  0.86042  0.20912  1.0000
  C   C567      1.0  0.10142  0.67634  0.17067  1.0000
  N   N46       1.0  0.41478  0.77139  0.11564  1.0000
  C   C568      1.0  0.08042  0.83342  0.20241  1.0000
  H   H552      1.0  0.40051  0.74736  0.08007  1.0000
  C   C569      1.0  0.27017  0.72222  0.04264  1.0000
  H   H553      1.0  0.14598  0.83949  0.17845  1.0000
  H   H554      1.0  0.46661  0.75212  0.01165  1.0000
  H   H555      1.0  0.08520  0.86627  0.21797  1.0000
  C   C570      1.0  0.21529  0.75192  0.16662  1.0000
  C   C571      1.0  0.07760  0.67725  0.22450  1.0000
  H   H556      1.0  0.42726  0.76660  0.08626  1.0000
  Fe  Fe95      1.0  0.49078  0.78546  0.08692  1.0000
  H   H557      1.0  0.49247  0.86684  0.07823  1.0000
  H   H558      1.0  0.27033  0.80066  0.02093  1.0000
  H   H559      1.0  0.03403  0.68372  0.16364  1.0000
  C   C572      1.0  0.45384  0.78928  0.22718  1.0000
  H   H560      1.0  0.20286  0.75793  0.17707  1.0000
  C   C573      1.0  0.18622  0.76061  0.12255  1.0000
  H   H561      1.0  0.11529  0.82293  0.18188  1.0000
  H   H562      1.0  0.48951  0.89474  0.14279  1.0000
  C   C574      1.0  0.20147  0.76174  0.10699  1.0000
  C   C575      1.0  0.13287  0.86258  0.19637  1.0000
  S   S186      1.0  0.48649  0.82352  0.14608  1.0000
  C   C576      1.0  0.19101  0.75742  0.14212  1.0000
  N   N47       1.0  0.06585  0.67909  0.20760  1.0000
  S   S187      1.0  0.49858  0.81562  0.09133  1.0000
  H   H563      1.0  0.42941  0.79722  0.10751  1.0000
  H   H564      1.0  0.28803  0.69796  0.02935  1.0000
  C   C577      1.0  0.42579  0.78068  0.02962  1.0000
  H   H565      1.0  0.08407  0.81714  0.20289  1.0000
  H   H566      1.0  0.21964  0.72917  0.04639  1.0000
  H   H567      1.0  0.13624  0.67966  0.11063  1.0000
  H   H568      1.0  0.47235  0.86437  0.14919  1.0000
  S   S188      1.0  0.39215  0.82694  0.22305  1.0000
  S   S189      1.0  0.47611  0.70185  0.22086  1.0000
  N   N48       1.0  0.21044  0.75572  0.14607  1.0000
  C   C578      1.0  0.22122  0.75972  0.11116  1.0000
  H   H569      1.0  0.48670  0.80143  0.18743  1.0000
  H   H570      1.0  0.31840  0.77384  0.23202  1.0000
  Fe  Fe96      1.0  0.48807  0.94933  0.08889  1.0000
  H   H571      1.0  0.11554  0.88340  0.21470  1.0000
  C   C579      1.0  0.25088  0.73116  0.04745  1.0000
  C   C580      1.0  0.22548  0.75670  0.13089  1.0000
  H   H572      1.0  0.26755  0.83339  0.21954  1.0000
  C   C581      1.0  0.43016  0.78379  0.11839  1.0000
  H   H573      1.0  0.19809  0.76436  0.09170  1.0000
  C   C582      1.0  0.33520  0.82710  0.06853  1.0000
  H   H574      1.0  0.33031  0.83073  0.02350  1.0000
  N   N49       1.0  0.34197  0.83488  0.04993  1.0000
  Fe  Fe97      1.0  0.11548  0.78732  0.22812  1.0000
  C   C583      1.0  0.11561  0.87018  0.20735  1.0000
  H   H575      1.0  0.35256  0.87931  0.06034  1.0000
  H   H576      1.0  0.23313  0.76072  0.09916  1.0000
  H   H577      1.0  0.29519  0.81967  0.99955  1.0000
  H   H578      1.0  0.13188  0.69227  0.20965  1.0000
  H   H579      1.0  0.35328  0.85967  0.03218  1.0000
  C   C584      1.0  0.38456  0.75679  0.12742  1.0000
  C   C585      1.0  0.44118  0.72033  0.23800  1.0000
  C   C586      1.0  0.12363  0.68799  0.19853  1.0000
  H   H580      1.0  0.37227  0.75465  0.13885  1.0000
  H   H581      1.0  0.46517  0.73583  0.19340  1.0000
  C   C587      1.0  0.34826  0.85334  0.04696  1.0000
  H   H582      1.0  0.32961  0.83144  0.09958  1.0000
  H   H583      1.0  0.34355  0.86373  0.99992  1.0000
  H   H584      1.0  0.07108  0.83601  0.21658  1.0000
  H   H585      1.0  0.14633  0.86991  0.19496  1.0000
  C   C588      1.0  0.25674  0.69592  0.02853  1.0000
  H   H586      1.0  0.28711  0.92990  0.01571  1.0000
  C   C589      1.0  0.44709  0.80824  0.23216  1.0000
  H   H587      1.0  0.34087  0.86507  0.09443  1.0000
  H   H588      1.0  0.48013  0.76227  0.04072  1.0000
  C   C590      1.0  0.34129  0.85657  0.08194  1.0000
  C   C591      1.0  0.33485  0.83777  0.08482  1.0000
  C   C592      1.0  0.34802  0.86447  0.06288  1.0000
  C   C593      1.0  0.27307  0.70476  0.03308  1.0000
  C   C594      1.0  0.45568  0.72042  0.22170  1.0000
  C   C595      1.0  0.28692  0.95874  0.03915  1.0000
  S   S190      1.0  0.12423  0.75526  0.23816  1.0000
  C   C596      1.0  0.45729  0.76181  0.02118  1.0000
  Fe  Fe98      1.0  0.47608  0.67782  0.24670  1.0000
  C   C597      1.0  0.46505  0.76758  0.03768  1.0000
  H   H589      1.0  0.06203  0.71063  0.20524  1.0000
  H   H590      1.0  0.44986  0.83920  0.22516  1.0000
  H   H591      1.0  0.30516  0.86297  0.00702  1.0000
  H   H592      1.0  0.37259  0.74154  0.10643  1.0000
  N   N50       1.0  0.29081  0.96014  0.01748  1.0000
  C   C598      1.0  0.29207  0.81217  0.22781  1.0000
  H   H593      1.0  0.17925  0.79420  0.24132  1.0000
  H   H594      1.0  0.49391  0.83559  0.18898  1.0000
  C   C599      1.0  0.04283  0.68250  0.17608  1.0000
  H   H595      1.0  0.11947  0.83374  0.24350  1.0000
  H   H596      1.0  0.46310  0.94167  0.02331  1.0000
  C   C600      1.0  0.48822  0.86331  0.14516  1.0000
  C   C601      1.0  0.04704  0.69940  0.18367  1.0000
  H   H597      1.0  0.41062  0.78573  0.02674  1.0000
  H   H598      1.0  0.44760  0.77660  0.23560  1.0000
  H   H599      1.0  0.32913  0.79706  0.22865  1.0000
  C   C602      1.0  0.27280  0.82191  0.23062  1.0000
  S   S191      1.0  0.34669  0.96533  0.01327  1.0000
  Fe  Fe99      1.0  0.50027  0.80376  0.12306  1.0000
  S   S192      1.0  0.49066  0.77430  0.11957  1.0000
  H   H600      1.0  0.30166  0.81641  0.21449  1.0000
  H   H601      1.0  0.28340  0.73641  0.00075  1.0000
  C   C603      1.0  0.29559  0.97766  0.00729  1.0000
  C   C604      1.0  0.46827  0.78677  0.21109  1.0000
  H   H602      1.0  0.47638  0.85189  0.20291  1.0000
  H   H603      1.0  0.46961  0.84330  0.18104  1.0000
  C   C605      1.0  0.28160  0.79315  0.01098  1.0000
  H   H604      1.0  0.43534  0.81035  0.24418  1.0000
  H   H605      1.0  0.04163  0.71396  0.17713  1.0000
  C   C606      1.0  0.12425  0.66783  0.19555  1.0000
  C   C607      1.0  0.28266  0.77268  0.01048  1.0000
  S   S193      1.0  0.50019  0.95119  0.14308  1.0000
  H   H606      1.0  0.45489  0.99286  0.00428  1.0000
  C   C608      1.0  0.45104  0.99619  0.01948  1.0000
  C   C609      1.0  0.31906  0.78770  0.23869  1.0000
  N   N51       1.0  0.29900  0.79808  0.24201  1.0000
  H   H607      1.0  0.14023  0.66825  0.08768  1.0000
  H   H608      1.0  0.42787  0.81245  0.99861  1.0000
  H   H609      1.0  0.43190  0.99130  0.08821  1.0000
  S   S194      1.0  0.09055  0.80467  0.24647  1.0000
  H   H610      1.0  0.06769  0.67551  0.23859  1.0000
  C   C610      1.0  0.29557  0.80384  0.99900  1.0000
  H   H611      1.0  0.47159  0.99475  0.06251  1.0000
  C   C611      1.0  0.13563  0.66582  0.10388  1.0000
  S   S195      1.0  0.26099  0.67430  0.01594  1.0000
  H   H612      1.0  0.45417  0.80494  0.99888  1.0000
  H   H613      1.0  0.30733  0.73446  0.01029  1.0000
  S   S196      1.0  0.17992  0.75143  0.24815  1.0000
  H   H614      1.0  0.08913  0.66432  0.22394  1.0000
  C   C612      1.0  0.05008  0.66390  0.18452  1.0000
  N   N52       1.0  0.15935  0.77402  0.29712  1.0000
  C   C613      1.0  0.01986  0.86441  0.32907  1.0000
  Fe  Fe100     1.0  0.18700  0.93222  0.43120  1.0000
  S   S197      1.0  0.16464  0.91084  0.44111  1.0000
  S   S198      1.0  0.20909  0.92486  0.40464  1.0000
  Fe  Fe101     1.0  0.16794  0.96125  0.46113  1.0000
  S   S199      1.0  0.14405  0.94142  0.47248  1.0000
  H   H615      1.0  0.05543  0.99525  0.36834  1.0000
  Fe  Fe102     1.0  0.16874  0.91690  0.47168  1.0000
  C   C614      1.0  0.10420  0.72319  0.49441  1.0000
  Fe  Fe103     1.0  0.14190  0.93705  0.44082  1.0000
  S   S200      1.0  0.11282  0.93027  0.43146  1.0000
  S   S201      1.0  0.19306  0.93656  0.46226  1.0000
  S   S202      1.0  0.16382  0.95875  0.42898  1.0000
  Fe  Fe104     1.0  0.03461  0.90855  0.33442  1.0000
  S   S203      1.0  0.03000  0.91324  0.30212  1.0000
  C   C615      1.0  0.13771  0.79622  0.27724  1.0000
  Fe  Fe105     1.0  0.06895  0.93317  0.32989  1.0000
  S   S204      1.0  0.06656  0.94024  0.29720  1.0000
  S   S205      1.0  0.09331  0.94673  0.34189  1.0000
  Fe  Fe106     1.0  0.03335  0.94500  0.30538  1.0000
  C   C616      1.0  0.10587  0.83936  0.25184  1.0000
  Fe  Fe107     1.0  0.06352  0.90777  0.29712  1.0000
  H   H616      1.0  0.44197  0.70850  0.24990  1.0000
  S   S206      1.0  0.03610  0.94046  0.33799  1.0000
  S   S207      1.0  0.06770  0.90064  0.32948  1.0000
  Fe  Fe108     1.0  0.23667  0.80500  0.31574  1.0000
  S   S208      1.0  0.25253  0.83007  0.32250  1.0000
  S   S209      1.0  0.21751  0.81305  0.29047  1.0000
  Fe  Fe109     1.0  0.25338  0.77638  0.34916  1.0000
  S   S210      1.0  0.27030  0.79938  0.35812  1.0000
  S   S211      1.0  0.25417  0.74740  0.36916  1.0000
  Fe  Fe110     1.0  0.24273  0.82067  0.35464  1.0000
  S   S212      1.0  0.22692  0.83662  0.38073  1.0000
  Fe  Fe111     1.0  0.27841  0.80654  0.32533  1.0000
  S   S213      1.0  0.31079  0.80638  0.31294  1.0000
  S   S214      1.0  0.22516  0.79704  0.34748  1.0000
  S   S215      1.0  0.26317  0.78207  0.31662  1.0000
  H   H617      1.0  0.27932  0.73346  0.33457  1.0000
  H   H618      1.0  0.20877  0.74595  0.27646  1.0000
  C   C617      1.0  0.16878  0.92236  0.37730  1.0000
  H   H619      1.0  0.11529  0.86475  0.44734  1.0000
  N   N53       1.0  0.10710  0.88104  0.47226  1.0000
  C   C618      1.0  0.28507  0.69346  0.37952  1.0000
  H   H620      1.0  0.18120  0.75308  0.31028  1.0000
  C   C619      1.0  0.31720  0.81714  0.28852  1.0000
  C   C620      1.0  0.30344  0.82988  0.27815  1.0000
  C   C621      1.0  0.03407  0.82963  0.38461  1.0000
  Fe  Fe112     1.0  0.11980  0.80445  0.48400  1.0000
  H   H621      1.0  0.39324  0.67878  0.44740  1.0000
  C   C622      1.0  0.33647  0.81255  0.27922  1.0000
  H   H622      1.0  0.28862  0.83369  0.28526  1.0000
  H   H623      1.0  0.29819  0.84766  0.25063  1.0000
  H   H624      1.0  0.41368  0.69148  0.46982  1.0000
  H   H625      1.0  0.34724  0.80281  0.28718  1.0000
  C   C623      1.0  0.16228  0.85183  0.46097  1.0000
  C   C624      1.0  0.16906  0.86722  0.46921  1.0000
  H   H626      1.0  0.24560  0.82441  0.25051  1.0000
  C   C625      1.0  0.06059  0.98661  0.35560  1.0000
  H   H627      1.0  0.16849  0.84827  0.44632  1.0000
  H   H628      1.0  0.18062  0.87534  0.46099  1.0000
  C   C626      1.0  0.21510  0.90017  0.39854  1.0000
  C   C627      1.0  0.20856  0.88413  0.41122  1.0000
  C   C628      1.0  0.21294  0.86480  0.40571  1.0000
  C   C629      1.0  0.22378  0.86119  0.38741  1.0000
  C   C630      1.0  0.23051  0.87719  0.37474  1.0000
  C   C631      1.0  0.22625  0.89658  0.38035  1.0000
  H   H629      1.0  0.20027  0.88654  0.42536  1.0000
  H   H630      1.0  0.20768  0.85255  0.41563  1.0000
  H   H631      1.0  0.23887  0.87465  0.36062  1.0000
  H   H632      1.0  0.23150  0.90886  0.37047  1.0000
  C   C632      1.0  0.10784  0.93459  0.40642  1.0000
  C   C633      1.0  0.09144  0.92688  0.40064  1.0000
  C   C634      1.0  0.08697  0.93020  0.38084  1.0000
  C   C635      1.0  0.09882  0.94140  0.36672  1.0000
  C   C636      1.0  0.11524  0.94907  0.37251  1.0000
  C   C637      1.0  0.11981  0.94561  0.39226  1.0000
  H   H633      1.0  0.08206  0.91841  0.41154  1.0000
  H   H634      1.0  0.07425  0.92428  0.37655  1.0000
  H   H635      1.0  0.12437  0.95788  0.36168  1.0000
  H   H636      1.0  0.13230  0.95183  0.39661  1.0000
  H   H637      1.0  0.01321  0.78334  0.46614  1.0000
  C   C638      1.0  0.20563  0.76167  0.27239  1.0000
  C   C639      1.0  0.21398  0.77514  0.28217  1.0000
  C   C640      1.0  0.20955  0.79546  0.27726  1.0000
  H   H638      1.0  0.16298  0.78103  0.47692  1.0000
  C   C641      1.0  0.28704  0.79305  0.25900  1.0000
  H   H639      1.0  0.03033  0.83735  0.39776  1.0000
  H   H640      1.0  0.22345  0.76983  0.29376  1.0000
  S   S216      1.0  0.01266  0.97006  0.29106  1.0000
  H   H641      1.0  0.03149  0.87285  0.32150  1.0000
  C   C642      1.0  0.04425  0.83867  0.36765  1.0000
  H   H642      1.0  0.11016  0.71842  0.46355  1.0000
  H   H643      1.0  0.35656  0.81619  0.25238  1.0000
  H   H644      1.0  0.12767  0.88649  0.44661  1.0000
  C   C643      1.0  0.03306  0.80114  0.36730  1.0000
  C   C644      1.0  0.04867  0.82859  0.35074  1.0000
  C   C645      1.0  0.19740  0.80219  0.26214  1.0000
  C   C646      1.0  0.26766  0.80239  0.26219  1.0000
  H   H645      1.0  0.18713  0.76675  0.47737  1.0000
  C   C647      1.0  0.29356  0.70476  0.34499  1.0000
  C   C648      1.0  0.41445  0.67572  0.46879  1.0000
  C   C649      1.0  0.01676  0.77350  0.43691  1.0000
  C   C650      1.0  0.30891  0.83782  0.25856  1.0000
  H   H646      1.0  0.19404  0.81790  0.25818  1.0000
  H   H647      1.0  0.07344  0.76628  0.44292  1.0000
  H   H648      1.0  0.32290  0.76109  0.33513  1.0000
  S   S217      1.0  0.46480  0.68359  0.27784  1.0000
  S   S218      1.0  0.33879  0.67031  0.44959  1.0000
  C   C651      1.0  0.04425  0.77541  0.45676  1.0000
  H   H649      1.0  0.18917  0.85776  0.36564  1.0000
  C   C652      1.0  0.11322  0.88029  0.45104  1.0000
  S   S219      1.0  0.08795  0.81589  0.49105  1.0000
  C   C653      1.0  0.14519  0.77705  0.28412  1.0000
  C   C654      1.0  0.00910  0.87027  0.34653  1.0000
  H   H650      1.0  0.05678  0.86040  0.28103  1.0000
  C   C655      1.0  0.16630  0.78975  0.30370  1.0000
  H   H651      1.0  0.29574  0.73765  0.41249  1.0000
  H   H652      1.0  0.30167  0.70233  0.33073  1.0000
  H   H653      1.0  0.29231  0.76336  0.38409  1.0000
  C   C656      1.0  0.16647  0.75377  0.30456  1.0000
  C   C657      1.0  0.31134  0.76324  0.34783  1.0000
  C   C658      1.0  0.03010  0.76583  0.42179  1.0000
  C   C659      1.0  0.32860  0.71625  0.37783  1.0000
  C   C660      1.0  0.18081  0.80557  0.49354  1.0000
  S   S220      1.0  0.05191  0.77972  0.47988  1.0000
  C   C661      1.0  0.10404  0.85845  0.25812  1.0000
  H   H654      1.0  0.13937  0.82730  0.27827  1.0000
  H   H655      1.0  0.31236  0.77813  0.35231  1.0000
  H   H656      1.0  0.05679  0.97121  0.35967  1.0000
  H   H657      1.0  0.06169  0.79104  0.33280  1.0000
  C   C662      1.0  0.02863  0.81066  0.38455  1.0000
  H   H658      1.0  0.15561  0.74794  0.31662  1.0000
  C   C663      1.0  0.02378  0.77798  0.45434  1.0000
  H   H659      1.0  0.20252  0.98069  0.49101  1.0000
  C   C664      1.0  0.31775  0.71871  0.39619  1.0000
  C   C665      1.0  0.05900  0.98820  0.31986  1.0000
  S   S221      1.0  0.31197  0.66843  0.35810  1.0000
  H   H660      1.0  0.08848  0.85786  0.47399  1.0000
  H   H661      1.0  0.07465  0.72655  0.45708  1.0000
  H   H662      1.0  0.33810  0.70265  0.37561  1.0000
  S   S222      1.0  0.11326  0.77355  0.48150  1.0000
  H   H663      1.0  0.33459  0.72881  0.34774  1.0000
  H   H664      1.0  0.04825  0.85358  0.36742  1.0000
  H   H665      1.0  0.29652  0.76307  0.34263  1.0000
  C   C666      1.0  0.18887  0.78876  0.25261  1.0000
  C   C667      1.0  0.15481  0.89396  0.39695  1.0000
  C   C668      1.0  0.15420  0.87359  0.40176  1.0000
  C   C669      1.0  0.16663  0.86048  0.39044  1.0000
  H   H666      1.0  0.14500  0.90413  0.40566  1.0000
  H   H667      1.0  0.14436  0.86798  0.41428  1.0000
  H   H668      1.0  0.16676  0.84463  0.39427  1.0000
  H   H669      1.0  0.16643  0.76052  0.49538  1.0000
  C   C670      1.0  0.05040  0.99555  0.30251  1.0000
  C   C671      1.0  0.27215  0.71089  0.38154  1.0000
  S   S223      1.0  0.01384  0.89158  0.35599  1.0000
  H   H670      1.0  0.13984  0.76458  0.27874  1.0000
  C   C672      1.0  0.32648  0.73111  0.36207  1.0000
  C   C673      1.0  0.07228  0.83558  0.26660  1.0000
  C   C674      1.0  0.30299  0.75040  0.38241  1.0000
  C   C675      1.0  0.30481  0.73588  0.39851  1.0000
  N   N54       1.0  0.16792  0.90101  0.38172  1.0000
  C   C676      1.0  0.17919  0.86785  0.37432  1.0000
  N   N55       1.0  0.31394  0.74799  0.36456  1.0000
  C   C677      1.0  0.17971  0.88828  0.37018  1.0000
  H   H671      1.0  0.16610  0.92977  0.39115  1.0000
  H   H672      1.0  0.18384  0.92571  0.37041  1.0000
  C   C678      1.0  0.15932  0.80912  0.29695  1.0000
  H   H673      1.0  0.05977  0.82687  0.26972  1.0000
  C   C679      1.0  0.05767  0.76834  0.44138  1.0000
  H   H674      1.0  0.02085  0.80337  0.39769  1.0000
  H   H675      1.0  0.19010  0.89382  0.35809  1.0000
  H   H676      1.0  0.07139  0.97669  0.31914  1.0000
  H   H677      1.0  0.10180  0.88908  0.44231  1.0000
  S   S224      1.0  0.08413  0.89127  0.27391  1.0000
  C   C680      1.0  0.28095  0.72243  0.34713  1.0000
  N   N56       1.0  0.04259  0.81028  0.35057  1.0000
  H   H678      1.0  0.04701  0.81071  0.31905  1.0000
  H   H679      1.0  0.15748  0.92873  0.36720  1.0000
  C   C681      1.0  0.08632  0.86628  0.26857  1.0000
  C   C682      1.0  0.27017  0.72553  0.36545  1.0000
  H   H680      1.0  0.05637  0.83581  0.33752  1.0000
  H   H681      1.0  0.02863  0.78646  0.36730  1.0000
  C   C683      1.0  0.16115  0.87189  0.48813  1.0000
  C   C684      1.0  0.07054  0.85457  0.27310  1.0000
  C   C685      1.0  0.14488  0.81235  0.28368  1.0000
  C   C686      1.0  0.08982  0.82798  0.25570  1.0000
  H   H682      1.0  0.03536  0.79020  0.33161  1.0000
  H   H683      1.0  0.43589  0.66790  0.49006  1.0000
  H   H684      1.0  0.12655  0.79852  0.26687  1.0000
  H   H685      1.0  0.17778  0.78743  0.31375  1.0000
  H   H686      1.0  0.02422  0.84273  0.30809  1.0000
  C   C687      1.0  0.04702  0.80004  0.33265  1.0000
  H   H687      1.0  0.34642  0.66876  0.28448  1.0000
  C   C688      1.0  0.29577  0.69029  0.36121  1.0000
  H   H688      1.0  0.28651  0.68235  0.39206  1.0000
  S   S225      1.0  0.13947  0.82160  0.46136  1.0000
  C   C689      1.0  0.01583  0.84733  0.32155  1.0000
  H   H689      1.0  0.26375  0.71312  0.39572  1.0000
  S   S226      1.0  0.02201  0.75822  0.40019  1.0000
  C   C690      1.0  0.34183  0.82023  0.25952  1.0000
  C   C691      1.0  0.14013  0.84532  0.49086  1.0000
  H   H690      1.0  0.41474  0.73565  0.25202  1.0000
  H   H691      1.0  0.07711  0.98614  0.35310  1.0000
  H   H692      1.0  0.11965  0.71999  0.49739  1.0000
  C   C692      1.0  0.05060  0.76337  0.42415  1.0000
  H   H693      1.0  0.16852  0.74400  0.29240  1.0000
  H   H694      1.0  0.31892  0.70707  0.40840  1.0000
  H   H695      1.0  0.16547  0.82150  0.30165  1.0000
  H   H696      1.0  0.06109  0.75745  0.41259  1.0000
  H   H697      1.0  0.29258  0.78208  0.27039  1.0000
  C   C693      1.0  0.14763  0.84100  0.47171  1.0000
  C   C694      1.0  0.07899  0.72681  0.47183  1.0000
  C   C695      1.0  0.19258  0.76847  0.25798  1.0000
  C   C696      1.0  0.09416  0.86840  0.48193  1.0000
  H   H698      1.0  0.04933  0.73611  0.48422  1.0000
  Fe  Fe113     1.0  0.08140  0.78456  0.49105  1.0000
  H   H699      1.0  0.17732  0.81137  0.47875  1.0000
  H   H700      1.0  0.00240  0.97616  0.33302  1.0000
  H   H701      1.0  0.32594  0.78419  0.25283  1.0000
  H   H702      1.0  0.25823  0.79859  0.27570  1.0000
  H   H703      1.0  0.12390  0.90490  0.47439  1.0000
  C   C697      1.0  0.06469  0.73211  0.48728  1.0000
  H   H704      1.0  0.36241  0.67379  0.48120  1.0000
  C   C698      1.0  0.40299  0.66846  0.45614  1.0000
  N   N57       1.0  0.05170  0.99516  0.33755  1.0000
  C   C699      1.0  0.09887  0.72233  0.47545  1.0000
  C   C700      1.0  0.17389  0.77289  0.48671  1.0000
  H   H705      1.0  0.05573  0.98947  0.28864  1.0000
  S   S227      1.0  0.16720  0.89305  0.49712  1.0000
  S   S228      1.0  0.16331  0.99023  0.47583  1.0000
  H   H706      1.0  0.11635  0.86737  0.25460  1.0000
  C   C701      1.0  0.32801  0.83277  0.24905  1.0000
  C   C702      1.0  0.11388  0.89469  0.48215  1.0000
  Fe  Fe114     1.0  0.49206  0.66435  0.28603  1.0000
  H   H707      1.0  0.50052  0.71817  0.25086  1.0000
  H   H708      1.0  0.09195  0.88165  0.52857  1.0000
  C   C703      1.0  0.35905  0.66883  0.57966  1.0000
  H   H709      1.0  0.11604  0.97977  0.60829  1.0000
  Fe  Fe115     1.0  0.27145  0.82893  0.70532  1.0000
  S   S229      1.0  0.24523  0.81682  0.72354  1.0000
  S   S230      1.0  0.27729  0.82131  0.67354  1.0000
  C   C704      1.0  0.18474  0.69614  0.60971  1.0000
  C   C705      1.0  0.17892  0.67390  0.67063  1.0000
  H   H710      1.0  0.12851  0.83738  0.49912  1.0000
  S   S231      1.0  0.26223  0.86046  0.71150  1.0000
  H   H711      1.0  0.19495  0.82071  0.53486  1.0000
  H   H712      1.0  0.14108  0.86397  0.51394  1.0000
  C   C706      1.0  0.20855  0.84916  0.64582  1.0000
  C   C707      1.0  0.12302  0.99133  0.59890  1.0000
  H   H713      1.0  0.16987  0.95585  0.64135  1.0000
  H   H714      1.0  0.11850  0.95977  0.53583  1.0000
  H   H715      1.0  0.16240  0.96204  0.53078  1.0000
  H   H716      1.0  0.36537  0.67192  0.54790  1.0000
  C   C708      1.0  0.19045  0.67625  0.61540  1.0000
  Fe  Fe116     1.0  0.10135  0.92997  0.63540  1.0000
  S   S232      1.0  0.10368  0.92608  0.60287  1.0000
  S   S233      1.0  0.07274  0.94107  0.65365  1.0000
  Fe  Fe117     1.0  0.14596  0.91739  0.63897  1.0000
  S   S234      1.0  0.15112  0.91381  0.60658  1.0000
  S   S235      1.0  0.17594  0.91278  0.65171  1.0000
  Fe  Fe118     1.0  0.13109  0.94152  0.60149  1.0000
  S   S236      1.0  0.14037  0.96287  0.57547  1.0000
  Fe  Fe119     1.0  0.12364  0.89823  0.61061  1.0000
  S   S237      1.0  0.13259  0.87059  0.59507  1.0000
  S   S238      1.0  0.12801  0.94693  0.63350  1.0000
  S   S239      1.0  0.11923  0.90034  0.64358  1.0000
  H   H717      1.0  0.16858  0.94681  0.51049  1.0000
  H   H718      1.0  0.28055  0.91700  0.73180  1.0000
  H   H719      1.0  0.19494  0.78464  0.54556  1.0000
  Fe  Fe120     1.0  0.11778  0.76867  0.51407  1.0000
  S   S240      1.0  0.12679  0.79875  0.51554  1.0000
  S   S241      1.0  0.13721  0.74107  0.52508  1.0000
  Fe  Fe121     1.0  0.09416  0.80794  0.52267  1.0000
  S   S242      1.0  0.08031  0.83021  0.54361  1.0000
  H   H720      1.0  0.24312  0.92606  0.69666  1.0000
  C   C709      1.0  0.30821  0.73136  0.62783  1.0000
  S   S243      1.0  0.08528  0.77719  0.52368  1.0000
  C   C710      1.0  0.22058  0.83093  0.67524  1.0000
  Fe  Fe122     1.0  0.27168  0.70709  0.59154  1.0000
  S   S244      1.0  0.24282  0.69535  0.58801  1.0000
  S   S245      1.0  0.29806  0.70252  0.56802  1.0000
  Fe  Fe123     1.0  0.25494  0.72375  0.63035  1.0000
  S   S246      1.0  0.22516  0.71292  0.63000  1.0000
  S   S247      1.0  0.26097  0.73545  0.65847  1.0000
  Fe  Fe124     1.0  0.24256  0.68514  0.62061  1.0000
  H   H721      1.0  0.22209  0.66996  0.70121  1.0000
  Fe  Fe125     1.0  0.22765  0.72424  0.59750  1.0000
  S   S248      1.0  0.20073  0.74413  0.58640  1.0000
  S   S249      1.0  0.27226  0.69487  0.62336  1.0000
  S   S250      1.0  0.25665  0.73706  0.59858  1.0000
  C   C711      1.0  0.15461  0.74179  0.54242  1.0000
  C   C712      1.0  0.17022  0.72646  0.54439  1.0000
  C   C713      1.0  0.18459  0.72691  0.55762  1.0000
  C   C714      1.0  0.18326  0.74254  0.56934  1.0000
  C   C715      1.0  0.16756  0.75775  0.56746  1.0000
  C   C716      1.0  0.15341  0.75748  0.55402  1.0000
  H   H722      1.0  0.17135  0.71428  0.53545  1.0000
  H   H723      1.0  0.19670  0.71521  0.55868  1.0000
  H   H724      1.0  0.16631  0.76990  0.57647  1.0000
  H   H725      1.0  0.14146  0.76934  0.55280  1.0000
  C   C717      1.0  0.11780  0.86020  0.58035  1.0000
  C   C718      1.0  0.12694  0.84581  0.56822  1.0000
  C   C719      1.0  0.11567  0.83674  0.55664  1.0000
  C   C720      1.0  0.09511  0.84186  0.55726  1.0000
  C   C721      1.0  0.08602  0.85654  0.56910  1.0000
  C   C722      1.0  0.09732  0.86574  0.58058  1.0000
  H   H726      1.0  0.14278  0.84146  0.56798  1.0000
  H   H727      1.0  0.12283  0.82548  0.54759  1.0000
  H   H728      1.0  0.07009  0.86052  0.56969  1.0000
  H   H729      1.0  0.09011  0.87670  0.59000  1.0000
  H   H730      1.0  0.04807  0.75459  0.51728  1.0000
  C   C723      1.0  0.08953  0.72869  0.50949  1.0000
  C   C724      1.0  0.32620  0.68383  0.59235  1.0000
  C   C725      1.0  0.32169  0.69018  0.57301  1.0000
  C   C726      1.0  0.33603  0.68597  0.55704  1.0000
  H   H731      1.0  0.19558  0.95416  0.58107  1.0000
  H   H732      1.0  0.04271  0.72928  0.52361  1.0000
  H   H733      1.0  0.31534  0.68692  0.60477  1.0000
  H   H734      1.0  0.33277  0.69093  0.54203  1.0000
  N   N58       1.0  0.18443  0.98269  0.58954  1.0000
  S   S251      1.0  0.20449  0.86075  0.72891  1.0000
  H   H735      1.0  0.34829  0.66866  0.61065  1.0000
  H   H736      1.0  0.09396  0.72970  0.52406  1.0000
  N   N59       1.0  0.07005  0.73310  0.50579  1.0000
  H   H737      1.0  0.06083  0.73904  0.53587  1.0000
  H   H738      1.0  0.23086  0.67830  0.66507  1.0000
  C   C727      1.0  0.17516  0.99332  0.60440  1.0000
  C   C728      1.0  0.27058  0.79816  0.66933  1.0000
  C   C729      1.0  0.26947  0.79388  0.64989  1.0000
  C   C730      1.0  0.26553  0.77496  0.64625  1.0000
  C   C731      1.0  0.26285  0.76022  0.66208  1.0000
  C   C732      1.0  0.26345  0.76472  0.68148  1.0000
  C   C733      1.0  0.26724  0.78359  0.68511  1.0000
  H   H739      1.0  0.27205  0.80509  0.63759  1.0000
  H   H740      1.0  0.26514  0.77161  0.63123  1.0000
  H   H741      1.0  0.26148  0.75338  0.69379  1.0000
  H   H742      1.0  0.26831  0.78657  0.70011  1.0000
  C   C734      1.0  0.19659  0.87438  0.70698  1.0000
  C   C735      1.0  0.21027  0.88019  0.69103  1.0000
  C   C736      1.0  0.20362  0.89186  0.67424  1.0000
  C   C737      1.0  0.18322  0.89745  0.67294  1.0000
  C   C738      1.0  0.16946  0.89124  0.68866  1.0000
  C   C739      1.0  0.17616  0.87994  0.70570  1.0000
  C   C740      1.0  0.22430  0.83904  0.65564  1.0000
  H   H743      1.0  0.21438  0.89655  0.66214  1.0000
  H   H744      1.0  0.15371  0.89556  0.68792  1.0000
  H   H745      1.0  0.16545  0.87553  0.71798  1.0000
  C   C741      1.0  0.31201  0.75238  0.67528  1.0000
  N   N60       1.0  0.31173  0.74491  0.64181  1.0000
  H   H746      1.0  0.18635  0.83402  0.50106  1.0000
  H   H747      1.0  0.31923  0.73225  0.61444  1.0000
  C   C742      1.0  0.05470  0.73924  0.52147  1.0000
  N   N61       1.0  0.17991  0.78597  0.49989  1.0000
  C   C743      1.0  0.05285  0.96048  0.65130  1.0000
  N   N62       1.0  0.25209  0.91212  0.72430  1.0000
  C   C744      1.0  0.15256  0.92003  0.53610  1.0000
  C   C745      1.0  0.23846  0.91881  0.71116  1.0000
  H   H748      1.0  0.19835  0.82710  0.70023  1.0000
  H   H749      1.0  0.06191  0.97344  0.62175  1.0000
  C   C746      1.0  0.13429  0.98723  0.58110  1.0000
  C   C747      1.0  0.31567  0.76376  0.63481  1.0000
  H   H750      1.0  0.30940  0.71574  0.63459  1.0000
  C   C748      1.0  0.35452  0.67514  0.56032  1.0000
  C   C749      1.0  0.18340  0.95270  0.61160  1.0000
  H   H751      1.0  0.14704  0.96445  0.51067  1.0000
  C   C750      1.0  0.31606  0.77160  0.66827  1.0000
  C   C751      1.0  0.17687  0.70860  0.62408  1.0000
  H   H752      1.0  0.30552  0.72461  0.66739  1.0000
  H   H753      1.0  0.03953  0.95126  0.68057  1.0000
  H   H754      1.0  0.19680  0.90349  0.73828  1.0000
  N   N63       1.0  0.18966  0.85127  0.65536  1.0000
  C   C752      1.0  0.18586  0.84312  0.67453  1.0000
  C   C753      1.0  0.17329  0.86155  0.64466  1.0000
  H   H755      1.0  0.17093  0.84482  0.68216  1.0000
  H   H756      1.0  0.21153  0.85543  0.63057  1.0000
  H   H757      1.0  0.16707  0.85114  0.63635  1.0000
  H   H758      1.0  0.16112  0.86822  0.65497  1.0000
  H   H759      1.0  0.17843  0.87399  0.63406  1.0000
  H   H760      1.0  0.18558  0.76270  0.52280  1.0000
  C   C754      1.0  0.30974  0.73918  0.66177  1.0000
  Fe  Fe126     1.0  0.27958  0.85354  0.73831  1.0000
  H   H761      1.0  0.23936  0.83748  0.64822  1.0000
  H   H762      1.0  0.18645  0.98506  0.55804  1.0000
  C   C755      1.0  0.12485  0.94453  0.53859  1.0000
  C   C756      1.0  0.20127  0.83297  0.68481  1.0000
  H   H763      1.0  0.31695  0.78226  0.67861  1.0000
  H   H764      1.0  0.30973  0.74800  0.69110  1.0000
  C   C757      1.0  0.21831  0.91620  0.71615  1.0000
  C   C758      1.0  0.03830  0.96181  0.66754  1.0000
  H   H765      1.0  0.17282  0.72419  0.61972  1.0000
  N   N64       1.0  0.18082  0.68144  0.64955  1.0000
  S   S252      1.0  0.29140  0.82324  0.72992  1.0000
  C   C759      1.0  0.18610  0.81839  0.50603  1.0000
  C   C760      1.0  0.17402  0.96343  0.62683  1.0000
  C   C761      1.0  0.17506  0.70096  0.64408  1.0000
  H   H766      1.0  0.14820  0.89108  0.55139  1.0000
  C   C762      1.0  0.15619  0.95374  0.52036  1.0000
  C   C763      1.0  0.14149  0.90606  0.54769  1.0000
  C   C764      1.0  0.05087  0.97432  0.63447  1.0000
  H   H767      1.0  0.22600  0.87595  0.69174  1.0000
  C   C765      1.0  0.12181  0.91164  0.55484  1.0000
  H   H768      1.0  0.23270  0.82315  0.68300  1.0000
  C   C766      1.0  0.09592  0.88183  0.51268  1.0000
  H   H769      1.0  0.18677  0.70203  0.59425  1.0000
  C   C767      1.0  0.10858  0.89517  0.50254  1.0000
  H   H770      1.0  0.16792  0.91563  0.53077  1.0000
  C   C768      1.0  0.18850  0.96262  0.59291  1.0000
  H   H771      1.0  0.16199  0.99232  0.63480  1.0000
  N   N65       1.0  0.14414  0.93895  0.53158  1.0000
  C   C769      1.0  0.31794  0.77736  0.64792  1.0000
  H   H772      1.0  0.16936  0.71082  0.65522  1.0000
  C   C770      1.0  0.02206  0.97645  0.66720  1.0000
  C   C771      1.0  0.34487  0.67340  0.59564  1.0000
  H   H773      1.0  0.16297  0.67436  0.67657  1.0000
  H   H774      1.0  0.11327  0.90111  0.56429  1.0000
  C   C772      1.0  0.11338  0.93097  0.55027  1.0000
  H   H775      1.0  0.18669  0.68290  0.67915  1.0000
  H   H776      1.0  0.18652  0.93676  0.61424  1.0000
  H   H777      1.0  0.09829  0.93562  0.55630  1.0000
  C   C773      1.0  0.16968  0.98386  0.62320  1.0000
  Fe  Fe127     1.0  0.23676  0.84797  0.73074  1.0000
  H   H778      1.0  0.29297  0.73518  0.62326  1.0000
  C   C774      1.0  0.19090  0.79073  0.53098  1.0000
  C   C775      1.0  0.18546  0.77838  0.51809  1.0000
  H   H779      1.0  0.31655  0.76850  0.61905  1.0000
  C   C776      1.0  0.24629  0.90213  0.74222  1.0000
  C   C777      1.0  0.27320  0.91460  0.71869  1.0000
  C   C778      1.0  0.01982  0.99029  0.65062  1.0000
  C   C779      1.0  0.03431  0.98917  0.63409  1.0000
  H   H780      1.0  0.32039  0.79249  0.64243  1.0000
  C   C780      1.0  0.19098  0.81091  0.52496  1.0000
  H   H781      1.0  0.28098  0.90103  0.71265  1.0000
  C   C781      1.0  0.21225  0.90630  0.73451  1.0000
  H   H782      1.0  0.11467  0.90549  0.51042  1.0000
  H   H783      1.0  0.27527  0.92750  0.70746  1.0000
  H   H784      1.0  0.01107  0.97697  0.68001  1.0000
  H   H785      1.0  0.20753  0.92121  0.70564  1.0000
  H   H786      1.0  0.19710  0.66652  0.60444  1.0000
  C   C782      1.0  0.19076  0.99274  0.57006  1.0000
  H   H787      1.0  0.29904  0.68097  0.53185  1.0000
  C   C783      1.0  0.18816  0.66905  0.63549  1.0000
  H   H788      1.0  0.20715  0.99322  0.56818  1.0000
  C   C784      1.0  0.29493  0.66560  0.53314  1.0000
  C   C785      1.0  0.14715  0.86051  0.49923  1.0000
  C   C786      1.0  0.19425  0.99249  0.49873  1.0000
  C   C787      1.0  0.08843  0.86855  0.50227  1.0000
  H   H789      1.0  0.07844  0.85824  0.50997  1.0000
  H   H790      1.0  0.27937  0.66558  0.54027  1.0000
  C   C788      1.0  0.22632  0.89903  0.74757  1.0000
  S   S253      1.0  0.29588  0.87755  0.74839  1.0000
  C   C789      1.0  0.35651  0.86433  0.98922  1.0000
  C   C790      1.0  0.43763  0.83104  0.95831  1.0000
  H   H791      1.0  0.17875  0.71606  0.92239  1.0000
  Fe  Fe128     1.0  0.41701  0.92783  0.81430  1.0000
  S   S254      1.0  0.40325  0.93403  0.84455  1.0000
  Fe  Fe129     1.0  0.38449  0.90063  0.80953  1.0000
  S   S255      1.0  0.36889  0.90546  0.83975  1.0000
  Fe  Fe130     1.0  0.37430  0.93707  0.83152  1.0000
  S   S256      1.0  0.35171  0.96089  0.84239  1.0000
  Fe  Fe131     1.0  0.39924  0.90182  0.84998  1.0000
  S   S257      1.0  0.40368  0.88785  0.88090  1.0000
  S   S258      1.0  0.38792  0.93299  0.80043  1.0000
  S   S259      1.0  0.41510  0.89483  0.82056  1.0000
  Fe  Fe132     1.0  0.40162  0.76977  0.97829  1.0000
  S   S260      1.0  0.39994  0.80016  0.96206  1.0000
  Fe  Fe133     1.0  0.36479  0.75976  0.95917  1.0000
  S   S261      1.0  0.36061  0.78986  0.94227  1.0000
  S   S262      1.0  0.34461  0.73548  0.95741  1.0000
  Fe  Fe134     1.0  0.39387  0.78656  0.93545  1.0000
  S   S263      1.0  0.40826  0.79541  0.90449  1.0000
  Fe  Fe135     1.0  0.36705  0.80095  0.97017  1.0000
  C   C791      1.0  0.48027  0.92847  0.86105  1.0000
  S   S264      1.0  0.39808  0.75566  0.95067  1.0000
  H   H792      1.0  0.09766  0.69299  0.93347  1.0000
  S   S265      1.0  0.39733  0.90239  0.96902  1.0000
  N   N66       1.0  0.37791  0.93144  0.91523  1.0000
  S   S266      1.0  0.34792  0.93272  0.98242  1.0000
  S   S267      1.0  0.42881  0.76043  0.99581  1.0000
  H   H793      1.0  0.30361  0.96396  0.96057  1.0000
  C   C792      1.0  0.36109  0.83504  0.87850  1.0000
  H   H794      1.0  0.47862  0.96315  0.78492  1.0000
  H   H795      1.0  0.16938  0.70405  0.95776  1.0000
  C   C793      1.0  0.45125  0.79583  0.94253  1.0000
  N   N67       1.0  0.26818  0.66978  0.95948  1.0000
  Fe  Fe136     1.0  0.22177  0.68945  0.88971  1.0000
  S   S268      1.0  0.22110  0.69249  0.85671  1.0000
  H   H796      1.0  0.44429  0.81114  0.91439  1.0000
  Fe  Fe137     1.0  0.25795  0.71345  0.88791  1.0000
  S   S269      1.0  0.26019  0.71745  0.85467  1.0000
  S   S270      1.0  0.27534  0.73434  0.90154  1.0000
  Fe  Fe138     1.0  0.22711  0.72386  0.85767  1.0000
  S   S271      1.0  0.21242  0.75013  0.83960  1.0000
  Fe  Fe139     1.0  0.25427  0.68582  0.85585  1.0000
  N   N68       1.0  0.12701  0.69802  0.93885  1.0000
  S   S272      1.0  0.22469  0.72164  0.89090  1.0000
  S   S273      1.0  0.25506  0.68073  0.88900  1.0000
  C   C794      1.0  0.37898  0.84959  0.96370  1.0000
  H   H797      1.0  0.43168  0.84469  0.96446  1.0000
  C   C795      1.0  0.22687  0.75866  0.81777  1.0000
  C   C796      1.0  0.22136  0.77715  0.80754  1.0000
  C   C797      1.0  0.23402  0.78504  0.79144  1.0000
  C   C798      1.0  0.25216  0.77433  0.78555  1.0000
  C   C799      1.0  0.25708  0.75544  0.79510  1.0000
  C   C800      1.0  0.24446  0.74761  0.81106  1.0000
  H   H798      1.0  0.20761  0.78567  0.81249  1.0000
  H   H799      1.0  0.23008  0.79960  0.78407  1.0000
  H   H800      1.0  0.27098  0.74701  0.79044  1.0000
  H   H801      1.0  0.24847  0.73308  0.81825  1.0000
  H   H802      1.0  0.36971  0.86320  0.83470  1.0000
  C   C801      1.0  0.37530  0.93865  0.89604  1.0000
  H   H803      1.0  0.14022  0.67451  0.87831  1.0000
  H   H804      1.0  0.38844  0.86449  0.91558  1.0000
  H   H805      1.0  0.45587  0.78437  0.97244  1.0000
  H   H806      1.0  0.31174  0.90756  0.76602  1.0000
  H   H807      1.0  0.10096  0.69422  0.95901  1.0000
  C   C802      1.0  0.31023  0.79404  0.98655  1.0000
  H   H808      1.0  0.32727  0.84593  0.75958  1.0000
  C   C803      1.0  0.23925  0.67830  0.76801  1.0000
  H   H809      1.0  0.25891  0.69463  0.79520  1.0000
  H   H810      1.0  0.39408  0.90362  0.92229  1.0000
  H   H811      1.0  0.17524  0.68124  0.87983  1.0000
  C   C804      1.0  0.37733  0.97181  0.90369  1.0000
  H   H812      1.0  0.38977  0.82821  0.92460  1.0000
  C   C805      1.0  0.32623  0.73526  0.94083  1.0000
  C   C806      1.0  0.31756  0.75266  0.93099  1.0000
  C   C807      1.0  0.30215  0.75197  0.91900  1.0000
  C   C808      1.0  0.29538  0.73391  0.91635  1.0000
  C   C809      1.0  0.30425  0.71647  0.92595  1.0000
  C   C810      1.0  0.31935  0.71720  0.93833  1.0000
  H   H813      1.0  0.32252  0.76669  0.93281  1.0000
  H   H814      1.0  0.29542  0.76559  0.91171  1.0000
  H   H815      1.0  0.29938  0.70244  0.92400  1.0000
  H   H816      1.0  0.32593  0.70364  0.94587  1.0000
  H   H817      1.0  0.50002  0.98325  0.79965  1.0000
  H   H818      1.0  0.12200  0.70373  0.90834  1.0000
  H   H819      1.0  0.34166  0.90795  0.78356  1.0000
  C   C811      1.0  0.40397  0.86209  0.88641  1.0000
  C   C812      1.0  0.41322  0.84906  0.87298  1.0000
  C   C813      1.0  0.41470  0.82854  0.87859  1.0000
  C   C814      1.0  0.40641  0.82104  0.89738  1.0000
  C   C815      1.0  0.39660  0.83405  0.91042  1.0000
  C   C816      1.0  0.39570  0.85452  0.90514  1.0000
  H   H820      1.0  0.41977  0.85480  0.85854  1.0000
  H   H821      1.0  0.42227  0.81847  0.86839  1.0000
  C   C817      1.0  0.36736  0.88077  0.98678  1.0000
  C   C818      1.0  0.16751  0.67283  0.89216  1.0000
  C   C819      1.0  0.48277  0.98186  0.82821  1.0000
  C   C820      1.0  0.47479  0.96659  0.80005  1.0000
  H   H822      1.0  0.39746  0.84285  0.81486  1.0000
  N   N69       1.0  0.23501  0.68076  0.78771  1.0000
  H   H823      1.0  0.29940  0.75241  0.82017  1.0000
  C   C821      1.0  0.15877  0.70486  0.94693  1.0000
  C   C822      1.0  0.34738  0.85977  0.77466  1.0000
  C   C823      1.0  0.29965  0.96291  0.97652  1.0000
  S   S274      1.0  0.34142  0.98325  0.95398  1.0000
  N   N70       1.0  0.37838  0.83228  0.83981  1.0000
  C   C824      1.0  0.45360  0.96328  0.83095  1.0000
  C   C825      1.0  0.24243  0.69725  0.79542  1.0000
  N   N71       1.0  0.29706  0.76321  0.99812  1.0000
  H   H824      1.0  0.13622  0.69293  0.96800  1.0000
  C   C826      1.0  0.29997  0.97934  0.98668  1.0000
  C   C827      1.0  0.38400  0.88166  0.97264  1.0000
  H   H825      1.0  0.30417  0.99313  0.97863  1.0000
  C   C828      1.0  0.49752  0.93820  0.85745  1.0000
  H   H826      1.0  0.29498  0.93209  0.97932  1.0000
  C   C829      1.0  0.36951  0.81680  0.87262  1.0000
  Fe  Fe140     1.0  0.38027  0.92577  0.98637  1.0000
  H   H827      1.0  0.38318  0.93813  0.94372  1.0000
  H   H828      1.0  0.44096  0.95746  0.83988  1.0000
  H   H829      1.0  0.27173  0.71794  0.96351  1.0000
  C   C830      1.0  0.31725  0.87667  0.76158  1.0000
  C   C831      1.0  0.10832  0.68916  0.94484  1.0000
  S   S275      1.0  0.27025  0.78468  0.76810  1.0000
  H   H830      1.0  0.40229  0.86692  0.94973  1.0000
  H   H831      1.0  0.47156  0.92877  0.87539  1.0000
  C   C832      1.0  0.44293  0.81583  0.99184  1.0000
  C   C833      1.0  0.37486  0.95894  0.89003  1.0000
  C   C834      1.0  0.15040  0.71183  0.91331  1.0000
  C   C835      1.0  0.16398  0.71161  0.92713  1.0000
  H   H832      1.0  0.36287  0.89264  0.99594  1.0000
  H   H833      1.0  0.24693  0.72206  0.93898  1.0000
  C   C836      1.0  0.36249  0.84856  0.97794  1.0000
  N   N72       1.0  0.44442  0.81486  0.97039  1.0000
  H   H834      1.0  0.15454  0.71653  0.89778  1.0000
  C   C837      1.0  0.25468  0.67191  0.94583  1.0000
  S   S276      1.0  0.44552  0.94166  0.80117  1.0000
  C   C838      1.0  0.46588  0.97457  0.83933  1.0000
  C   C839      1.0  0.37841  0.91019  0.92149  1.0000
  H   H835      1.0  0.37251  0.96468  0.87490  1.0000
  C   C840      1.0  0.36001  0.98400  0.83429  1.0000
  S   S277      1.0  0.38723  0.95730  0.98234  1.0000
  H   H836      1.0  0.39616  0.81665  0.81729  1.0000
  C   C841      1.0  0.24645  0.69071  0.93866  1.0000
  C   C842      1.0  0.48691  0.97813  0.80835  1.0000
  H   H837      1.0  0.23834  0.71143  0.78640  1.0000
  C   C843      1.0  0.33022  0.85943  0.76490  1.0000
  C   C844      1.0  0.13198  0.70466  0.91940  1.0000
  H   H838      1.0  0.45921  0.89358  0.85413  1.0000
  C   C845      1.0  0.45829  0.95873  0.81138  1.0000
  C   C846      1.0  0.25270  0.70738  0.94493  1.0000
  H   H839      1.0  0.43206  0.84278  0.92843  1.0000
  C   C847      1.0  0.26664  0.70508  0.95866  1.0000
  H   H840      1.0  0.22184  0.89058  0.76152  1.0000
  H   H841      1.0  0.46259  0.97718  0.85475  1.0000
  C   C848      1.0  0.14767  0.66891  0.89129  1.0000
  C   C849      1.0  0.36120  0.85185  0.86480  1.0000
  H   H842      1.0  0.32118  0.80219  0.97720  1.0000
  H   H843      1.0  0.35493  0.86617  0.86925  1.0000
  H   H844      1.0  0.37746  0.97435  0.80811  1.0000
  H   H845      1.0  0.22173  0.66913  0.81593  1.0000
  H   H846      1.0  0.37001  0.90745  0.93636  1.0000
  C   C850      1.0  0.35172  0.87724  0.78151  1.0000
  H   H847      1.0  0.37168  0.90239  0.91102  1.0000
  C   C851      1.0  0.32157  0.89410  0.76849  1.0000
  C   C852      1.0  0.37279  0.98658  0.81680  1.0000
  H   H848      1.0  0.37546  0.83348  0.80913  1.0000
  S   S278      1.0  0.27090  0.66947  0.83104  1.0000
  H   H849      1.0  0.28499  0.68437  0.97666  1.0000
  C   C853      1.0  0.45110  0.79739  0.96278  1.0000
  H   H850      1.0  0.32252  0.76609  0.97689  1.0000
  C   C854      1.0  0.43775  0.83005  0.93795  1.0000
  H   H851      1.0  0.30575  0.73684  0.98395  1.0000
  S   S279      1.0  0.20095  0.67269  0.91254  1.0000
  H   H852      1.0  0.37343  0.92877  0.88526  1.0000
  H   H853      1.0  0.25179  0.76166  0.87476  1.0000
  C   C855      1.0  0.37823  0.81568  0.85311  1.0000
  H   H854      1.0  0.35490  0.83618  0.89377  1.0000
  N   N73       1.0  0.27802  0.77500  0.83094  1.0000
  C   C856      1.0  0.27352  0.76496  0.84917  1.0000
  C   C857      1.0  0.26571  0.79107  0.82428  1.0000
  C   C858      1.0  0.25564  0.77014  0.86066  1.0000
  C   C859      1.0  0.24777  0.79671  0.83545  1.0000
  C   C860      1.0  0.24258  0.78593  0.85358  1.0000
  C   C861      1.0  0.29640  0.76880  0.81874  1.0000
  S   S280      1.0  0.37390  0.87684  0.79336  1.0000
  H   H855      1.0  0.26934  0.79914  0.80988  1.0000
  H   H856      1.0  0.35746  0.84644  0.77671  1.0000
  H   H857      1.0  0.23760  0.80885  0.82966  1.0000
  H   H858      1.0  0.22831  0.78957  0.86198  1.0000
  C   C862      1.0  0.29485  0.94508  0.98702  1.0000
  H   H859      1.0  0.29518  0.77357  0.80271  1.0000
  H   H860      1.0  0.30913  0.77524  0.82332  1.0000
  C   C863      1.0  0.36979  0.85014  0.84535  1.0000
  H   H861      1.0  0.45596  0.78179  0.93665  1.0000
  C   C864      1.0  0.33857  0.89438  0.77849  1.0000
  H   H862      1.0  0.44531  0.91587  0.86229  1.0000
  H   H863      1.0  0.36998  0.80372  0.88332  1.0000
  C   C865      1.0  0.31085  0.77359  0.98639  1.0000
  S   S281      1.0  0.25301  0.84340  0.75823  1.0000
  C   C866      1.0  0.22456  0.66757  0.80019  1.0000
  C   C867      1.0  0.38973  0.86609  0.96099  1.0000
  H   H864      1.0  0.28353  0.75257  0.85478  1.0000
  C   C868      1.0  0.48502  0.91914  0.82829  1.0000
  S   S282      1.0  0.36862  0.77124  0.98815  1.0000
  H   H865      1.0  0.47987  0.91231  0.81655  1.0000
  H   H866      1.0  0.11143  0.67279  0.94666  1.0000
  C   C869      1.0  0.14000  0.69836  0.95260  1.0000
  C   C870      1.0  0.38055  0.96424  0.92305  1.0000
  H   H867      1.0  0.38514  0.80151  0.84886  1.0000
  H   H868      1.0  0.37669  0.98762  0.89932  1.0000
  H   H869      1.0  0.38313  0.83788  0.95448  1.0000
  C   C871      1.0  0.44460  0.81230  0.93006  1.0000
  Fe  Fe141     1.0  0.35438  0.96448  0.98029  1.0000
  C   C872      1.0  0.38733  0.83111  0.81932  1.0000
  H   H870      1.0  0.44756  0.91206  0.83675  1.0000
  S   S283      1.0  0.50004  0.99212  0.84070  1.0000
  N   N74       1.0  0.47404  0.91943  0.84641  1.0000
  C   C873      1.0  0.45569  0.90969  0.85016  1.0000
  C   C874      1.0  0.38080  0.94390  0.92861  1.0000
  H   H871      1.0  0.23620  0.69888  0.81101  1.0000
  H   H872      1.0  0.38244  0.97412  0.93381  1.0000
  S   S284      1.0  0.34941  0.82759  0.98208  1.0000
  Fe  Fe142     1.0  0.26409  0.81337  0.74874  1.0000
  C   C875      1.0  0.17686  0.66663  0.90939  1.0000
  C   C876      1.0  0.27427  0.68605  0.96584  1.0000
  H   H873      1.0  0.24774  0.68860  0.75816  1.0000
  H   H874      1.0  0.23534  0.69229  0.92827  1.0000
  H   H875      1.0  0.25715  0.89627  0.75241  1.0000
  H   H876      1.0  0.44548  0.83071  0.99529  1.0000
  S   S285      1.0  0.16727  0.66846  0.99063  1.0000
  C   C877      1.0  0.29842  0.74168  0.99829  1.0000
  Fe  Fe143     1.0  0.64572  0.05868  0.12191  1.0000
  S   S286      1.0  0.63070  0.06086  0.15268  1.0000
  H   H877      1.0  0.67667  0.22742  0.03265  1.0000
  Fe  Fe144     1.0  0.62328  0.09623  0.10486  1.0000
  S   S287      1.0  0.60623  0.10153  0.13438  1.0000
  S   S288      1.0  0.61855  0.11063  0.07404  1.0000
  Fe  Fe145     1.0  0.63602  0.09299  0.14662  1.0000
  S   S289      1.0  0.64619  0.10768  0.17159  1.0000
  Fe  Fe146     1.0  0.60262  0.06887  0.13774  1.0000
  S   S290      1.0  0.57313  0.05652  0.14950  1.0000
  S   S291      1.0  0.65314  0.08996  0.11666  1.0000
  S   S292      1.0  0.61756  0.06438  0.10747  1.0000
  Fe  Fe147     1.0  0.63026  0.20909  0.01362  1.0000
  C   C878      1.0  0.74511  0.24323  0.15319  1.0000
  S   S293      1.0  0.61739  0.20207  0.04529  1.0000
  H   H878      1.0  0.76532  0.24907  0.20236  1.0000
  C   C879      1.0  0.65167  0.04041  0.03241  1.0000
  H   H879      1.0  0.56372  0.06120  0.07107  1.0000
  H   H880      1.0  0.56029  0.09806  0.14326  1.0000
  H   H881      1.0  0.76373  0.27749  0.17582  1.0000
  H   H882      1.0  0.62953  0.02492  0.13341  1.0000
  S   S294      1.0  0.90633  0.32693  0.05143  1.0000
  C   C880      1.0  0.67455  0.22871  0.04885  1.0000
  Fe  Fe148     1.0  0.74925  0.14229  0.20439  1.0000
  C   C881      1.0  0.71733  0.07023  0.16282  1.0000
  S   S295      1.0  0.73275  0.13060  0.18141  1.0000
  H   H883      1.0  0.89695  0.14675  0.21825  1.0000
  C   C882      1.0  0.75142  0.26131  0.15593  1.0000
  N   N75       1.0  0.85393  0.30779  0.00490  1.0000
  H   H884      1.0  0.56141  0.12042  0.12657  1.0000
  Fe  Fe149     1.0  0.78048  0.17125  0.20288  1.0000
  S   S296      1.0  0.79630  0.19656  0.18652  1.0000
  S   S297      1.0  0.78232  0.14044  0.19449  1.0000
  N   N76       1.0  0.74600  0.22775  0.16780  1.0000
  Fe  Fe150     1.0  0.76601  0.30156  0.10671  1.0000
  S   S298      1.0  0.79601  0.28531  0.09871  1.0000
  S   S299      1.0  0.76028  0.31338  0.13669  1.0000
  Fe  Fe151     1.0  0.74903  0.29199  0.06907  1.0000
  S   S300      1.0  0.77810  0.27580  0.05820  1.0000
  S   S301      1.0  0.72021  0.29504  0.05421  1.0000
  Fe  Fe152     1.0  0.77858  0.26236  0.08998  1.0000
  S   S302      1.0  0.78077  0.22934  0.09817  1.0000
  Fe  Fe153     1.0  0.79267  0.30049  0.06807  1.0000
  H   H885      1.0  0.53759  0.05567  0.09928  1.0000
  S   S303      1.0  0.74884  0.27742  0.10028  1.0000
  S   S304      1.0  0.76326  0.31793  0.07662  1.0000
  C   C883      1.0  0.65219  0.07566  0.04837  1.0000
  S   S305      1.0  0.74738  0.17404  0.21116  1.0000
  C   C884      1.0  0.85490  0.15295  0.21149  1.0000
  H   H886      1.0  0.65242  0.08938  0.05477  1.0000
  C   C885      1.0  0.75946  0.24768  0.18855  1.0000
  C   C886      1.0  0.57072  0.09781  0.09822  1.0000
  C   C887      1.0  0.57077  0.03049  0.12166  1.0000
  H   H887      1.0  0.73959  0.20699  0.14900  1.0000
  N   N77       1.0  0.68910  0.07130  0.18759  1.0000
  S   S306      1.0  0.81433  0.31913  0.04833  1.0000
  H   H888      1.0  0.87680  0.10673  0.22125  1.0000
  H   H889      1.0  0.64876  0.01788  0.07396  1.0000
  C   C888      1.0  0.70618  0.06269  0.15014  1.0000
  H   H890      1.0  0.74805  0.19631  0.17191  1.0000
  H   H891      1.0  0.72941  0.24717  0.00410  1.0000
  H   H892      1.0  0.53781  0.11123  0.13464  1.0000
  H   H893      1.0  0.66084  0.05724  0.07431  1.0000
  H   H894      1.0  0.82869  0.16108  0.19594  1.0000
  C   C889      1.0  0.85079  0.30879  0.06355  1.0000
  C   C890      1.0  0.88729  0.30133  0.01406  1.0000
  C   C891      1.0  0.83753  0.12966  0.19821  1.0000
  C   C892      1.0  0.87116  0.31079  0.06388  1.0000
  H   H895      1.0  0.71268  0.05962  0.13538  1.0000
  H   H896      1.0  0.84430  0.29627  0.07191  1.0000
  H   H897      1.0  0.58286  0.18871  0.03192  1.0000
  H   H898      1.0  0.88990  0.12915  0.23902  1.0000
  C   C893      1.0  0.64690  0.07607  0.02920  1.0000
  C   C894      1.0  0.79259  0.20508  0.16169  1.0000
  C   C895      1.0  0.78544  0.19323  0.14940  1.0000
  C   C896      1.0  0.78213  0.20072  0.12984  1.0000
  C   C897      1.0  0.78567  0.22017  0.12255  1.0000
  C   C898      1.0  0.79285  0.23200  0.13485  1.0000
  C   C899      1.0  0.79652  0.22438  0.15426  1.0000
  H   H899      1.0  0.78254  0.17826  0.15491  1.0000
  H   H900      1.0  0.77671  0.19144  0.12035  1.0000
  H   H901      1.0  0.79575  0.24694  0.12934  1.0000
  H   H902      1.0  0.80217  0.23358  0.16366  1.0000
  C   C900      1.0  0.71889  0.25688  0.01258  1.0000
  H   H903      1.0  0.87927  0.15421  0.23873  1.0000
  N   N78       1.0  0.86809  0.13784  0.21859  1.0000
  C   C901      1.0  0.56231  0.03814  0.13921  1.0000
  C   C902      1.0  0.69860  0.25880  0.00951  1.0000
  H   H904      1.0  0.55752  0.22782  0.01685  1.0000
  C   C903      1.0  0.56073  0.01744  0.11293  1.0000
  C   C904      1.0  0.56144  0.07079  0.08287  1.0000
  H   H905      1.0  0.80502  0.31068  0.16054  1.0000
  C   C905      1.0  0.68523  0.27154  0.02048  1.0000
  C   C906      1.0  0.69214  0.28250  0.03401  1.0000
  C   C907      1.0  0.71239  0.28052  0.03717  1.0000
  C   C908      1.0  0.72572  0.26742  0.02654  1.0000
  H   H906      1.0  0.67469  0.02200  0.07133  1.0000
  C   C909      1.0  0.83936  0.14910  0.20128  1.0000
  H   H907      1.0  0.68171  0.29270  0.04202  1.0000
  H   H908      1.0  0.74133  0.26565  0.02880  1.0000
  H   H909      1.0  0.73254  0.07331  0.15797  1.0000
  Fe  Fe154     1.0  0.78706  0.13045  0.22634  1.0000
  C   C910      1.0  0.66977  0.11598  0.17320  1.0000
  C   C911      1.0  0.68539  0.11449  0.15798  1.0000
  C   C912      1.0  0.70433  0.11967  0.16060  1.0000
  C   C913      1.0  0.70799  0.12624  0.17847  1.0000
  C   C914      1.0  0.69224  0.12819  0.19350  1.0000
  C   C915      1.0  0.67324  0.12322  0.19080  1.0000
  H   H910      1.0  0.68299  0.10908  0.14431  1.0000
  H   H911      1.0  0.71634  0.11823  0.14880  1.0000
  H   H912      1.0  0.69474  0.13332  0.20728  1.0000
  H   H913      1.0  0.66123  0.12460  0.20262  1.0000
  C   C916      1.0  0.61966  0.13605  0.06683  1.0000
  C   C917      1.0  0.62348  0.14243  0.04660  1.0000
  C   C918      1.0  0.62347  0.16263  0.04007  1.0000
  C   C919      1.0  0.61904  0.17664  0.05365  1.0000
  C   C920      1.0  0.61516  0.17031  0.07390  1.0000
  C   C921      1.0  0.61571  0.15001  0.08054  1.0000
  H   H914      1.0  0.62658  0.13170  0.03592  1.0000
  H   H915      1.0  0.62660  0.16740  0.02450  1.0000
  H   H916      1.0  0.61172  0.18112  0.08448  1.0000
  H   H917      1.0  0.61267  0.14522  0.09617  1.0000
  C   C922      1.0  0.81607  0.32165  0.13106  1.0000
  N   N79       1.0  0.57440  0.20341  0.00436  1.0000
  C   C923      1.0  0.55382  0.10675  0.13030  1.0000
  H   H918      1.0  0.65141  0.02673  0.02598  1.0000
  H   H919      1.0  0.72309  0.20870  0.17177  1.0000
  C   C924      1.0  0.63732  0.01154  0.12822  1.0000
  C   C925      1.0  0.57304  0.22320  0.01086  1.0000
  S   S307      1.0  0.66792  0.03356  0.11338  1.0000
  H   H920      1.0  0.58038  0.10936  0.09798  1.0000
  H   H921      1.0  0.52001  0.01425  0.14672  1.0000
  C   C926      1.0  0.73872  0.20909  0.16498  1.0000
  C   C927      1.0  0.75287  0.22984  0.18539  1.0000
  C   C928      1.0  0.68004  0.07552  0.20741  1.0000
  H   H922      1.0  0.58482  0.03500  0.11453  1.0000
  Fe  Fe155     1.0  0.75538  0.16147  0.24155  1.0000
  H   H923      1.0  0.66363  0.24189  0.05105  1.0000
  H   H924      1.0  0.68030  0.06169  0.21768  1.0000
  H   H925      1.0  0.64245  0.05853  0.00630  1.0000
  C   C929      1.0  0.89168  0.31957  0.00427  1.0000
  H   H926      1.0  0.88020  0.29976  0.07256  1.0000
  C   C930      1.0  0.66170  0.02129  0.06306  1.0000
  H   H927      1.0  0.53363  0.07672  0.12676  1.0000
  S   S308      1.0  0.78828  0.16110  0.23378  1.0000
  H   H928      1.0  0.58526  0.08827  0.07059  1.0000
  H   H929      1.0  0.67769  0.05352  0.14664  1.0000
  H   H930      1.0  0.68796  0.08640  0.21343  1.0000
  H   H931      1.0  0.71718  0.08069  0.19123  1.0000
  H   H932      1.0  0.66268  0.06151  0.17997  1.0000
  C   C931      1.0  0.68649  0.05931  0.15643  1.0000
  H   H933      1.0  0.56724  0.01200  0.09912  1.0000
  H   H934      1.0  0.53733  0.03779  0.16182  1.0000
  H   H935      1.0  0.74410  0.23502  0.07523  1.0000
  H   H936      1.0  0.71393  0.25715  0.08575  1.0000
  C   C932      1.0  0.88438  0.14223  0.22908  1.0000
  C   C933      1.0  0.57353  0.08592  0.08261  1.0000
  C   C934      1.0  0.70854  0.07435  0.18167  1.0000
  H   H937      1.0  0.82255  0.31431  0.00514  1.0000
  C   C935      1.0  0.72988  0.23365  0.07001  1.0000
  C   C936      1.0  0.54404  0.03198  0.14824  1.0000
  C   C937      1.0  0.54443  0.07981  0.11407  1.0000
  N   N80       1.0  0.55624  0.09471  0.11364  1.0000
  C   C938      1.0  0.71293  0.24591  0.07609  1.0000
  H   H938      1.0  0.66965  0.27347  0.01806  1.0000
  S   S309      1.0  0.75431  0.12988  0.23574  1.0000
  H   H939      1.0  0.66434  0.08222  0.20681  1.0000
  N   N81       1.0  0.65695  0.04016  0.05117  1.0000
  C   C939      1.0  0.75867  0.26352  0.17369  1.0000
  H   H940      1.0  0.74164  0.21024  0.05210  1.0000
  C   C940      1.0  0.72851  0.21977  0.05697  1.0000
  H   H941      1.0  0.73987  0.24158  0.13916  1.0000
  H   H942      1.0  0.70921  0.20778  0.03982  1.0000
  H   H943      1.0  0.68181  0.25397  0.07360  1.0000
  C   C941      1.0  0.69479  0.24410  0.06905  1.0000
  S   S310      1.0  0.80812  0.10385  0.23659  1.0000
  H   H944      1.0  0.75085  0.27352  0.14430  1.0000
  C   C942      1.0  0.71015  0.21844  0.05013  1.0000
  H   H945      1.0  0.66803  0.21540  0.05664  1.0000
  C   C943      1.0  0.65702  0.05746  0.05929  1.0000
  H   H946      1.0  0.82536  0.12632  0.19068  1.0000
  H   H947      1.0  0.84946  0.09919  0.20345  1.0000
  C   C944      1.0  0.86655  0.11877  0.21538  1.0000
  C   C945      1.0  0.67814  0.06372  0.17533  1.0000
  N   N82       1.0  0.69363  0.23062  0.05608  1.0000
  C   C946      1.0  0.54669  0.06778  0.09861  1.0000
  H   H948      1.0  0.58316  0.22357  0.02246  1.0000
  C   C947      1.0  0.81057  0.32323  0.15126  1.0000
  C   C948      1.0  0.53417  0.01860  0.13972  1.0000
  H   H949      1.0  0.85618  0.16810  0.21386  1.0000
  C   C949      1.0  0.54237  0.01141  0.12186  1.0000
  C   C950      1.0  0.65640  0.01165  0.11800  1.0000
  H   H950      1.0  0.64296  0.09007  0.02057  1.0000
  H   H951      1.0  0.66562  0.00892  0.05366  1.0000
  C   C951      1.0  0.85120  0.11439  0.20523  1.0000
  C   C952      1.0  0.64660  0.05835  0.02117  1.0000
  H   H952      1.0  0.75379  0.21752  0.19691  1.0000
  C   C953      1.0  0.75265  0.31247  0.00622  1.0000
  H   H953      1.0  0.89844  0.29203  0.02202  1.0000
  H   H954      1.0  0.75901  0.20505  0.24665  1.0000
  H   H955      1.0  0.77586  0.31988  0.03258  1.0000
  H   H956      1.0  0.83028  0.29117  0.01821  1.0000
  H   H957      1.0  0.74887  0.30397  0.02032  1.0000
  H   H958      1.0  0.86482  0.28154  0.02209  1.0000
  S   S311      1.0  0.66286  0.20196  0.00518  1.0000
  C   C954      1.0  0.86822  0.29560  0.01418  1.0000
  C   C955      1.0  0.57973  0.18711  0.01701  1.0000
  C   C956      1.0  0.88011  0.32653  0.05250  1.0000
  C   C957      1.0  0.83918  0.32246  0.05167  1.0000
  H   H959      1.0  0.90626  0.32433  0.00449  1.0000
  C   C958      1.0  0.83415  0.30142  0.00479  1.0000
  H   H960      1.0  0.81480  0.30806  0.12489  1.0000
  N   N83       1.0  0.76352  0.32818  0.00529  1.0000
  H   H961      1.0  0.58713  0.15542  0.02046  1.0000
  C   C959      1.0  0.58212  0.16822  0.01063  1.0000
  H   H962      1.0  0.61669  0.12788  0.99949  1.0000
  S   S312      1.0  0.62922  0.24050  0.99954  1.0000
  H   H963      1.0  0.83223  0.00643  0.42255  1.0000
  H   H964      1.0  0.88072  0.24786  0.35583  1.0000
  Fe  Fe156     1.0  0.89656  0.18663  0.46480  1.0000
  S   S313      1.0  0.89961  0.21735  0.47061  1.0000
  H   H965      1.0  0.85952  0.10128  0.48944  1.0000
  Fe  Fe157     1.0  0.93191  0.18527  0.43360  1.0000
  S   S314      1.0  0.93811  0.21625  0.43729  1.0000
  S   S315      1.0  0.94884  0.16668  0.41048  1.0000
  Fe  Fe158     1.0  0.93254  0.20716  0.47044  1.0000
  H   H966      1.0  0.83805  0.25663  0.46907  1.0000
  Fe  Fe159     1.0  0.90470  0.22338  0.43743  1.0000
  S   S316      1.0  0.88779  0.24939  0.42026  1.0000
  S   S317      1.0  0.92880  0.17578  0.46632  1.0000
  S   S318      1.0  0.89928  0.19319  0.43195  1.0000
  Fe  Fe160     1.0  0.90325  0.09319  0.34791  1.0000
  S   S319      1.0  0.92354  0.09045  0.31964  1.0000
  S   S320      1.0  0.89616  0.11530  0.37062  1.0000
  Fe  Fe161     1.0  0.88220  0.05756  0.34206  1.0000
  S   S321      1.0  0.90035  0.05197  0.31316  1.0000
  S   S322      1.0  0.85927  0.04033  0.36060  1.0000
  Fe  Fe162     1.0  0.92658  0.05728  0.32850  1.0000
  S   S323      1.0  0.95404  0.03538  0.33468  1.0000
  Fe  Fe163     1.0  0.89577  0.08531  0.30639  1.0000
  S   S324      1.0  0.90822  0.06092  0.35783  1.0000
  S   S325      1.0  0.87565  0.08996  0.33415  1.0000
  Fe  Fe164     1.0  0.77072  0.26499  0.32005  1.0000
  S   S326      1.0  0.76434  0.25148  0.35141  1.0000
  S   S327      1.0  0.76564  0.25456  0.29086  1.0000
  Fe  Fe165     1.0  0.78523  0.30110  0.33313  1.0000
  S   S328      1.0  0.78018  0.29051  0.36567  1.0000
  H   H967      1.0  0.89444  0.02038  0.38089  1.0000
  Fe  Fe166     1.0  0.79387  0.26099  0.35659  1.0000
  S   S329      1.0  0.81473  0.23810  0.37350  1.0000
  Fe  Fe167     1.0  0.75122  0.28210  0.35805  1.0000
  S   S330      1.0  0.72251  0.28590  0.37874  1.0000
  S   S331      1.0  0.80115  0.27229  0.32452  1.0000
  S   S332      1.0  0.75532  0.29493  0.32629  1.0000
  C   C960      1.0  0.71567  0.27566  0.31006  1.0000
  H   H968      1.0  0.85012  0.13677  0.49365  1.0000
  Fe  Fe168     1.0  0.87394  0.06278  0.48882  1.0000
  C   C961      1.0  0.81984  0.20555  0.43615  1.0000
  C   C962      1.0  0.87601  0.14632  0.47537  1.0000
  C   C963      1.0  0.78958  0.05045  0.45851  1.0000
  C   C964      1.0  0.84489  0.00461  0.36277  1.0000
  N   N84       1.0  0.79299  0.03128  0.48999  1.0000
  H   H969      1.0  0.87850  0.00140  0.38803  1.0000
  H   H970      1.0  0.91082  0.17055  0.36480  1.0000
  H   H971      1.0  0.79423  0.01875  0.46270  1.0000
  H   H972      1.0  0.68576  0.26739  0.37689  1.0000
  C   C965      1.0  0.81348  0.22529  0.43038  1.0000
  C   C966      1.0  0.88790  0.21614  0.35969  1.0000
  H   H973      1.0  0.85427  0.03220  0.41961  1.0000
  C   C967      1.0  0.91273  0.00570  0.34905  1.0000
  C   C968      1.0  0.79452  0.32301  0.28414  1.0000
  C   C969      1.0  0.89653  0.18029  0.36610  1.0000
  H   H974      1.0  0.85356  0.06190  0.39488  1.0000
  H   H975      1.0  0.86637  0.02882  0.32077  1.0000
  H   H976      1.0  0.79053  0.30858  0.29040  1.0000
  C   C970      1.0  0.70382  0.30604  0.37577  1.0000
  C   C971      1.0  0.70369  0.31893  0.35829  1.0000
  H   H977      1.0  0.50685  0.31176  0.47810  1.0000
  H   H978      1.0  0.96100  0.02685  0.29297  1.0000
  C   C972      1.0  0.98041  0.00175  0.33345  1.0000
  C   C973      1.0  0.68781  0.30815  0.39069  1.0000
  H   H979      1.0  0.71587  0.31742  0.34668  1.0000
  C   C974      1.0  0.79598  0.32803  0.26352  1.0000
  C   C975      1.0  0.85637  0.99993  0.32279  1.0000
  C   C976      1.0  0.69933  0.28979  0.31291  1.0000
  H   H980      1.0  0.83529  0.09024  0.30542  1.0000
  H   H981      1.0  0.81316  0.19385  0.43085  1.0000
  H   H982      1.0  0.85564  0.13601  0.26799  1.0000
  H   H983      1.0  0.66839  0.28619  0.36648  1.0000
  H   H984      1.0  0.68770  0.29812  0.40418  1.0000
  N   N85       1.0  0.90005  0.20068  0.36781  1.0000
  C   C977      1.0  0.86275  0.10438  0.27014  1.0000
  C   C978      1.0  0.88665  0.10632  0.47065  1.0000
  H   H985      1.0  0.81722  0.07996  0.29396  1.0000
  H   H986      1.0  0.87567  0.21349  0.35184  1.0000
  H   H987      1.0  0.84808  0.26415  0.44385  1.0000
  C   C979      1.0  0.89323  0.14045  0.46331  1.0000
  C   C980      1.0  0.89860  0.12049  0.46096  1.0000
  H   H988      1.0  0.98551  0.21436  0.47990  1.0000
  H   H989      1.0  0.90267  0.15124  0.45598  1.0000
  H   H990      1.0  0.91228  0.11602  0.45206  1.0000
  C   C981      1.0  0.86781  0.24627  0.40668  1.0000
  C   C982      1.0  0.86297  0.22751  0.40425  1.0000
  C   C983      1.0  0.84712  0.22541  0.39349  1.0000
  C   C984      1.0  0.83557  0.24202  0.38527  1.0000
  C   C985      1.0  0.84042  0.26087  0.38747  1.0000
  C   C986      1.0  0.85654  0.26296  0.39806  1.0000
  H   H991      1.0  0.87141  0.21452  0.41054  1.0000
  H   H992      1.0  0.84351  0.21077  0.39186  1.0000
  H   H993      1.0  0.83166  0.27382  0.38116  1.0000
  H   H994      1.0  0.86017  0.27759  0.39970  1.0000
  C   C987      1.0  0.93503  0.15087  0.40020  1.0000
  C   C988      1.0  0.94335  0.14127  0.38359  1.0000
  C   C989      1.0  0.93192  0.12970  0.37454  1.0000
  C   C990      1.0  0.91208  0.12790  0.38202  1.0000
  C   C991      1.0  0.90398  0.13717  0.39882  1.0000
  C   C992      1.0  0.91542  0.14844  0.40792  1.0000
  H   H995      1.0  0.95856  0.14300  0.37756  1.0000
  H   H996      1.0  0.93830  0.12261  0.36157  1.0000
  H   H997      1.0  0.88869  0.13574  0.40480  1.0000
  H   H998      1.0  0.90899  0.15523  0.42093  1.0000
  C   C993      1.0  0.75119  0.19413  0.27708  1.0000
  C   C994      1.0  0.91795  0.99888  0.33044  1.0000
  C   C995      1.0  0.76249  0.22642  0.26650  1.0000
  C   C996      1.0  0.76102  0.23071  0.28626  1.0000
  C   C997      1.0  0.75503  0.21643  0.30150  1.0000
  C   C998      1.0  0.74988  0.19830  0.29688  1.0000
  C   C999      1.0  0.75787  0.20812  0.26193  1.0000
  C   C1000     1.0  0.67727  0.27186  0.36384  1.0000
  H   H999      1.0  0.75405  0.21944  0.31678  1.0000
  H   H1000     1.0  0.74480  0.18749  0.30869  1.0000
  C   C1001     1.0  0.98583  0.21414  0.49572  1.0000
  H   H1001     1.0  0.86588  0.07284  0.26956  1.0000
  C   C1002     1.0  0.85689  0.08662  0.26586  1.0000
  H   H1002     1.0  0.80207  0.22904  0.42028  1.0000
  S   S333      1.0  0.74410  0.17151  0.27164  1.0000
  H   H1003     1.0  0.92924  0.22598  0.39017  1.0000
  C   C1003     1.0  0.68694  0.28850  0.33081  1.0000
  H   H1004     1.0  0.88905  0.17922  0.35272  1.0000
  C   C1004     1.0  0.89070  0.23564  0.36183  1.0000
  C   C1005     1.0  0.86888  0.11219  0.48202  1.0000
  S   S334      1.0  0.88596  0.10507  0.27916  1.0000
  C   C1006     1.0  0.70699  0.25987  0.34293  1.0000
  C   C1007     1.0  0.91786  0.22337  0.38121  1.0000
  N   N86       1.0  0.80972  0.11025  0.29907  1.0000
  C   C1008     1.0  0.79351  0.11275  0.28855  1.0000
  C   C1009     1.0  0.81674  0.12623  0.30507  1.0000
  C   C1010     1.0  0.78402  0.13166  0.28363  1.0000
  C   C1011     1.0  0.80766  0.14537  0.30029  1.0000
  C   C1012     1.0  0.79118  0.14804  0.28952  1.0000
  C   C1013     1.0  0.81900  0.09029  0.30486  1.0000
  H   H1005     1.0  0.78800  0.10015  0.28359  1.0000
  H   H1006     1.0  0.82958  0.12424  0.31342  1.0000
  H   H1007     1.0  0.77120  0.13365  0.27526  1.0000
  H   H1008     1.0  0.81331  0.15805  0.30492  1.0000
  H   H1009     1.0  0.78392  0.16278  0.28572  1.0000
  H   H1010     1.0  0.72553  0.27643  0.29631  1.0000
  H   H1011     1.0  0.81215  0.08459  0.31968  1.0000
  H   H1012     1.0  0.88709  0.17455  0.37945  1.0000
  N   N87       1.0  0.89218  0.07013  0.41867  1.0000
  C   C1014     1.0  0.89273  0.05377  0.43230  1.0000
  C   C1015     1.0  0.87825  0.07313  0.40545  1.0000
  C   C1016     1.0  0.87911  0.03989  0.43284  1.0000
  C   C1017     1.0  0.86451  0.05949  0.40549  1.0000
  C   C1018     1.0  0.86498  0.04278  0.41928  1.0000
  C   C1019     1.0  0.90615  0.08490  0.41838  1.0000
  H   H1013     1.0  0.90351  0.05152  0.44306  1.0000
  H   H1014     1.0  0.87766  0.08616  0.39479  1.0000
  C   C1020     1.0  0.79214  0.03221  0.46999  1.0000
  S   S335      1.0  0.87102  0.17102  0.48017  1.0000
  H   H1015     1.0  0.78949  0.05106  0.44259  1.0000
  H   H1016     1.0  0.91396  0.08778  0.40324  1.0000
  H   H1017     1.0  0.89793  0.09893  0.42291  1.0000
  H   H1018     1.0  0.91760  0.08011  0.42879  1.0000
  C   C1021     1.0  0.86354  0.13226  0.48439  1.0000
  H   H1019     1.0  0.90758  0.25423  0.37521  1.0000
  N   N88       1.0  0.83777  0.23560  0.44872  1.0000
  C   C1022     1.0  0.96869  0.01628  0.32230  1.0000
  H   H1020     1.0  0.91937  0.01831  0.35249  1.0000
  S   S336      1.0  0.89492  0.08134  0.46962  1.0000
  H   H1021     1.0  0.69633  0.30169  0.30135  1.0000
  H   H1022     1.0  0.86244  0.24648  0.45899  1.0000
  H   H1023     1.0  0.84020  0.18567  0.45308  1.0000
  S   S337      1.0  0.84256  0.06282  0.48244  1.0000
  C   C1023     1.0  0.84693  0.25149  0.45560  1.0000
  C   C1024     1.0  0.82264  0.24022  0.43688  1.0000
  C   C1025     1.0  0.91477  0.20408  0.37859  1.0000
  Fe  Fe169     1.0  0.84848  0.02958  0.48720  1.0000
  C   C1026     1.0  0.96978  0.01572  0.30180  1.0000
  H   H1024     1.0  0.67429  0.29956  0.33296  1.0000
  S   S338      1.0  0.83870  0.01679  0.46065  1.0000
  H   H1025     1.0  0.87930  0.02713  0.44391  1.0000
  H   H1026     1.0  0.85567  0.21254  0.46433  1.0000
  H   H1027     1.0  0.81799  0.25552  0.43184  1.0000
  C   C1027     1.0  0.83506  0.20097  0.44848  1.0000
  C   C1028     1.0  0.84383  0.21628  0.45477  1.0000
  H   H1028     1.0  0.84040  0.00639  0.37825  1.0000
  H   H1029     1.0  0.97971  0.00204  0.34932  1.0000
  H   H1030     1.0  0.73233  0.24972  0.32308  1.0000
  C   C1029     1.0  0.85115  0.12219  0.26482  1.0000
  H   H1031     1.0  0.78589  0.08210  0.45896  1.0000
  C   C1030     1.0  0.90578  0.23923  0.37269  1.0000
  H   H1032     1.0  0.71036  0.24834  0.35474  1.0000
  H   H1033     1.0  0.92409  0.19184  0.38544  1.0000
  C   C1031     1.0  0.89400  0.00411  0.38207  1.0000
  C   C1032     1.0  0.85401  0.01951  0.35043  1.0000
  C   C1033     1.0  0.85960  0.01725  0.33041  1.0000
  N   N89       1.0  0.69091  0.27368  0.34555  1.0000
  H   H1034     1.0  0.66696  0.26068  0.36298  1.0000
  C   C1034     1.0  0.71953  0.26061  0.32514  1.0000
  C   C1035     1.0  0.67165  0.32277  0.38805  1.0000
  C   C1036     1.0  0.78829  0.06675  0.48810  1.0000
  H   H1035     1.0  0.76716  0.23736  0.25465  1.0000
  S   S339      1.0  0.88065  0.02991  0.49192  1.0000
  C   C1037     1.0  0.78765  0.06782  0.46767  1.0000
  H   H1036     1.0  0.81183  0.00502  0.49671  1.0000
  H   H1037     1.0  0.92833  0.00633  0.31960  1.0000
  H   H1038     1.0  0.55207  0.32917  0.47753  1.0000
  C   C1038     1.0  0.98293  0.00116  0.29254  1.0000
  H   H1039     1.0  0.86091  0.99808  0.30734  1.0000
  H   H1040     1.0  0.65914  0.32385  0.39937  1.0000
  C   C1039     1.0  0.83993  0.08674  0.25587  1.0000
  H   H1041     1.0  0.61749  0.32850  0.48908  1.0000
  C   C1040     1.0  0.83401  0.12228  0.25505  1.0000
  H   H1042     1.0  0.78703  0.08017  0.49537  1.0000
  H   H1043     1.0  0.98407  0.00121  0.27660  1.0000
  H   H1044     1.0  0.83583  0.07294  0.25216  1.0000
  C   C1041     1.0  0.82852  0.10454  0.25025  1.0000
  H   H1045     1.0  0.82535  0.13609  0.25080  1.0000
  H   H1046     1.0  0.79316  0.31737  0.25398  1.0000
  H   H1047     1.0  0.93336  0.10711  0.49807  1.0000
  C   C1042     1.0  0.90407  0.10805  0.51403  1.0000
  S   S340      1.0  0.98556  0.06509  0.65097  1.0000
  Fe  Fe170     1.0  0.96705  0.05979  0.60040  1.0000
  S   S341      1.0  0.95430  0.04447  0.62917  1.0000
  S   S342      1.0  0.95585  0.06237  0.57024  1.0000
  Fe  Fe171     1.0  0.95491  0.07352  0.64148  1.0000
  S   S343      1.0  0.92736  0.08855  0.65824  1.0000
  Fe  Fe172     1.0  0.98647  0.03748  0.63571  1.0000
  Fe  Fe173     1.0  0.70089  0.32075  0.55726  1.0000
  S   S344      1.0  0.96558  0.08912  0.61223  1.0000
  C   C1043     1.0  0.96826  0.21237  0.50843  1.0000
  C   C1044     1.0  0.98711  0.21378  0.53674  1.0000
  C   C1045     1.0  0.53237  0.31815  0.62036  1.0000
  C   C1046     1.0  0.92948  0.04854  0.69032  1.0000
  Fe  Fe174     1.0  0.83488  0.06273  0.51536  1.0000
  S   S345      1.0  0.86597  0.06567  0.52109  1.0000
  S   S346      1.0  0.80813  0.08185  0.52872  1.0000
  N   N90       1.0  0.78411  0.24642  0.55320  1.0000
  C   C1047     1.0  0.58893  0.30048  0.63020  1.0000
  Fe  Fe175     1.0  0.86970  0.03262  0.52403  1.0000
  S   S347      1.0  0.88465  0.01834  0.55073  1.0000
  H   H1048     1.0  0.98267  0.12012  0.62465  1.0000
  S   S348      1.0  0.83776  0.02944  0.51997  1.0000
  Fe  Fe176     1.0  0.89738  0.22002  0.74161  1.0000
  C   C1048     1.0  0.92137  0.11621  0.50566  1.0000
  H   H1049     1.0  0.72812  0.20439  0.65237  1.0000
  Fe  Fe177     1.0  0.88479  0.21950  0.69990  1.0000
  S   S349      1.0  0.87757  0.18821  0.70510  1.0000
  S   S350      1.0  0.88125  0.23882  0.67131  1.0000
  C   C1049     1.0  0.56674  0.18398  0.72948  1.0000
  Fe  Fe178     1.0  0.90632  0.18259  0.71902  1.0000
  S   S351      1.0  0.93119  0.15844  0.71110  1.0000
  S   S352      1.0  0.86852  0.22842  0.72838  1.0000
  S   S353      1.0  0.91439  0.21387  0.71224  1.0000
  Fe  Fe179     1.0  0.79424  0.16033  0.60958  1.0000
  S   S354      1.0  0.79263  0.18915  0.58999  1.0000
  S   S355      1.0  0.81451  0.13363  0.59902  1.0000
  Fe  Fe180     1.0  0.77278  0.17995  0.64575  1.0000
  S   S356      1.0  0.77040  0.20996  0.62872  1.0000
  S   S357      1.0  0.76098  0.18231  0.67792  1.0000
  Fe  Fe181     1.0  0.76142  0.19479  0.60463  1.0000
  S   S358      1.0  0.73473  0.20900  0.58934  1.0000
  Fe  Fe182     1.0  0.80165  0.20188  0.61591  1.0000
  S   S359      1.0  0.82247  0.22549  0.61010  1.0000
  S   S360      1.0  0.76184  0.16474  0.62231  1.0000
  S   S361      1.0  0.80515  0.17313  0.63490  1.0000
  Fe  Fe183     1.0  0.65850  0.16157  0.73721  1.0000
  S   S362      1.0  0.62726  0.16765  0.72891  1.0000
  S   S363      1.0  0.68160  0.14648  0.71577  1.0000
  H   H1050     1.0  0.92428  0.26116  0.73557  1.0000
  Fe  Fe184     1.0  0.99613  0.07885  0.62075  1.0000
  H   H1051     1.0  0.78771  0.27721  0.54816  1.0000
  H   H1052     1.0  0.90408  0.17302  0.53197  1.0000
  C   C1050     1.0  0.59371  0.25622  0.70610  1.0000
  C   C1051     1.0  0.89033  0.14004  0.52371  1.0000
  C   C1052     1.0  0.93483  0.03185  0.68011  1.0000
  C   C1053     1.0  0.73825  0.17308  0.68736  1.0000
  C   C1054     1.0  0.73253  0.15636  0.68062  1.0000
  C   C1055     1.0  0.71511  0.14838  0.68950  1.0000
  C   C1056     1.0  0.70303  0.15735  0.70477  1.0000
  C   C1057     1.0  0.70837  0.17452  0.71100  1.0000
  C   C1058     1.0  0.72611  0.18218  0.70252  1.0000
  H   H1053     1.0  0.74189  0.14915  0.66906  1.0000
  H   H1054     1.0  0.71105  0.13508  0.68462  1.0000
  H   H1055     1.0  0.69912  0.18162  0.72267  1.0000
  H   H1056     1.0  0.73047  0.19514  0.70778  1.0000
  C   C1059     1.0  0.73156  0.23504  0.58426  1.0000
  C   C1060     1.0  0.71545  0.24412  0.57422  1.0000
  H   H1057     1.0  0.59793  0.25210  0.69126  1.0000
  C   C1061     1.0  0.74558  0.24669  0.58883  1.0000
  H   H1058     1.0  0.70452  0.23523  0.57065  1.0000
  H   H1059     1.0  0.99493  0.27872  0.54133  1.0000
  H   H1060     1.0  0.75798  0.23992  0.59662  1.0000
  C   C1062     1.0  0.86574  0.23342  0.65423  1.0000
  C   C1063     1.0  0.86235  0.24751  0.63811  1.0000
  C   C1064     1.0  0.84941  0.24455  0.62456  1.0000
  C   C1065     1.0  0.83966  0.22746  0.62693  1.0000
  C   C1066     1.0  0.84337  0.21296  0.64275  1.0000
  C   C1067     1.0  0.85646  0.21594  0.65643  1.0000
  H   H1061     1.0  0.86956  0.26097  0.63624  1.0000
  H   H1062     1.0  0.84672  0.25575  0.61232  1.0000
  H   H1063     1.0  0.83602  0.19962  0.64457  1.0000
  H   H1064     1.0  0.85912  0.20489  0.66874  1.0000
  C   C1068     1.0  0.81251  0.12124  0.57803  1.0000
  C   C1069     1.0  0.82973  0.11101  0.56904  1.0000
  C   C1070     1.0  0.82864  0.09918  0.55378  1.0000
  C   C1071     1.0  0.81025  0.09745  0.54725  1.0000
  C   C1072     1.0  0.79308  0.10818  0.55579  1.0000
  C   C1073     1.0  0.79418  0.12005  0.57109  1.0000
  H   H1065     1.0  0.84402  0.11226  0.57393  1.0000
  H   H1066     1.0  0.84199  0.09133  0.54718  1.0000
  H   H1067     1.0  0.77879  0.10704  0.55082  1.0000
  H   H1068     1.0  0.78078  0.12776  0.57791  1.0000
  H   H1069     1.0  0.62583  0.28134  0.65860  1.0000
  H   H1070     1.0  0.75550  0.27579  0.58529  1.0000
  H   H1071     1.0  0.97343  0.15578  0.62780  1.0000
  H   H1072     1.0  0.73820  0.15371  0.73588  1.0000
  C   C1074     1.0  0.92881  0.10900  0.67149  1.0000
  C   C1075     1.0  0.94697  0.11333  0.67668  1.0000
  C   C1076     1.0  0.94738  0.12836  0.68899  1.0000
  C   C1077     1.0  0.92976  0.13968  0.69567  1.0000
  C   C1078     1.0  0.91167  0.13575  0.68997  1.0000
  C   C1079     1.0  0.91118  0.12031  0.67816  1.0000
  H   H1073     1.0  0.96066  0.10475  0.67169  1.0000
  H   H1074     1.0  0.96146  0.13128  0.69331  1.0000
  H   H1075     1.0  0.89799  0.14431  0.69504  1.0000
  H   H1076     1.0  0.89704  0.11702  0.67433  1.0000
  C   C1080     1.0  0.93670  0.04919  0.56498  1.0000
  C   C1081     1.0  0.92925  0.03404  0.57836  1.0000
  C   C1082     1.0  0.91344  0.02443  0.57378  1.0000
  C   C1083     1.0  0.90505  0.02989  0.55585  1.0000
  C   C1084     1.0  0.91265  0.04493  0.54246  1.0000
  C   C1085     1.0  0.92839  0.05452  0.54703  1.0000
  H   H1077     1.0  0.93568  0.02971  0.59216  1.0000
  H   H1078     1.0  0.90771  0.01271  0.58414  1.0000
  H   H1079     1.0  0.90662  0.04897  0.52844  1.0000
  H   H1080     1.0  0.93422  0.06609  0.53655  1.0000
  C   C1086     1.0  0.76371  0.27020  0.53349  1.0000
  H   H1081     1.0  0.66134  0.16922  0.67840  1.0000
  C   C1087     1.0  0.79984  0.24198  0.56649  1.0000
  H   H1082     1.0  0.79153  0.20867  0.67024  1.0000
  C   C1088     1.0  0.81650  0.24848  0.67096  1.0000
  S   S364      1.0  0.56309  0.32183  0.67486  1.0000
  H   H1083     1.0  0.91459  0.05615  0.68977  1.0000
  H   H1084     1.0  0.94916  0.08269  0.70938  1.0000
  C   C1089     1.0  0.00012  0.32655  0.74315  1.0000
  H   H1085     1.0  0.74752  0.22472  0.53753  1.0000
  H   H1086     1.0  0.96895  0.17188  0.69014  1.0000
  C   C1090     1.0  0.72849  0.27599  0.57167  1.0000
  H   H1087     1.0  0.85201  0.06599  0.57774  1.0000
  H   H1088     1.0  0.95851  0.00933  0.67233  1.0000
  H   H1089     1.0  0.87691  0.06629  0.56568  1.0000
  H   H1090     1.0  0.79338  0.24345  0.58204  1.0000
  H   H1091     1.0  0.60012  0.31844  0.58292  1.0000
  N   N91       1.0  0.90754  0.14782  0.51589  1.0000
  C   C1091     1.0  0.75689  0.23613  0.53893  1.0000
  S   S365      1.0  0.72949  0.30049  0.56038  1.0000
  H   H1092     1.0  0.51385  0.30345  0.60464  1.0000
  H   H1093     1.0  0.97258  0.05161  0.70863  1.0000
  S   S366      1.0  0.52918  0.30226  0.64222  1.0000
  C   C1092     1.0  0.92287  0.13624  0.50671  1.0000
  H   H1094     1.0  0.89976  0.17801  0.50620  1.0000
  C   C1093     1.0  0.56998  0.20248  0.73441  1.0000
  S   S367      1.0  0.63697  0.32467  0.52472  1.0000
  N   N92       1.0  0.81096  0.21180  0.69177  1.0000
  C   C1094     1.0  0.80838  0.19242  0.70280  1.0000
  H   H1095     1.0  0.83109  0.21859  0.71100  1.0000
  H   H1096     1.0  0.82313  0.18382  0.70443  1.0000
  H   H1097     1.0  0.80072  0.19432  0.71785  1.0000
  H   H1098     1.0  0.79946  0.18358  0.69524  1.0000
  N   N93       1.0  0.95346  0.18437  0.66577  1.0000
  C   C1095     1.0  0.94184  0.17313  0.65770  1.0000
  C   C1096     1.0  0.94746  0.20391  0.66748  1.0000
  C   C1097     1.0  0.92371  0.18143  0.65104  1.0000
  C   C1098     1.0  0.92952  0.21276  0.66078  1.0000
  C   C1099     1.0  0.91757  0.20140  0.65256  1.0000
  H   H1099     1.0  0.94642  0.15758  0.65661  1.0000
  H   H1100     1.0  0.95649  0.21272  0.67423  1.0000
  H   H1101     1.0  0.91442  0.17239  0.64494  1.0000
  H   H1102     1.0  0.92468  0.22823  0.66229  1.0000
  H   H1103     1.0  0.90350  0.20806  0.64756  1.0000
  Fe  Fe185     1.0  0.86370  0.19646  0.73505  1.0000
  S   S368      1.0  0.55962  0.30123  0.73200  1.0000
  C   C1100     1.0  0.80377  0.23646  0.66476  1.0000
  H   H1104     1.0  0.57281  0.30232  0.63099  1.0000
  H   H1105     1.0  0.88807  0.10498  0.63433  1.0000
  C   C1101     1.0  0.67557  0.21348  0.68548  1.0000
  H   H1106     1.0  0.72201  0.18308  0.64278  1.0000
  H   H1107     1.0  0.70181  0.27127  0.55963  1.0000
  C   C1102     1.0  0.82325  0.22361  0.69811  1.0000
  C   C1103     1.0  0.89846  0.08505  0.61229  1.0000
  S   S369      1.0  0.83191  0.19225  0.74729  1.0000
  C   C1104     1.0  0.80115  0.21805  0.67541  1.0000
  C   C1105     1.0  0.52233  0.31592  0.60424  1.0000
  C   C1106     1.0  0.77958  0.26544  0.54508  1.0000
  C   C1107     1.0  0.69265  0.21338  0.67180  1.0000
  H   H1108     1.0  0.65103  0.19738  0.69846  1.0000
  C   C1108     1.0  0.61868  0.28853  0.64587  1.0000
  H   H1109     1.0  0.83668  0.25104  0.69238  1.0000
  C   C1109     1.0  0.93711  0.07278  0.71134  1.0000
  H   H1110     1.0  0.69136  0.16990  0.65411  1.0000
  H   H1111     1.0  0.99024  0.14948  0.56298  1.0000
  N   N94       1.0  0.87332  0.07480  0.59496  1.0000
  C   C1110     1.0  0.85886  0.08595  0.60575  1.0000
  C   C1111     1.0  0.86393  0.09717  0.61988  1.0000
  C   C1112     1.0  0.88387  0.09657  0.62325  1.0000
  C   C1113     1.0  0.86801  0.06300  0.58019  1.0000
  H   H1112     1.0  0.84329  0.08642  0.60341  1.0000
  H   H1113     1.0  0.85241  0.10631  0.62806  1.0000
  C   C1114     1.0  0.95404  0.02217  0.68038  1.0000
  C   C1115     1.0  0.96908  0.21217  0.52898  1.0000
  H   H1114     1.0  0.87116  0.04696  0.58504  1.0000
  H   H1115     1.0  0.95561  0.21087  0.53898  1.0000
  H   H1116     1.0  0.97757  0.16134  0.66724  1.0000
  C   C1116     1.0  0.57543  0.27921  0.72800  1.0000
  C   C1117     1.0  0.68692  0.18231  0.66272  1.0000
  C   C1118     1.0  0.63009  0.29606  0.62894  1.0000
  C   C1119     1.0  0.75223  0.25545  0.53053  1.0000
  H   H1117     1.0  0.94050  0.29173  0.73606  1.0000
  N   N95       1.0  0.60024  0.30784  0.61365  1.0000
  C   C1120     1.0  0.74414  0.26703  0.58240  1.0000
  C   C1121     1.0  0.66982  0.18190  0.67630  1.0000
  H   H1118     1.0  0.92373  0.08181  0.70596  1.0000
  C   C1122     1.0  0.71599  0.19819  0.64634  1.0000
  H   H1119     1.0  0.57536  0.28271  0.69635  1.0000
  C   C1123     1.0  0.96186  0.04609  0.70071  1.0000
  C   C1124     1.0  0.71384  0.26456  0.56804  1.0000
  C   C1125     1.0  0.59797  0.29062  0.64648  1.0000
  C   C1126     1.0  0.97183  0.17525  0.67380  1.0000
  H   H1120     1.0  0.79204  0.04768  0.51492  1.0000
  C   C1127     1.0  0.66416  0.19759  0.68774  1.0000
  C   C1128     1.0  0.77296  0.23185  0.55031  1.0000
  Fe  Fe186     1.0  0.53268  0.32035  0.66644  1.0000
  H   H1121     1.0  0.67121  0.22569  0.69439  1.0000
  C   C1129     1.0  0.89289  0.07430  0.59806  1.0000
  C   C1130     1.0  0.59531  0.24953  0.74146  1.0000
  C   C1131     1.0  0.98888  0.14975  0.62710  1.0000
  C   C1132     1.0  0.58258  0.26702  0.74427  1.0000
  C   C1133     1.0  0.58093  0.27361  0.70893  1.0000
  H   H1122     1.0  0.57065  0.18056  0.71432  1.0000
  H   H1123     1.0  0.70152  0.22573  0.67016  1.0000
  C   C1134     1.0  0.82626  0.24209  0.68779  1.0000
  H   H1124     1.0  0.81930  0.26244  0.66239  1.0000
  H   H1125     1.0  0.73924  0.25920  0.52248  1.0000
  N   N96       1.0  0.69822  0.19782  0.66079  1.0000
  H   H1126     1.0  0.71239  0.20726  0.63235  1.0000
  H   H1127     1.0  0.79660  0.24103  0.65133  1.0000
  H   H1128     1.0  0.64620  0.29504  0.62841  1.0000
  H   H1129     1.0  0.57616  0.21328  0.72316  1.0000
  H   H1130     1.0  0.90432  0.06555  0.58948  1.0000
  C   C1135     1.0  0.60101  0.24413  0.72231  1.0000
  H   H1131     1.0  0.91402  0.08447  0.61481  1.0000
  C   C1136     1.0  0.96766  0.02928  0.69077  1.0000
  H   H1132     1.0  0.98737  0.21364  0.55256  1.0000
  H   H1133     1.0  0.77584  0.21699  0.55754  1.0000
  H   H1134     1.0  0.93374  0.06791  0.72735  1.0000
  H   H1135     1.0  0.98271  0.02192  0.69082  1.0000
  S   S370      1.0  0.99870  0.00847  0.65233  1.0000
  H   H1136     1.0  0.90257  0.09263  0.51285  1.0000
  H   H1137     1.0  0.87783  0.14942  0.53014  1.0000
  S   S371      1.0  0.61699  0.22239  0.71771  1.0000
  H   H1138     1.0  0.58891  0.28495  0.65961  1.0000
  C   C1137     1.0  0.62056  0.30577  0.61289  1.0000
  H   H1139     1.0  0.98376  0.18528  0.67024  1.0000
  S   S372      1.0  0.67093  0.31158  0.56951  1.0000
  C   C1138     1.0  0.90913  0.16885  0.51682  1.0000
  N   N97       1.0  0.94301  0.05557  0.70027  1.0000
  H   H1140     1.0  0.80727  0.22670  0.56574  1.0000
  H   H1141     1.0  0.87458  0.11398  0.52896  1.0000
  H   H1142     1.0  0.51365  0.32911  0.57611  1.0000
  H   H1143     1.0  0.92425  0.02663  0.67178  1.0000
  C   C1139     1.0  0.88840  0.12001  0.52311  1.0000
  H   H1144     1.0  0.81162  0.25214  0.56265  1.0000
  S   S373      1.0  0.51785  0.31717  0.69745  1.0000
  Fe  Fe187     1.0  0.62741  0.19715  0.74014  1.0000
  H   H1145     1.0  0.75957  0.28545  0.52785  1.0000
  H   H1146     1.0  0.57633  0.31325  0.59544  1.0000
  H   H1147     1.0  0.92471  0.17262  0.51307  1.0000
  C   C1140     1.0  0.59049  0.31915  0.59722  1.0000
  H   H1148     1.0  0.97237  0.32378  0.73220  1.0000
  H   H1149     1.0  0.62958  0.31215  0.60006  1.0000
  C   C1141     1.0  0.55560  0.15110  0.73788  1.0000
  Fe  Fe188     1.0  0.54795  0.32117  0.70589  1.0000
  H   H1150     1.0  0.52925  0.27349  0.74754  1.0000
  H   H1151     1.0  0.57011  0.14300  0.73278  1.0000
  S   S374      1.0  0.65945  0.19156  0.74682  1.0000
  S   S375      1.0  0.99767  0.18791  0.62703  1.0000
  N   N98       1.0  0.55890  0.17032  0.74359  1.0000
  H   H1152     1.0  0.54566  0.15311  0.72588  1.0000
  C   C1142     1.0  0.99415  0.12957  0.62509  1.0000
  S   S376      1.0  0.99909  0.05091  0.60603  1.0000
  H   H1153     1.0  0.99949  0.25262  0.54970  1.0000
  H   H1154     1.0  0.79541  0.01301  0.51758  1.0000
  H   H1155     1.0  0.93631  0.14249  0.49998  1.0000
  C   C1143     1.0  0.79659  0.01191  0.50137  1.0000
  S   S377      1.0  0.94482  0.21070  0.49968  1.0000
  C   C1144     1.0  0.79110  0.04826  0.49910  1.0000
  H   H1156     1.0  0.78561  0.00201  0.49869  1.0000
  H   H1157     1.0  0.85894  0.21668  0.77086  1.0000
  H   H1158     1.0  0.80731  0.25426  0.92151  1.0000
  H   H1159     1.0  0.56190  0.17636  0.86038  1.0000
  S   S378      1.0  0.78245  0.23413  0.90161  1.0000
  Fe  Fe189     1.0  0.76840  0.21641  0.88158  1.0000
  S   S379      1.0  0.77823  0.18389  0.88763  1.0000
  S   S380      1.0  0.53367  0.16956  0.81376  1.0000
  Fe  Fe190     1.0  0.74526  0.20833  0.84804  1.0000
  S   S381      1.0  0.75337  0.17551  0.85173  1.0000
  S   S382      1.0  0.72895  0.22122  0.82185  1.0000
  Fe  Fe191     1.0  0.74693  0.17851  0.88433  1.0000
  S   S383      1.0  0.72885  0.16012  0.90834  1.0000
  Fe  Fe192     1.0  0.78382  0.18380  0.85459  1.0000
  S   S384      1.0  0.81270  0.16984  0.83988  1.0000
  S   S385      1.0  0.73643  0.21113  0.88054  1.0000
  S   S386      1.0  0.77627  0.21644  0.84867  1.0000
  Fe  Fe193     1.0  0.64266  0.03619  0.93740  1.0000
  S   S387      1.0  0.67555  0.02869  0.93882  1.0000
  S   S388      1.0  0.62891  0.01857  0.91766  1.0000
  Fe  Fe194     1.0  0.64072  0.06781  0.96493  1.0000
  S   S389      1.0  0.67340  0.06271  0.96834  1.0000
  S   S390      1.0  0.62230  0.09111  0.98164  1.0000
  Fe  Fe195     1.0  0.67717  0.06160  0.93531  1.0000
  S   S391      1.0  0.69923  0.07495  0.91098  1.0000
  Fe  Fe196     1.0  0.66843  0.03051  0.97163  1.0000
  C   C1145     1.0  0.74459  0.16623  0.76177  1.0000
  S   S392      1.0  0.64459  0.06885  0.93172  1.0000
  S   S393      1.0  0.63544  0.03579  0.97042  1.0000
  Fe  Fe197     1.0  0.51792  0.01916  0.83520  1.0000
  Fe  Fe198     1.0  0.51274  0.06433  0.83018  1.0000
  C   C1146     1.0  0.71400  0.15246  0.75929  1.0000
  Fe  Fe199     1.0  0.55341  0.04335  0.82029  1.0000
  S   S394      1.0  0.54233  0.06706  0.83986  1.0000
  H   H1160     1.0  0.51430  0.26952  0.77128  1.0000
  Fe  Fe200     1.0  0.53580  0.04264  0.86339  1.0000
  S   S395      1.0  0.54225  0.04862  0.89366  1.0000
  C   C1147     1.0  0.75095  0.31814  0.97088  1.0000
  C   C1148     1.0  0.57014  0.20135  0.98568  1.0000
  S   S396      1.0  0.54891  0.01852  0.84477  1.0000
  S   S397      1.0  0.52376  0.04192  0.80885  1.0000
  H   H1161     1.0  0.58751  0.14001  0.81480  1.0000
  S   S398      1.0  0.61487  0.18612  0.77086  1.0000
  S   S399      1.0  0.65557  0.17801  0.80753  1.0000
  C   C1149     1.0  0.57974  0.20058  0.91980  1.0000
  C   C1150     1.0  0.57854  0.16605  0.99135  1.0000
  C   C1151     1.0  0.91314  0.26796  0.78428  1.0000
  H   H1162     1.0  0.75203  0.17313  0.93766  1.0000
  C   C1152     1.0  0.92358  0.26785  0.74924  1.0000
  C   C1153     1.0  0.63947  0.14528  0.98416  1.0000
  C   C1154     1.0  0.56310  0.21093  0.91126  1.0000
  H   H1163     1.0  0.53202  0.28737  0.76756  1.0000
  S   S400      1.0  0.81677  0.32693  0.96039  1.0000
  C   C1155     1.0  0.53309  0.12996  0.81265  1.0000
  H   H1164     1.0  0.92161  0.29203  0.79827  1.0000
  S   S401      1.0  0.68201  0.01017  0.99654  1.0000
  H   H1165     1.0  0.54912  0.12934  0.80971  1.0000
  C   C1156     1.0  0.58606  0.07352  0.79375  1.0000
  H   H1166     1.0  0.61768  0.18754  0.82819  1.0000
  H   H1167     1.0  0.56026  0.14824  0.84116  1.0000
  C   C1157     1.0  0.57122  0.10591  0.78114  1.0000
  C   C1158     1.0  0.56931  0.08623  0.78898  1.0000
  H   H1168     1.0  0.55809  0.11546  0.77740  1.0000
  H   H1169     1.0  0.55487  0.08074  0.79096  1.0000
  C   C1159     1.0  0.60444  0.02647  0.91190  1.0000
  C   C1160     1.0  0.59256  0.04132  0.92150  1.0000
  C   C1161     1.0  0.57335  0.04779  0.91604  1.0000
  C   C1162     1.0  0.56609  0.03972  0.90072  1.0000
  C   C1163     1.0  0.57801  0.02490  0.89111  1.0000
  C   C1164     1.0  0.59703  0.01816  0.89683  1.0000
  H   H1170     1.0  0.59813  0.04777  0.93317  1.0000
  H   H1171     1.0  0.56417  0.05919  0.92360  1.0000
  H   H1172     1.0  0.57250  0.01847  0.87942  1.0000
  H   H1173     1.0  0.51428  0.12229  0.85762  1.0000
  C   C1165     1.0  0.70819  0.20963  0.81818  1.0000
  C   C1166     1.0  0.69985  0.19628  0.83303  1.0000
  C   C1167     1.0  0.68341  0.18698  0.82970  1.0000
  C   C1168     1.0  0.67553  0.19068  0.81138  1.0000
  C   C1169     1.0  0.68396  0.20391  0.79648  1.0000
  C   C1170     1.0  0.70017  0.21350  0.79995  1.0000
  H   H1174     1.0  0.70598  0.19331  0.84711  1.0000
  H   H1175     1.0  0.67690  0.17675  0.84126  1.0000
  H   H1176     1.0  0.67790  0.20691  0.78236  1.0000
  H   H1177     1.0  0.70657  0.22388  0.78846  1.0000
  C   C1171     1.0  0.72271  0.13556  0.90919  1.0000
  C   C1172     1.0  0.72732  0.12443  0.89304  1.0000
  C   C1173     1.0  0.72039  0.10569  0.89392  1.0000
  C   C1174     1.0  0.70891  0.09789  0.91094  1.0000
  C   C1175     1.0  0.70496  0.10872  0.92727  1.0000
  C   C1176     1.0  0.71175  0.12748  0.92636  1.0000
  H   H1178     1.0  0.73589  0.13039  0.87978  1.0000
  H   H1179     1.0  0.72376  0.09727  0.88129  1.0000
  H   H1180     1.0  0.69661  0.10261  0.94060  1.0000
  H   H1181     1.0  0.70831  0.13587  0.93902  1.0000
  C   C1177     1.0  0.82690  0.18630  0.77311  1.0000
  C   C1178     1.0  0.84149  0.17607  0.78435  1.0000
  C   C1179     1.0  0.83690  0.17085  0.80478  1.0000
  C   C1180     1.0  0.81785  0.17621  0.81416  1.0000
  C   C1181     1.0  0.80339  0.18688  0.80300  1.0000
  C   C1182     1.0  0.80784  0.19169  0.78248  1.0000
  H   H1182     1.0  0.85616  0.17171  0.77725  1.0000
  H   H1183     1.0  0.84814  0.16264  0.81336  1.0000
  H   H1184     1.0  0.78875  0.19127  0.81019  1.0000
  H   H1185     1.0  0.75429  0.30437  0.89802  1.0000
  H   H1186     1.0  0.62152  0.03799  0.82330  1.0000
  H   H1187     1.0  0.60391  0.08174  0.89223  1.0000
  C   C1183     1.0  0.61701  0.03037  0.83817  1.0000
  C   C1184     1.0  0.50865  0.31539  0.75057  1.0000
  H   H1188     1.0  0.90571  0.26125  0.79785  1.0000
  H   H1189     1.0  0.83373  0.29398  0.99130  1.0000
  H   H1190     1.0  0.56198  0.25370  0.93266  1.0000
  N   N99       1.0  0.61366  0.04464  0.85291  1.0000
  H   H1191     1.0  0.60267  0.20105  0.93924  1.0000
  C   C1185     1.0  0.65560  0.14593  0.96941  1.0000
  Fe  Fe201     1.0  0.65351  0.19327  0.97753  1.0000
  S   S402      1.0  0.65460  0.22323  0.96065  1.0000
  C   C1186     1.0  0.63481  0.11236  0.97699  1.0000
  C   C1187     1.0  0.65096  0.11307  0.96234  1.0000
  C   C1188     1.0  0.66138  0.12971  0.95876  1.0000
  H   H1192     1.0  0.65543  0.10086  0.95362  1.0000
  H   H1193     1.0  0.67382  0.13018  0.94749  1.0000
  C   C1189     1.0  0.56704  0.23882  0.92913  1.0000
  C   C1190     1.0  0.93216  0.29412  0.76722  1.0000
  H   H1194     1.0  0.55430  0.19583  0.78363  1.0000
  S   S403      1.0  0.59567  0.24008  0.95451  1.0000
  S   S404      1.0  0.69100  0.24608  0.99087  1.0000
  C   C1191     1.0  0.62455  0.05911  0.87956  1.0000
  C   C1192     1.0  0.55682  0.23015  0.91606  1.0000
  H   H1195     1.0  0.57587  0.21018  0.85649  1.0000
  N   N100      1.0  0.73398  0.22082  0.94190  1.0000
  C   C1193     1.0  0.71531  0.21812  0.95101  1.0000
  C   C1194     1.0  0.74709  0.20493  0.93712  1.0000
  C   C1195     1.0  0.70953  0.19908  0.95600  1.0000
  C   C1196     1.0  0.74177  0.18571  0.94185  1.0000
  C   C1197     1.0  0.72282  0.18280  0.95128  1.0000
  C   C1198     1.0  0.73969  0.24084  0.93630  1.0000
  H   H1196     1.0  0.70473  0.23070  0.95442  1.0000
  C   C1199     1.0  0.52377  0.11253  0.81472  1.0000
  H   H1197     1.0  0.69479  0.19696  0.96332  1.0000
  C   C1200     1.0  0.91381  0.25902  0.76664  1.0000
  H   H1198     1.0  0.71830  0.16797  0.95452  1.0000
  H   H1199     1.0  0.73849  0.24509  0.92023  1.0000
  H   H1200     1.0  0.60613  0.00663  0.88939  1.0000
  H   H1201     1.0  0.75537  0.24155  0.93907  1.0000
  S   S405      1.0  0.77823  0.32383  0.92018  1.0000
  S   S406      1.0  0.89176  0.18807  0.74973  1.0000
  H   H1202     1.0  0.82344  0.21139  0.84542  1.0000
  H   H1203     1.0  0.60094  0.24043  0.75405  1.0000
  C   C1201     1.0  0.76601  0.29349  0.90301  1.0000
  Fe  Fe202     1.0  0.51849  0.18802  0.83710  1.0000
  H   H1204     1.0  0.90956  0.30832  0.96446  1.0000
  H   H1205     1.0  0.76170  0.20706  0.92941  1.0000
  C   C1202     1.0  0.70725  0.15685  0.77852  1.0000
  H   H1206     1.0  0.80625  0.28896  0.92897  1.0000
  H   H1207     1.0  0.62863  0.01814  0.84195  1.0000
  H   H1208     1.0  0.61797  0.07089  0.79384  1.0000
  S   S407      1.0  0.50481  0.04198  0.85558  1.0000
  C   C1203     1.0  0.56543  0.20686  0.75396  1.0000
  N   N101      1.0  0.85219  0.21830  0.80171  1.0000
  C   C1204     1.0  0.87000  0.20916  0.80720  1.0000
  C   C1205     1.0  0.83571  0.21957  0.81530  1.0000
  C   C1206     1.0  0.87146  0.20032  0.82658  1.0000
  C   C1207     1.0  0.83669  0.21104  0.83485  1.0000
  C   C1208     1.0  0.85462  0.20114  0.84042  1.0000
  C   C1209     1.0  0.85106  0.22707  0.78121  1.0000
  H   H1209     1.0  0.88313  0.20847  0.79645  1.0000
  H   H1210     1.0  0.82153  0.22666  0.81097  1.0000
  H   H1211     1.0  0.88551  0.19273  0.83075  1.0000
  C   C1210     1.0  0.92215  0.28545  0.78457  1.0000
  H   H1212     1.0  0.85532  0.19392  0.85538  1.0000
  C   C1211     1.0  0.58987  0.11326  0.77811  1.0000
  H   H1213     1.0  0.83544  0.23003  0.77748  1.0000
  C   C1212     1.0  0.90770  0.32296  0.95656  1.0000
  N   N102      1.0  0.67505  0.16675  0.90314  1.0000
  C   C1213     1.0  0.68617  0.16101  0.88635  1.0000
  C   C1214     1.0  0.66182  0.15483  0.91358  1.0000
  C   C1215     1.0  0.68426  0.14286  0.87971  1.0000
  C   C1216     1.0  0.65982  0.13640  0.90760  1.0000
  C   C1217     1.0  0.67127  0.13033  0.89064  1.0000
  C   C1218     1.0  0.67856  0.18486  0.91102  1.0000
  H   H1214     1.0  0.69729  0.17005  0.87855  1.0000
  H   H1215     1.0  0.65324  0.15925  0.92705  1.0000
  H   H1216     1.0  0.69365  0.13805  0.86682  1.0000
  H   H1217     1.0  0.65004  0.12659  0.91651  1.0000
  H   H1218     1.0  0.67059  0.11569  0.88636  1.0000
  H   H1219     1.0  0.66460  0.19193  0.91858  1.0000
  H   H1220     1.0  0.68960  0.18111  0.92202  1.0000
  H   H1221     1.0  0.68446  0.19579  0.89909  1.0000
  N   N103      1.0  0.73793  0.17027  0.78072  1.0000
  C   C1219     1.0  0.71955  0.16567  0.78912  1.0000
  H   H1222     1.0  0.74609  0.17802  0.80791  1.0000
  H   H1223     1.0  0.83011  0.31766  0.85226  1.0000
  H   H1224     1.0  0.69251  0.15362  0.78517  1.0000
  H   H1225     1.0  0.70462  0.14561  0.75086  1.0000
  C   C1220     1.0  0.75013  0.18056  0.79162  1.0000
  H   H1226     1.0  0.71425  0.16894  0.80407  1.0000
  H   H1227     1.0  0.51553  0.09123  0.88893  1.0000
  S   S408      1.0  0.62096  0.19727  0.98734  1.0000
  H   H1228     1.0  0.60233  0.20966  0.85053  1.0000
  H   H1229     1.0  0.57847  0.27128  0.75908  1.0000
  C   C1221     1.0  0.74626  0.30715  0.98904  1.0000
  Fe  Fe203     1.0  0.66182  0.23268  0.98947  1.0000
  H   H1230     1.0  0.76620  0.17530  0.78869  1.0000
  H   H1231     1.0  0.56809  0.22108  0.75801  1.0000
  H   H1232     1.0  0.64119  0.03534  0.86510  1.0000
  S   S409      1.0  0.51720  0.17473  0.86856  1.0000
  C   C1222     1.0  0.85822  0.32559  0.99502  1.0000
  S   S410      1.0  0.64876  0.14726  0.76761  1.0000
  Fe  Fe204     1.0  0.61756  0.15595  0.76025  1.0000
  C   C1223     1.0  0.78165  0.25953  0.90512  1.0000
  C   C1224     1.0  0.62903  0.12848  0.98797  1.0000
  C   C1225     1.0  0.58995  0.20926  0.93287  1.0000
  C   C1226     1.0  0.57304  0.15665  0.83840  1.0000
  H   H1233     1.0  0.79654  0.19974  0.77388  1.0000
  H   H1234     1.0  0.62126  0.10595  0.78033  1.0000
  C   C1227     1.0  0.58370  0.22851  0.93762  1.0000
  C   C1228     1.0  0.78019  0.29912  0.91408  1.0000
  H   H1235     1.0  0.58479  0.18571  0.91629  1.0000
  C   C1229     1.0  0.57395  0.17267  0.84909  1.0000
  C   C1230     1.0  0.76682  0.27384  0.89838  1.0000
  H   H1236     1.0  0.58075  0.15153  0.98607  1.0000
  C   C1231     1.0  0.52174  0.14808  0.81488  1.0000
  C   C1232     1.0  0.60487  0.08068  0.79042  1.0000
  S   S411      1.0  0.58360  0.04870  0.80371  1.0000
  Fe  Fe205     1.0  0.64688  0.17792  0.77667  1.0000
  S   S412      1.0  0.52785  0.21672  0.84326  1.0000
  C   C1233     1.0  0.62770  0.04552  0.86547  1.0000
  H   H1237     1.0  0.54411  0.23838  0.90969  1.0000
  C   C1234     1.0  0.79524  0.28490  0.92043  1.0000
  H   H1238     1.0  0.73768  0.29464  0.98985  1.0000
  C   C1235     1.0  0.60460  0.16302  0.82020  1.0000
  H   H1239     1.0  0.59225  0.19499  0.87232  1.0000
  S   S413      1.0  0.66839  0.16698  0.96320  1.0000
  N   N104      1.0  0.58970  0.18373  0.84521  1.0000
  H   H1240     1.0  0.50767  0.12935  0.88255  1.0000
  C   C1236     1.0  0.59018  0.20045  0.85663  1.0000
  C   C1237     1.0  0.60504  0.17896  0.83114  1.0000
  C   C1238     1.0  0.60677  0.10054  0.78274  1.0000
  H   H1241     1.0  0.54870  0.14164  0.75059  1.0000
  S   S414      1.0  0.94462  0.31565  0.76683  1.0000
  H   H1242     1.0  0.63537  0.05917  0.89002  1.0000
  Fe  Fe206     1.0  0.52455  0.20427  0.87559  1.0000
  H   H1243     1.0  0.54883  0.16342  0.77415  1.0000
  C   C1239     1.0  0.59280  0.07095  0.86772  1.0000
  C   C1240     1.0  0.60689  0.07176  0.88079  1.0000
  H   H1244     1.0  0.85825  0.24102  0.77863  1.0000
  C   C1241     1.0  0.58833  0.15201  0.82365  1.0000
  C   C1242     1.0  0.79581  0.26521  0.91616  1.0000
  C   C1243     1.0  0.59657  0.05736  0.85364  1.0000
  H   H1245     1.0  0.57879  0.08035  0.86881  1.0000
  S   S415      1.0  0.55102  0.19903  0.89471  1.0000
  H   H1246     1.0  0.75578  0.26972  0.88993  1.0000
  H   H1247     1.0  0.56564  0.21426  0.97575  1.0000
  H   H1248     1.0  0.58554  0.05672  0.84359  1.0000
  H   H1249     1.0  0.73016  0.25185  0.94494  1.0000
  H   H1250     1.0  0.61676  0.15932  0.80901  1.0000
  H   H1251     1.0  0.53257  0.09866  0.81283  1.0000
  S   S416      1.0  0.90264  0.23666  0.76735  1.0000
  C   C1244     1.0  0.55445  0.17446  0.76282  1.0000
  C   C1245     1.0  0.89265  0.32781  0.94405  1.0000
  Fe  Fe207     1.0  0.62205  0.22788  0.97216  1.0000
  S   S417      1.0  0.87394  0.31220  0.94489  1.0000
  H   H1252     1.0  0.74781  0.19677  0.78728  1.0000
  H   H1253     1.0  0.80235  0.32190  0.87896  1.0000
  H   H1254     1.0  0.60309  0.02362  0.83729  1.0000
  H   H1255     1.0  0.56941  0.18123  0.96380  1.0000
  H   H1256     1.0  0.74637  0.31411  0.95732  1.0000
  H   H1257     1.0  0.63526  0.15750  0.99282  1.0000
  C   C1246     1.0  0.55767  0.19276  0.76830  1.0000
  S   S418      1.0  0.59086  0.13849  0.76886  1.0000
  C   C1247     1.0  0.57226  0.18267  0.97884  1.0000
  H   H1258     1.0  0.95375  0.31612  0.92689  1.0000
  H   H1259     1.0  0.75906  0.17010  0.75499  1.0000
  C   C1248     1.0  0.52103  0.28077  0.76023  1.0000
  H   H1260     1.0  0.57773  0.23416  0.99828  1.0000
  N   N105      1.0  0.50561  0.29582  0.75306  1.0000
  H   H1261     1.0  0.52261  0.31997  0.75366  1.0000
  C   C1249     1.0  0.50311  0.11314  0.81903  1.0000
  C   C1250     1.0  0.73284  0.15705  0.75087  1.0000
  C   C1251     1.0  0.93279  0.28521  0.74957  1.0000
  C   C1252     1.0  0.50182  0.12510  0.86934  1.0000
  H   H1262     1.0  0.93433  0.32893  0.89885  1.0000
  S   S419      1.0  0.74116  0.43053  0.24221  1.0000
  Fe  Fe208     1.0  0.82265  0.50141  0.06397  1.0000
  S   S420      1.0  0.79112  0.49556  0.06197  1.0000
  S   S421      1.0  0.83548  0.52974  0.05059  1.0000
  Fe  Fe209     1.0  0.83134  0.46244  0.08842  1.0000
  S   S422      1.0  0.80076  0.45323  0.08875  1.0000
  S   S423      1.0  0.85450  0.44746  0.10729  1.0000
  Fe  Fe210     1.0  0.80418  0.46452  0.05620  1.0000
  C   C1253     1.0  0.75529  0.42124  0.10271  1.0000
  Fe  Fe211     1.0  0.79036  0.48474  0.09443  1.0000
  S   S424      1.0  0.76534  0.49291  0.11824  1.0000
  S   S425      1.0  0.83581  0.47147  0.05566  1.0000
  S   S426      1.0  0.82066  0.49273  0.09657  1.0000
  C   C1254     1.0  0.69157  0.61811  0.24489  1.0000
  S   S427      1.0  0.77173  0.58553  0.21363  1.0000
  C   C1255     1.0  0.77003  0.33337  0.02351  1.0000
  S   S428      1.0  0.73347  0.56071  0.22764  1.0000
  Fe  Fe212     1.0  0.76556  0.55395  0.21514  1.0000
  S   S429      1.0  0.78232  0.54120  0.18765  1.0000
  Fe  Fe213     1.0  0.74075  0.59172  0.22827  1.0000
  H   H1263     1.0  0.78336  0.62601  0.21268  1.0000
  H   H1264     1.0  0.86337  0.39151  0.00228  1.0000
  H   H1265     1.0  0.82687  0.33684  0.10309  1.0000
  Fe  Fe214     1.0  0.94175  0.48976  0.12371  1.0000
  S   S430      1.0  0.94189  0.49233  0.15596  1.0000
  S   S431      1.0  0.91850  0.50693  0.10612  1.0000
  Fe  Fe215     1.0  0.97654  0.45813  0.12229  1.0000
  S   S432      1.0  0.97978  0.45810  0.15477  1.0000
  C   C1256     1.0  0.85819  0.64434  0.20297  1.0000
  Fe  Fe216     1.0  0.94616  0.45912  0.15913  1.0000
  S   S433      1.0  0.92915  0.43734  0.18063  1.0000
  Fe  Fe217     1.0  0.97532  0.49146  0.14853  1.0000
  C   C1257     1.0  0.98443  0.63377  0.02119  1.0000
  S   S434      1.0  0.94377  0.45683  0.12721  1.0000
  S   S435      1.0  0.97453  0.49118  0.11571  1.0000
  Fe  Fe218     1.0  0.79682  0.38455  0.21718  1.0000
  S   S436      1.0  0.76644  0.39260  0.20724  1.0000
  Fe  Fe219     1.0  0.81068  0.42457  0.20127  1.0000
  S   S437      1.0  0.78081  0.43572  0.19029  1.0000
  S   S438      1.0  0.83404  0.44639  0.19428  1.0000
  Fe  Fe220     1.0  0.76721  0.42154  0.21947  1.0000
  C   C1258     1.0  0.99016  0.63875  0.13400  1.0000
  Fe  Fe221     1.0  0.78251  0.40577  0.17924  1.0000
  C   C1259     1.0  0.70063  0.62876  0.22817  1.0000
  S   S439      1.0  0.81303  0.39579  0.18821  1.0000
  H   H1266     1.0  0.78769  0.57316  0.14159  1.0000
  Fe  Fe222     1.0  0.90861  0.59306  0.09326  1.0000
  C   C1260     1.0  0.86048  0.44301  0.19059  1.0000
  C   C1261     1.0  0.87058  0.45898  0.18145  1.0000
  C   C1262     1.0  0.89150  0.45735  0.17815  1.0000
  C   C1263     1.0  0.90270  0.43980  0.18442  1.0000
  C   C1264     1.0  0.89267  0.42382  0.19389  1.0000
  C   C1265     1.0  0.87164  0.42531  0.19674  1.0000
  H   H1267     1.0  0.86219  0.47279  0.17706  1.0000
  H   H1268     1.0  0.89897  0.46986  0.17121  1.0000
  H   H1269     1.0  0.90121  0.41024  0.19907  1.0000
  H   H1270     1.0  0.86411  0.41297  0.20409  1.0000
  C   C1266     1.0  0.97829  0.43184  0.08400  1.0000
  C   C1267     1.0  0.98174  0.41396  0.07536  1.0000
  C   C1268     1.0  0.96888  0.40961  0.06211  1.0000
  C   C1269     1.0  0.95279  0.42330  0.05716  1.0000
  C   C1270     1.0  0.96229  0.44551  0.07888  1.0000
  C   C1271     1.0  0.69171  0.48269  0.23733  1.0000
  H   H1271     1.0  0.97117  0.39556  0.05605  1.0000
  H   H1272     1.0  0.95963  0.45941  0.08524  1.0000
  C   C1272     1.0  0.64347  0.57247  0.22938  1.0000
  H   H1273     1.0  0.75529  0.33478  0.17069  1.0000
  H   H1274     1.0  0.76225  0.42778  0.05234  1.0000
  S   S440      1.0  0.90919  0.62088  0.07226  1.0000
  H   H1275     1.0  0.99397  0.40323  0.07944  1.0000
  C   C1273     1.0  0.99742  0.59668  0.07335  1.0000
  H   H1276     1.0  0.79384  0.53864  0.07283  1.0000
  Fe  Fe223     1.0  0.91863  0.63431  0.09806  1.0000
  Fe  Fe224     1.0  0.94005  0.38942  0.02763  1.0000
  H   H1277     1.0  0.83915  0.34910  0.03145  1.0000
  C   C1274     1.0  0.91523  0.64797  0.14905  1.0000
  H   H1278     1.0  0.98640  0.65424  0.12943  1.0000
  H   H1279     1.0  0.84185  0.48220  0.13275  1.0000
  H   H1280     1.0  0.88511  0.41441  0.10570  1.0000
  C   C1275     1.0  0.87151  0.46469  0.10767  1.0000
  C   C1276     1.0  0.88338  0.46320  0.12324  1.0000
  C   C1277     1.0  0.89697  0.47698  0.12342  1.0000
  C   C1278     1.0  0.89892  0.49212  0.10795  1.0000
  C   C1279     1.0  0.88609  0.49443  0.09317  1.0000
  C   C1280     1.0  0.87255  0.48063  0.09289  1.0000
  H   H1281     1.0  0.88200  0.45160  0.13529  1.0000
  H   H1282     1.0  0.90595  0.47586  0.13557  1.0000
  H   H1283     1.0  0.88691  0.50662  0.08169  1.0000
  H   H1284     1.0  0.86320  0.48222  0.08099  1.0000
  C   C1281     1.0  0.76960  0.50668  0.13751  1.0000
  C   C1282     1.0  0.78718  0.51551  0.13670  1.0000
  C   C1283     1.0  0.79040  0.52634  0.15200  1.0000
  C   C1284     1.0  0.77619  0.52846  0.16847  1.0000
  C   C1285     1.0  0.75840  0.51986  0.16930  1.0000
  C   C1286     1.0  0.75512  0.50904  0.15382  1.0000
  H   H1285     1.0  0.79831  0.51426  0.12422  1.0000
  H   H1286     1.0  0.80416  0.53299  0.15114  1.0000
  H   H1287     1.0  0.74733  0.52129  0.18196  1.0000
  H   H1288     1.0  0.74139  0.50232  0.15464  1.0000
  C   C1287     1.0  0.82281  0.33783  0.11885  1.0000
  H   H1289     1.0  0.99114  0.60853  0.06316  1.0000
  C   C1288     1.0  0.67216  0.65404  0.22931  1.0000
  C   C1289     1.0  0.87300  0.55993  0.08720  1.0000
  C   C1290     1.0  0.86371  0.54327  0.09556  1.0000
  C   C1291     1.0  0.85267  0.53373  0.08428  1.0000
  C   C1292     1.0  0.85051  0.54084  0.06457  1.0000
  C   C1293     1.0  0.85966  0.55767  0.05618  1.0000
  C   C1294     1.0  0.87113  0.56707  0.06738  1.0000
  H   H1290     1.0  0.84586  0.52088  0.09100  1.0000
  H   H1291     1.0  0.85782  0.56351  0.04100  1.0000
  H   H1292     1.0  0.87798  0.58015  0.06091  1.0000
  C   C1295     1.0  0.94965  0.44125  0.06554  1.0000
  H   H1293     1.0  0.83294  0.58261  0.09274  1.0000
  C   C1296     1.0  0.82402  0.35535  0.12696  1.0000
  C   C1297     1.0  0.98082  0.61411  0.02098  1.0000
  H   H1294     1.0  0.86863  0.63355  0.19489  1.0000
  H   H1295     1.0  0.81550  0.56373  0.07272  1.0000
  H   H1296     1.0  0.92534  0.63695  0.14191  1.0000
  H   H1297     1.0  0.81913  0.58731  0.12743  1.0000
  C   C1298     1.0  0.82221  0.65361  0.20893  1.0000
  H   H1298     1.0  0.98406  0.57436  0.06126  1.0000
  H   H1299     1.0  0.82892  0.36814  0.11756  1.0000
  S   S441      1.0  0.79694  0.41247  0.23133  1.0000
  C   C1299     1.0  0.90527  0.48343  0.04637  1.0000
  H   H1300     1.0  0.99335  0.38532  0.02597  1.0000
  S   S442      1.0  0.79289  0.45172  0.03061  1.0000
  H   H1301     1.0  0.53282  0.62980  0.22006  1.0000
  C   C1300     1.0  0.80903  0.41221  0.03168  1.0000
  C   C1301     1.0  0.77178  0.37642  0.14488  1.0000
  N   N106      1.0  0.89630  0.41093  0.13399  1.0000
  C   C1302     1.0  0.91283  0.40914  0.14395  1.0000
  H   H1302     1.0  0.81380  0.41386  0.04589  1.0000
  C   C1303     1.0  0.87661  0.41065  0.14537  1.0000
  H   H1303     1.0  0.91142  0.40787  0.16000  1.0000
  H   H1304     1.0  0.76309  0.40102  0.08035  1.0000
  H   H1305     1.0  0.87554  0.39626  0.15457  1.0000
  H   H1306     1.0  0.87414  0.42261  0.15530  1.0000
  H   H1307     1.0  0.86439  0.41315  0.13562  1.0000
  H   H1308     1.0  0.92968  0.54096  0.04647  1.0000
  H   H1309     1.0  0.74173  0.43347  0.13731  1.0000
  H   H1310     1.0  0.90818  0.46751  0.04943  1.0000
  C   C1304     1.0  0.79895  0.42835  0.02117  1.0000
  H   H1311     1.0  0.94856  0.41060  0.10482  1.0000
  H   H1312     1.0  0.93724  0.45181  0.06190  1.0000
  Fe  Fe225     1.0  0.92561  0.34845  0.03200  1.0000
  S   S443      1.0  0.77745  0.40027  0.14820  1.0000
  C   C1305     1.0  0.83483  0.50876  0.17221  1.0000
  C   C1306     1.0  0.86823  0.34072  0.04139  1.0000
  H   H1313     1.0  0.99019  0.58736  0.00716  1.0000
  H   H1314     1.0  0.77382  0.34579  0.10843  1.0000
  C   C1307     1.0  0.76461  0.36367  0.16095  1.0000
  H   H1315     1.0  0.62750  0.62069  0.22605  1.0000
  C   C1308     1.0  0.81437  0.61529  0.20647  1.0000
  C   C1309     1.0  0.80250  0.64906  0.21154  1.0000
  C   C1310     1.0  0.81249  0.39369  0.02403  1.0000
  H   H1316     1.0  0.96333  0.62967  0.12568  1.0000
  H   H1317     1.0  0.99842  0.63059  0.09028  1.0000
  C   C1311     1.0  0.66277  0.64309  0.24556  1.0000
  N   N107      1.0  0.91306  0.51612  0.04973  1.0000
  C   C1312     1.0  0.89745  0.52414  0.03945  1.0000
  C   C1313     1.0  0.91715  0.49602  0.05316  1.0000
  C   C1314     1.0  0.99332  0.57735  0.07223  1.0000
  H   H1318     1.0  0.81962  0.33831  0.18846  1.0000
  C   C1315     1.0  0.69095  0.64681  0.22055  1.0000
  H   H1319     1.0  0.69244  0.59288  0.20615  1.0000
  H   H1320     1.0  0.77642  0.53291  0.09388  1.0000
  H   H1321     1.0  0.92912  0.48962  0.06188  1.0000
  S   S444      1.0  0.88509  0.57210  0.10281  1.0000
  C   C1316     1.0  0.67753  0.56660  0.21499  1.0000
  S   S445      1.0  0.96962  0.58664  0.12950  1.0000
  C   C1317     1.0  0.92450  0.52936  0.05807  1.0000
  C   C1318     1.0  0.90302  0.66168  0.13780  1.0000
  Fe  Fe226     1.0  0.94222  0.61118  0.06509  1.0000
  N   N108      1.0  0.75083  0.44053  0.10646  1.0000
  C   C1319     1.0  0.75018  0.45532  0.09114  1.0000
  H   H1322     1.0  0.76300  0.44728  0.13163  1.0000
  C   C1320     1.0  0.75412  0.45094  0.07145  1.0000
  S   S446      1.0  0.80230  0.35260  0.22933  1.0000
  H   H1323     1.0  0.91845  0.41412  0.08676  1.0000
  C   C1321     1.0  0.72318  0.46549  0.22372  1.0000
  H   H1324     1.0  0.74701  0.47065  0.09407  1.0000
  S   S447      1.0  0.90482  0.66220  0.11159  1.0000
  H   H1325     1.0  0.75415  0.46269  0.05929  1.0000
  H   H1326     1.0  0.92543  0.63898  0.17778  1.0000
  H   H1327     1.0  0.65873  0.54350  0.22539  1.0000
  C   C1322     1.0  0.79267  0.42576  0.00282  1.0000
  C   C1323     1.0  0.81851  0.50016  0.18249  1.0000
  S   S448      1.0  0.96100  0.60344  0.03641  1.0000
  N   N109      1.0  0.79268  0.55723  0.09602  1.0000
  C   C1324     1.0  0.78450  0.56045  0.11480  1.0000
  C   C1325     1.0  0.79389  0.57125  0.12643  1.0000
  H   H1328     1.0  0.89413  0.54004  0.03689  1.0000
  C   C1326     1.0  0.70807  0.48150  0.22268  1.0000
  H   H1329     1.0  0.77089  0.55423  0.12111  1.0000
  C   C1327     1.0  0.97739  0.62482  0.13142  1.0000
  C   C1328     1.0  0.77486  0.36995  0.12588  1.0000
  H   H1330     1.0  0.93774  0.52125  0.06457  1.0000
  H   H1331     1.0  0.79927  0.35684  0.18320  1.0000
  N   N110      1.0  0.94010  0.54664  0.13754  1.0000
  C   C1329     1.0  0.92059  0.54926  0.13384  1.0000
  C   C1330     1.0  0.94541  0.55143  0.15491  1.0000
  C   C1331     1.0  0.90575  0.55666  0.14784  1.0000
  C   C1332     1.0  0.93097  0.55891  0.16923  1.0000
  C   C1333     1.0  0.91101  0.56154  0.16563  1.0000
  C   C1334     1.0  0.95554  0.53999  0.12222  1.0000
  H   H1332     1.0  0.91639  0.54581  0.11991  1.0000
  H   H1333     1.0  0.96097  0.54997  0.15754  1.0000
  H   H1334     1.0  0.89036  0.55892  0.14462  1.0000
  H   H1335     1.0  0.93535  0.56292  0.18284  1.0000
  H   H1336     1.0  0.89969  0.56754  0.17650  1.0000
  N   N111      1.0  0.81161  0.34052  0.15905  1.0000
  C   C1335     1.0  0.99936  0.64191  0.00753  1.0000
  S   S449      1.0  0.91358  0.37790  0.01775  1.0000
  C   C1336     1.0  0.84796  0.33853  0.04081  1.0000
  H   H1337     1.0  0.97517  0.64294  0.03125  1.0000
  S   S450      1.0  0.77652  0.54609  0.24535  1.0000
  C   C1337     1.0  0.78296  0.54535  0.08431  1.0000
  N   N112      1.0  0.83761  0.63935  0.20507  1.0000
  C   C1338     1.0  0.80621  0.34180  0.18033  1.0000
  C   C1339     1.0  0.74827  0.44540  0.12700  1.0000
  H   H1338     1.0  0.86318  0.64468  0.21783  1.0000
  H   H1339     1.0  0.94971  0.53036  0.11279  1.0000
  C   C1340     1.0  0.83497  0.48745  0.14652  1.0000
  H   H1340     1.0  0.86514  0.53763  0.11087  1.0000
  C   C1341     1.0  0.93184  0.40903  0.13361  1.0000
  H   H1341     1.0  0.94486  0.40803  0.14161  1.0000
  H   H1342     1.0  0.84609  0.60878  0.20198  1.0000
  C   C1342     1.0  0.80947  0.56561  0.08789  1.0000
  H   H1343     1.0  0.84103  0.52022  0.17842  1.0000
  S   S451      1.0  0.99309  0.43648  0.10210  1.0000
  Fe  Fe227     1.0  0.78086  0.57824  0.24416  1.0000
  S   S452      1.0  0.94053  0.58248  0.08480  1.0000
  H   H1344     1.0  0.87949  0.48196  0.03126  1.0000
  H   H1345     1.0  0.81188  0.50495  0.19661  1.0000
  H   H1346     1.0  0.81406  0.44926  0.15780  1.0000
  Fe  Fe228     1.0  0.94768  0.59946  0.10843  1.0000
  H   H1347     1.0  0.81666  0.46164  0.13313  1.0000
  S   S453      1.0  0.93587  0.41844  0.04112  1.0000
  C   C1343     1.0  0.81043  0.46347  0.14866  1.0000
  H   H1348     1.0  0.79508  0.33151  0.18669  1.0000
  C   C1344     1.0  0.89817  0.41274  0.11369  1.0000
  H   H1349     1.0  0.76192  0.36851  0.17559  1.0000
  C   C1345     1.0  0.72215  0.45057  0.23956  1.0000
  H   H1350     1.0  0.66294  0.61552  0.21633  1.0000
  S   S454      1.0  0.91589  0.60708  0.11911  1.0000
  H   H1351     1.0  0.73831  0.45934  0.12865  1.0000
  N   N113      1.0  0.81872  0.47936  0.15652  1.0000
  Fe  Fe229     1.0  0.96876  0.35503  0.01425  1.0000
  C   C1346     1.0  0.81046  0.48554  0.17428  1.0000
  C   C1347     1.0  0.84311  0.50247  0.15402  1.0000
  C   C1348     1.0  0.75931  0.41633  0.08323  1.0000
  H   H1352     1.0  0.79782  0.47888  0.18240  1.0000
  H   H1353     1.0  0.85604  0.50873  0.14601  1.0000
  H   H1354     1.0  0.79400  0.46667  0.14892  1.0000
  C   C1349     1.0  0.88520  0.51200  0.03259  1.0000
  H   H1355     1.0  0.81157  0.60007  0.20626  1.0000
  S   S455      1.0  0.98931  0.51483  0.16221  1.0000
  C   C1350     1.0  0.81928  0.57648  0.09908  1.0000
  C   C1351     1.0  0.00079  0.59855  0.14441  1.0000
  C   C1352     1.0  0.93389  0.41068  0.11296  1.0000
  C   C1353     1.0  0.66191  0.59973  0.21830  1.0000
  C   C1354     1.0  0.79858  0.62979  0.21023  1.0000
  C   C1355     1.0  0.88912  0.49153  0.03616  1.0000
  C   C1356     1.0  0.99289  0.60254  0.00756  1.0000
  C   C1357     1.0  0.76079  0.34454  0.15812  1.0000
  C   C1358     1.0  0.77109  0.35076  0.12305  1.0000
  C   C1359     1.0  0.75877  0.43131  0.06753  1.0000
  C   C1360     1.0  0.80637  0.39115  0.00559  1.0000
  S   S456      1.0  0.95146  0.62744  0.08862  1.0000
  C   C1361     1.0  0.91698  0.41263  0.10287  1.0000
  S   S457      1.0  0.95102  0.36043  0.04357  1.0000
  C   C1362     1.0  0.53406  0.64543  0.21574  1.0000
  H   H1356     1.0  0.78067  0.37958  0.11338  1.0000
  S   S458      1.0  0.94479  0.33991  0.00444  1.0000
  C   C1363     1.0  0.65978  0.55930  0.22335  1.0000
  H   H1357     1.0  0.81989  0.38122  0.03254  1.0000
  H   H1358     1.0  0.62986  0.56663  0.23622  1.0000
  H   H1359     1.0  0.79036  0.66031  0.21497  1.0000
  H   H1360     1.0  0.52201  0.56510  0.24678  1.0000
  H   H1361     1.0  0.91495  0.53658  0.07016  1.0000
  S   S459      1.0  0.72323  0.61937  0.21548  1.0000
  C   C1364     1.0  0.76411  0.33797  0.13922  1.0000
  C   C1365     1.0  0.81151  0.57913  0.11853  1.0000
  H   H1362     1.0  0.75590  0.40956  0.11485  1.0000
  H   H1363     1.0  0.96089  0.55296  0.11277  1.0000
  H   H1364     1.0  0.61347  0.60000  0.23421  1.0000
  S   S460      1.0  0.50343  0.60494  0.24798  1.0000
  H   H1365     1.0  0.73571  0.46484  0.21238  1.0000
  H   H1366     1.0  0.96841  0.53149  0.12901  1.0000
  C   C1366     1.0  0.00097  0.56206  0.08550  1.0000
  H   H1367     1.0  0.87484  0.35296  0.03265  1.0000
  H   H1368     1.0  0.77100  0.55474  0.07685  1.0000
  H   H1369     1.0  0.81898  0.37021  0.15335  1.0000
  N   N114      1.0  0.64469  0.59241  0.22686  1.0000
  C   C1367     1.0  0.81840  0.35642  0.14724  1.0000
  C   C1368     1.0  0.98309  0.60465  0.13602  1.0000
  H   H1370     1.0  0.85943  0.65902  0.19436  1.0000
  N   N115      1.0  0.51903  0.65716  0.20710  1.0000
  C   C1369     1.0  0.83392  0.62031  0.20413  1.0000
  C   C1370     1.0  0.91537  0.64925  0.16943  1.0000
  H   H1371     1.0  0.70915  0.49308  0.21048  1.0000
  S   S461      1.0  0.67362  0.50368  0.23606  1.0000
  C   C1371     1.0  0.55091  0.65355  0.21978  1.0000
  H   H1372     1.0  0.87246  0.51846  0.02497  1.0000
  H   H1373     1.0  0.69041  0.55647  0.21066  1.0000
  H   H1374     1.0  0.99760  0.54705  0.08503  1.0000
  H   H1375     1.0  0.69790  0.65512  0.20764  1.0000
  C   C1372     1.0  0.62796  0.60585  0.23467  1.0000
  H   H1376     1.0  0.56256  0.64431  0.22710  1.0000
  H   H1377     1.0  0.50306  0.64451  0.18788  1.0000
  H   H1378     1.0  0.75738  0.34117  0.03233  1.0000
  H   H1379     1.0  0.78238  0.34297  0.02039  1.0000
  S   S462      1.0  0.00105  0.34220  0.01258  1.0000
  C   C1373     1.0  0.67864  0.58697  0.21239  1.0000
  S   S463      1.0  0.95953  0.38495  0.99922  1.0000
  H   H1380     1.0  0.00149  0.65733  0.00729  1.0000
  H   H1381     1.0  0.75077  0.34913  0.29084  1.0000
  S   S464      1.0  0.63811  0.65048  0.25504  1.0000
  Fe  Fe230     1.0  0.68955  0.48872  0.41860  1.0000
  S   S465      1.0  0.72197  0.47684  0.41890  1.0000
  S   S466      1.0  0.67231  0.51239  0.43609  1.0000
  Fe  Fe231     1.0  0.68107  0.45828  0.39338  1.0000
  S   S467      1.0  0.71235  0.44390  0.39117  1.0000
  S   S468      1.0  0.65652  0.44763  0.37964  1.0000
  Fe  Fe232     1.0  0.71046  0.44683  0.42390  1.0000
  S   S469      1.0  0.72055  0.41913  0.44358  1.0000
  Fe  Fe233     1.0  0.72119  0.47491  0.38610  1.0000
  S   S470      1.0  0.74473  0.48298  0.36055  1.0000
  S   S471      1.0  0.67840  0.45891  0.42607  1.0000
  S   S472      1.0  0.68994  0.48902  0.38574  1.0000
  H   H1382     1.0  0.63843  0.49483  0.45515  1.0000
  S   S473      1.0  0.72588  0.54370  0.28525  1.0000
  C   C1374     1.0  0.67759  0.40069  0.41357  1.0000
  Fe  Fe234     1.0  0.63022  0.51782  0.29985  1.0000
  C   C1375     1.0  0.63015  0.62374  0.35099  1.0000
  S   S474      1.0  0.63676  0.52595  0.32889  1.0000
  Fe  Fe235     1.0  0.60971  0.49005  0.28078  1.0000
  S   S475      1.0  0.75043  0.58715  0.25884  1.0000
  S   S476      1.0  0.59757  0.46037  0.28843  1.0000
  C   C1376     1.0  0.63873  0.42289  0.29576  1.0000
  Fe  Fe236     1.0  0.60589  0.53456  0.26626  1.0000
  H   H1383     1.0  0.73342  0.54587  0.36759  1.0000
  S   S477      1.0  0.64140  0.48939  0.28714  1.0000
  S   S478      1.0  0.59830  0.51730  0.29571  1.0000
  Fe  Fe237     1.0  0.58880  0.59596  0.40210  1.0000
  S   S479      1.0  0.58567  0.43048  0.38045  1.0000
  C   C1377     1.0  0.81393  0.61022  0.25547  1.0000
  H   H1384     1.0  0.62903  0.43448  0.45249  1.0000
  H   H1385     1.0  0.84590  0.60527  0.24982  1.0000
  S   S480      1.0  0.58736  0.39127  0.42594  1.0000
  H   H1386     1.0  0.52057  0.33909  0.49814  1.0000
  S   S481      1.0  0.56079  0.58092  0.40725  1.0000
  H   H1387     1.0  0.78720  0.53270  0.32983  1.0000
  N   N116      1.0  0.62767  0.65417  0.32947  1.0000
  H   H1388     1.0  0.52886  0.58071  0.49792  1.0000
  Fe  Fe238     1.0  0.58768  0.36054  0.41794  1.0000
  H   H1389     1.0  0.61210  0.47838  0.40627  1.0000
  S   S482      1.0  0.61965  0.58246  0.39155  1.0000
  H   H1390     1.0  0.61641  0.56468  0.43276  1.0000
  C   C1378     1.0  0.63354  0.37359  0.47331  1.0000
  C   C1379     1.0  0.64387  0.37564  0.48931  1.0000
  H   H1391     1.0  0.68737  0.34321  0.34194  1.0000
  H   H1392     1.0  0.67325  0.45337  0.30075  1.0000
  H   H1393     1.0  0.65302  0.44472  0.27557  1.0000
  C   C1380     1.0  0.62392  0.35662  0.47333  1.0000
  S   S483      1.0  0.52717  0.59536  0.45354  1.0000
  S   S484      1.0  0.63770  0.53624  0.27149  1.0000
  S   S485      1.0  0.59374  0.36944  0.38484  1.0000
  H   H1394     1.0  0.55270  0.39545  0.46672  1.0000
  H   H1395     1.0  0.63295  0.60772  0.35305  1.0000
  C   C1381     1.0  0.80095  0.34675  0.25523  1.0000
  C   C1382     1.0  0.80360  0.35524  0.28826  1.0000
  C   C1383     1.0  0.50823  0.60971  0.46745  1.0000
  C   C1384     1.0  0.77852  0.55895  0.29896  1.0000
  C   C1385     1.0  0.76254  0.39590  0.28435  1.0000
  H   H1396     1.0  0.65130  0.38875  0.48946  1.0000
  C   C1386     1.0  0.69399  0.51044  0.27987  1.0000
  S   S486      1.0  0.53821  0.59330  0.35619  1.0000
  C   C1387     1.0  0.62768  0.44977  0.44607  1.0000
  S   S487      1.0  0.62886  0.39388  0.39674  1.0000
  H   H1397     1.0  0.61738  0.42490  0.42454  1.0000
  C   C1388     1.0  0.59332  0.45215  0.31400  1.0000
  C   C1389     1.0  0.59181  0.43204  0.32016  1.0000
  C   C1390     1.0  0.58994  0.42503  0.34049  1.0000
  C   C1391     1.0  0.58863  0.43830  0.35477  1.0000
  C   C1392     1.0  0.58914  0.45851  0.34858  1.0000
  C   C1393     1.0  0.59172  0.46537  0.32831  1.0000
  H   H1398     1.0  0.59236  0.42181  0.30916  1.0000
  H   H1399     1.0  0.58901  0.40949  0.34512  1.0000
  H   H1400     1.0  0.58786  0.46891  0.35952  1.0000
  H   H1401     1.0  0.59222  0.48095  0.32378  1.0000
  C   C1394     1.0  0.71094  0.41324  0.46866  1.0000
  C   C1395     1.0  0.69786  0.42665  0.47914  1.0000
  H   H1402     1.0  0.78277  0.61970  0.26214  1.0000
  C   C1396     1.0  0.56671  0.57608  0.25793  1.0000
  S   S488      1.0  0.56670  0.34071  0.43699  1.0000
  C   C1397     1.0  0.50959  0.36096  0.47560  1.0000
  H   H1403     1.0  0.69380  0.44133  0.47211  1.0000
  C   C1398     1.0  0.57712  0.38415  0.48376  1.0000
  H   H1404     1.0  0.62935  0.41958  0.28506  1.0000
  C   C1399     1.0  0.70579  0.45179  0.25424  1.0000
  C   C1400     1.0  0.64374  0.46930  0.36928  1.0000
  C   C1401     1.0  0.64514  0.48720  0.37665  1.0000
  C   C1402     1.0  0.64148  0.50508  0.36481  1.0000
  C   C1403     1.0  0.63576  0.50492  0.34591  1.0000
  C   C1404     1.0  0.63136  0.48729  0.33991  1.0000
  C   C1405     1.0  0.63539  0.46939  0.35160  1.0000
  H   H1405     1.0  0.65018  0.48722  0.39103  1.0000
  H   H1406     1.0  0.64433  0.51878  0.36979  1.0000
  H   H1407     1.0  0.62572  0.48728  0.32588  1.0000
  H   H1408     1.0  0.63308  0.45570  0.34636  1.0000
  C   C1406     1.0  0.73939  0.49982  0.33960  1.0000
  C   C1407     1.0  0.75338  0.50082  0.32268  1.0000
  C   C1408     1.0  0.74967  0.51429  0.30590  1.0000
  C   C1409     1.0  0.73188  0.52685  0.30593  1.0000
  C   C1410     1.0  0.71797  0.52587  0.32286  1.0000
  C   C1411     1.0  0.72174  0.51254  0.33963  1.0000
  H   H1409     1.0  0.76713  0.49108  0.32255  1.0000
  H   H1410     1.0  0.76043  0.51476  0.29289  1.0000
  H   H1411     1.0  0.70418  0.53556  0.32305  1.0000
  H   H1412     1.0  0.71103  0.51228  0.35266  1.0000
  C   C1412     1.0  0.53446  0.61518  0.34051  1.0000
  C   C1413     1.0  0.53684  0.63320  0.34715  1.0000
  C   C1414     1.0  0.53100  0.65100  0.33616  1.0000
  C   C1415     1.0  0.80106  0.64276  0.26495  1.0000
  H   H1413     1.0  0.52683  0.38805  0.49472  1.0000
  C   C1416     1.0  0.75697  0.36517  0.31406  1.0000
  H   H1414     1.0  0.51758  0.63261  0.29629  1.0000
  C   C1417     1.0  0.67802  0.34810  0.45334  1.0000
  C   C1418     1.0  0.54583  0.35026  0.45245  1.0000
  C   C1419     1.0  0.63282  0.56197  0.40409  1.0000
  C   C1420     1.0  0.64876  0.55153  0.39344  1.0000
  C   C1421     1.0  0.66056  0.53594  0.40303  1.0000
  C   C1422     1.0  0.65678  0.53093  0.42345  1.0000
  C   C1423     1.0  0.64068  0.54122  0.43410  1.0000
  C   C1424     1.0  0.62855  0.55657  0.42441  1.0000
  H   H1415     1.0  0.65218  0.55568  0.37773  1.0000
  H   H1416     1.0  0.67305  0.52833  0.39473  1.0000
  H   H1417     1.0  0.63777  0.53752  0.44994  1.0000
  H   H1418     1.0  0.53500  0.37241  0.43012  1.0000
  N   N117      1.0  0.61986  0.45502  0.42840  1.0000
  H   H1419     1.0  0.73470  0.47658  0.27969  1.0000
  C   C1425     1.0  0.80468  0.36041  0.26765  1.0000
  H   H1420     1.0  0.67410  0.47698  0.33209  1.0000
  C   C1426     1.0  0.62495  0.48891  0.42977  1.0000
  C   C1427     1.0  0.61828  0.47430  0.42030  1.0000
  C   C1428     1.0  0.62140  0.65478  0.36480  1.0000
  C   C1429     1.0  0.63436  0.46402  0.45601  1.0000
  H   H1421     1.0  0.79445  0.55331  0.29977  1.0000
  Fe  Fe239     1.0  0.64573  0.50764  0.25797  1.0000
  C   C1430     1.0  0.82046  0.64833  0.26328  1.0000
  H   H1422     1.0  0.68684  0.52229  0.27032  1.0000
  H   H1423     1.0  0.77016  0.41198  0.30724  1.0000
  H   H1424     1.0  0.72610  0.38373  0.47005  1.0000
  H   H1425     1.0  0.57229  0.60501  0.26395  1.0000
  C   C1431     1.0  0.68314  0.36545  0.45920  1.0000
  C   C1432     1.0  0.68287  0.38256  0.44583  1.0000
  C   C1433     1.0  0.52257  0.63279  0.31066  1.0000
  H   H1426     1.0  0.70488  0.44038  0.26658  1.0000
  H   H1427     1.0  0.56430  0.55595  0.30105  1.0000
  H   H1428     1.0  0.53775  0.62042  0.26045  1.0000
  C   C1434     1.0  0.52795  0.61493  0.32192  1.0000
  C   C1435     1.0  0.50903  0.62980  0.46883  1.0000
  C   C1436     1.0  0.67259  0.62519  0.25346  1.0000
  H   H1429     1.0  0.69043  0.40890  0.41501  1.0000
  H   H1430     1.0  0.72159  0.57139  0.34128  1.0000
  H   H1431     1.0  0.78855  0.65306  0.26961  1.0000
  C   C1437     1.0  0.63296  0.48369  0.44777  1.0000
  H   H1432     1.0  0.54242  0.63365  0.36111  1.0000
  H   H1433     1.0  0.64101  0.45976  0.46977  1.0000
  H   H1434     1.0  0.66887  0.43721  0.33527  1.0000
  Fe  Fe240     1.0  0.59628  0.39965  0.39353  1.0000
  Fe  Fe241     1.0  0.55052  0.60217  0.38233  1.0000
  Fe  Fe242     1.0  0.61970  0.38275  0.42808  1.0000
  H   H1435     1.0  0.65735  0.41028  0.35784  1.0000
  H   H1436     1.0  0.56313  0.58158  0.30407  1.0000
  H   H1437     1.0  0.52643  0.60106  0.31648  1.0000
  S   S489      1.0  0.65088  0.35325  0.36596  1.0000
  H   H1438     1.0  0.71989  0.46921  0.31437  1.0000
  C   C1438     1.0  0.66078  0.43277  0.32405  1.0000
  H   H1439     1.0  0.66537  0.61661  0.26601  1.0000
  C   C1439     1.0  0.66320  0.44205  0.30465  1.0000
  C   C1440     1.0  0.65194  0.43716  0.29049  1.0000
  C   C1441     1.0  0.70812  0.38856  0.49763  1.0000
  Fe  Fe243     1.0  0.74511  0.55549  0.25782  1.0000
  H   H1440     1.0  0.66358  0.41020  0.41741  1.0000
  H   H1441     1.0  0.80669  0.36575  0.29783  1.0000
  H   H1442     1.0  0.68657  0.36589  0.47425  1.0000
  H   H1443     1.0  0.77253  0.55116  0.28800  1.0000
  Fe  Fe244     1.0  0.62639  0.36323  0.38958  1.0000
  H   H1444     1.0  0.57382  0.65705  0.34731  1.0000
  N   N118      1.0  0.64777  0.41878  0.32905  1.0000
  N   N119      1.0  0.76660  0.55593  0.31820  1.0000
  C   C1442     1.0  0.77311  0.54170  0.33250  1.0000
  C   C1443     1.0  0.74831  0.56647  0.32119  1.0000
  C   C1444     1.0  0.76138  0.53803  0.35054  1.0000
  C   C1445     1.0  0.73626  0.56329  0.33912  1.0000
  C   C1446     1.0  0.74288  0.54898  0.35387  1.0000
  C   C1447     1.0  0.53211  0.36539  0.44507  1.0000
  C   C1448     1.0  0.67325  0.36530  0.42100  1.0000
  C   C1449     1.0  0.54161  0.34099  0.47176  1.0000
  H   H1445     1.0  0.50304  0.38149  0.45020  1.0000
  H   H1446     1.0  0.76624  0.52626  0.36159  1.0000
  C   C1450     1.0  0.76280  0.38275  0.31872  1.0000
  H   H1447     1.0  0.74272  0.57700  0.30945  1.0000
  C   C1451     1.0  0.55230  0.56482  0.25350  1.0000
  H   H1448     1.0  0.67964  0.50034  0.33849  1.0000
  Fe  Fe245     1.0  0.56584  0.63705  0.39628  1.0000
  S   S490      1.0  0.63291  0.39225  0.45338  1.0000
  H   H1449     1.0  0.62354  0.62638  0.38228  1.0000
  H   H1450     1.0  0.67224  0.51436  0.30487  1.0000
  H   H1451     1.0  0.77809  0.57494  0.29352  1.0000
  C   C1452     1.0  0.63693  0.41368  0.31519  1.0000
  C   C1453     1.0  0.67306  0.34797  0.43411  1.0000
  H   H1452     1.0  0.63142  0.41943  0.35734  1.0000
  C   C1454     1.0  0.64411  0.41042  0.34972  1.0000
  H   H1453     1.0  0.61831  0.44150  0.40224  1.0000
  H   H1454     1.0  0.62626  0.40293  0.31932  1.0000
  C   C1455     1.0  0.52307  0.65075  0.31833  1.0000
  H   H1455     1.0  0.68582  0.39623  0.45078  1.0000
  H   H1456     1.0  0.69732  0.47908  0.34172  1.0000
  S   S491      1.0  0.57913  0.61542  0.37550  1.0000
  N   N120      1.0  0.57458  0.56183  0.32780  1.0000
  C   C1456     1.0  0.57756  0.54270  0.33614  1.0000
  C   C1457     1.0  0.58345  0.57634  0.33441  1.0000
  C   C1458     1.0  0.59021  0.53758  0.35109  1.0000
  C   C1459     1.0  0.59627  0.57171  0.34925  1.0000
  C   C1460     1.0  0.59971  0.55220  0.35757  1.0000
  C   C1461     1.0  0.56118  0.56679  0.31222  1.0000
  H   H1457     1.0  0.59304  0.52231  0.35725  1.0000
  H   H1458     1.0  0.58046  0.59163  0.32840  1.0000
  S   S492      1.0  0.53591  0.62544  0.40141  1.0000
  H   H1459     1.0  0.60348  0.58313  0.35433  1.0000
  H   H1460     1.0  0.60988  0.54842  0.36888  1.0000
  S   S493      1.0  0.50500  0.66122  0.25490  1.0000
  H   H1461     1.0  0.54548  0.56684  0.31892  1.0000
  H   H1462     1.0  0.67834  0.39788  0.39782  1.0000
  H   H1463     1.0  0.62425  0.50413  0.42307  1.0000
  H   H1464     1.0  0.61524  0.35521  0.46148  1.0000
  H   H1465     1.0  0.59600  0.44212  0.41935  1.0000
  C   C1462     1.0  0.67138  0.33544  0.37046  1.0000
  C   C1463     1.0  0.71237  0.48064  0.30467  1.0000
  C   C1464     1.0  0.68583  0.50586  0.29940  1.0000
  H   H1466     1.0  0.71825  0.50356  0.25770  1.0000
  C   C1465     1.0  0.61253  0.44014  0.41823  1.0000
  S   S494      1.0  0.62022  0.35149  0.42149  1.0000
  C   C1466     1.0  0.83332  0.61580  0.25379  1.0000
  N   N121      1.0  0.67824  0.38228  0.42695  1.0000
  H   H1467     1.0  0.66916  0.36511  0.40615  1.0000
  Fe  Fe246     1.0  0.54821  0.60530  0.42640  1.0000
  S   S495      1.0  0.57747  0.61885  0.42309  1.0000
  C   C1467     1.0  0.76549  0.39830  0.30382  1.0000
  H   H1468     1.0  0.57032  0.53124  0.33109  1.0000
  C   C1468     1.0  0.79842  0.33657  0.29656  1.0000
  N   N122      1.0  0.69512  0.49125  0.31158  1.0000
  C   C1469     1.0  0.68613  0.48658  0.33193  1.0000
  C   C1470     1.0  0.72092  0.48482  0.28517  1.0000
  C   C1471     1.0  0.62498  0.34157  0.48912  1.0000
  C   C1472     1.0  0.79776  0.62385  0.26079  1.0000
  C   C1473     1.0  0.52376  0.34657  0.48345  1.0000
  H   H1469     1.0  0.64046  0.39491  0.35072  1.0000
  C   C1474     1.0  0.71602  0.39420  0.47803  1.0000
  H   H1470     1.0  0.76559  0.38413  0.33378  1.0000
  C   C1475     1.0  0.63140  0.63401  0.33196  1.0000
  C   C1476     1.0  0.62499  0.63422  0.36747  1.0000
  H   H1471     1.0  0.58858  0.38762  0.47179  1.0000
  C   C1477     1.0  0.55703  0.38868  0.48097  1.0000
  C   C1478     1.0  0.75435  0.36320  0.29442  1.0000
  C   C1479     1.0  0.51395  0.37045  0.45646  1.0000
  H   H1472     1.0  0.85158  0.63896  0.25637  1.0000
  H   H1473     1.0  0.51094  0.59183  0.39222  1.0000
  C   C1480     1.0  0.83658  0.63489  0.25739  1.0000
  C   C1481     1.0  0.71171  0.49994  0.27279  1.0000
  H   H1474     1.0  0.67750  0.33492  0.46382  1.0000
  H   H1475     1.0  0.76481  0.40795  0.27275  1.0000
  H   H1476     1.0  0.80875  0.37480  0.26136  1.0000
  N   N123      1.0  0.75729  0.37842  0.27986  1.0000
  H   H1477     1.0  0.75547  0.35278  0.32543  1.0000
  H   H1478     1.0  0.66883  0.33460  0.42951  1.0000
  C   C1482     1.0  0.54251  0.38435  0.49661  1.0000
  H   H1479     1.0  0.63527  0.62579  0.31917  1.0000
  H   H1480     1.0  0.52073  0.63739  0.46009  1.0000
  C   C1483     1.0  0.54168  0.60496  0.25848  1.0000
  H   H1481     1.0  0.75321  0.36072  0.25705  1.0000
  C   C1484     1.0  0.52747  0.59389  0.25325  1.0000
  H   H1482     1.0  0.62080  0.65735  0.29953  1.0000
  C   C1485     1.0  0.56126  0.59616  0.26049  1.0000
  S   S496      1.0  0.81058  0.58606  0.25089  1.0000
  H   H1483     1.0  0.67824  0.46856  0.26450  1.0000
  C   C1486     1.0  0.75498  0.37620  0.25923  1.0000
  S   S497      1.0  0.59201  0.56632  0.25891  1.0000
  C   C1487     1.0  0.68749  0.33348  0.35562  1.0000
  H   H1484     1.0  0.69891  0.60415  0.25084  1.0000
  H   H1485     1.0  0.74194  0.38612  0.25429  1.0000
  C   C1488     1.0  0.69061  0.46768  0.25308  1.0000
  H   H1486     1.0  0.55629  0.54942  0.25131  1.0000
  C   C1489     1.0  0.53287  0.57377  0.25089  1.0000
  S   S498      1.0  0.61447  0.50705  0.25031  1.0000
  S   S499      1.0  0.79585  0.33088  0.32249  1.0000
  H   H1487     1.0  0.62958  0.60773  0.25032  1.0000
  H   H1488     1.0  0.76854  0.38017  0.24958  1.0000
  H   H1489     1.0  0.61683  0.66304  0.37751  1.0000
  H   H1490     1.0  0.65957  0.37857  0.63559  1.0000
  Fe  Fe247     1.0  0.55409  0.35444  0.67273  1.0000
  S   S500      1.0  0.54155  0.35448  0.70490  1.0000
  S   S501      1.0  0.57312  0.37464  0.65229  1.0000
  C   C1490     1.0  0.67458  0.38383  0.60634  1.0000
  H   H1491     1.0  0.59801  0.37181  0.50427  1.0000
  C   C1491     1.0  0.53251  0.34706  0.58773  1.0000
  S   S502      1.0  0.65713  0.33734  0.61689  1.0000
  H   H1492     1.0  0.62788  0.41529  0.63997  1.0000
  C   C1492     1.0  0.52988  0.59089  0.50921  1.0000
  H   H1493     1.0  0.62494  0.38921  0.64403  1.0000
  S   S503      1.0  0.52441  0.35298  0.66218  1.0000
  C   C1493     1.0  0.69539  0.40208  0.50827  1.0000
  H   H1494     1.0  0.97952  0.38108  0.74675  1.0000
  H   H1495     1.0  0.68569  0.39174  0.57587  1.0000
  H   H1496     1.0  0.56393  0.34818  0.54169  1.0000
  Fe  Fe248     1.0  0.66716  0.33960  0.58410  1.0000
  H   H1497     1.0  0.95528  0.36231  0.71613  1.0000
  S   S504      1.0  0.69772  0.34804  0.57315  1.0000
  C   C1494     1.0  0.58238  0.37497  0.50209  1.0000
  H   H1498     1.0  0.57235  0.37071  0.54709  1.0000
  S   S505      1.0  0.69030  0.33755  0.52927  1.0000
  C   C1495     1.0  0.54367  0.34860  0.60326  1.0000
  Fe  Fe249     1.0  0.68419  0.36401  0.54634  1.0000
  H   H1499     1.0  0.62717  0.41801  0.59489  1.0000
  H   H1500     1.0  0.94849  0.37472  0.73825  1.0000
  Fe  Fe250     1.0  0.51236  0.35050  0.69411  1.0000
  C   C1496     1.0  0.54831  0.37476  0.51459  1.0000
  H   H1501     1.0  0.68766  0.37379  0.60959  1.0000
  H   H1502     1.0  0.50894  0.56085  0.52352  1.0000
  C   C1497     1.0  0.54346  0.33422  0.61965  1.0000
  H   H1503     1.0  0.65515  0.41334  0.56832  1.0000
  C   C1498     1.0  0.65618  0.40592  0.58319  1.0000
  N   N124      1.0  0.56804  0.36989  0.51701  1.0000
  S   S506      1.0  0.65318  0.35810  0.55922  1.0000
  C   C1499     1.0  0.98522  0.36573  0.74560  1.0000
  C   C1500     1.0  0.65860  0.38659  0.62099  1.0000
  C   C1501     1.0  0.62563  0.40223  0.63265  1.0000
  H   H1504     1.0  0.55159  0.33589  0.63190  1.0000
  H   H1505     1.0  0.65345  0.36219  0.51703  1.0000
  N   N125      1.0  0.64180  0.39871  0.61682  1.0000
  H   H1506     1.0  0.61087  0.40475  0.62677  1.0000
  H   H1507     1.0  0.94337  0.34975  0.73840  1.0000
  C   C1502     1.0  0.63281  0.34630  0.62572  1.0000
  H   H1508     1.0  0.58936  0.35261  0.53450  1.0000
  C   C1503     1.0  0.60739  0.34946  0.65372  1.0000
  C   C1504     1.0  0.59509  0.36212  0.64169  1.0000
  C   C1505     1.0  0.60136  0.36625  0.62144  1.0000
  C   C1506     1.0  0.62015  0.35817  0.61339  1.0000
  C   C1507     1.0  0.62630  0.34179  0.64581  1.0000
  H   H1509     1.0  0.60270  0.34635  0.66938  1.0000
  H   H1510     1.0  0.59181  0.37603  0.61210  1.0000
  H   H1511     1.0  0.62506  0.36166  0.59786  1.0000
  N   N126      1.0  0.97399  0.35311  0.73894  1.0000
  C   C1508     1.0  0.95436  0.36039  0.73255  1.0000
  S   S507      1.0  0.68623  0.39596  0.53345  1.0000
  H   H1512     1.0  0.55167  0.36136  0.60312  1.0000
  H   H1513     1.0  0.63603  0.33256  0.65539  1.0000
  S   S508      1.0  0.53049  0.36633  0.56860  1.0000
  C   C1509     1.0  0.67338  0.39369  0.58738  1.0000
  C   C1510     1.0  0.64046  0.40838  0.59822  1.0000
  H   H1514     1.0  0.53692  0.37115  0.52655  1.0000
  C   C1511     1.0  0.57379  0.35988  0.53598  1.0000
  H   H1515     1.0  0.58710  0.33486  0.60018  1.0000
  Fe  Fe251     1.0  0.65992  0.33099  0.54334  1.0000
  H   H1516     1.0  0.54343  0.58598  0.51682  1.0000
  H   H1517     1.0  0.71230  0.37392  0.50467  1.0000
  H   H1518     1.0  0.51175  0.62216  0.52664  1.0000
  H   H1519     1.0  0.53151  0.60567  0.50084  1.0000
  N   N127      1.0  0.51213  0.59143  0.52370  1.0000
  C   C1512     1.0  0.98131  0.33381  0.73742  1.0000
  C   C1513     1.0  0.64513  0.36052  0.50496  1.0000
  H   H1520     1.0  0.68060  0.43176  0.50707  1.0000
  C   C1514     1.0  0.63570  0.34344  0.50492  1.0000
  H   H1521     1.0  0.50248  0.39871  0.70139  1.0000
  C   C1515     1.0  0.50331  0.57448  0.52983  1.0000
  C   C1516     1.0  0.50504  0.60861  0.53170  1.0000
  C   C1517     1.0  0.69034  0.42116  0.49894  1.0000
  C   C1518     1.0  0.52214  0.33054  0.58808  1.0000
  S   S509      1.0  0.92613  0.33455  0.82124  1.0000
  Fe  Fe252     1.0  0.91818  0.36714  0.81388  1.0000
  S   S510      1.0  0.93451  0.36869  0.78310  1.0000
  S   S511      1.0  0.88672  0.38149  0.81879  1.0000
  Fe  Fe253     1.0  0.95322  0.34433  0.83170  1.0000
  S   S512      1.0  0.97148  0.34295  0.80235  1.0000
  C   C1519     1.0  0.99521  0.41388  0.79341  1.0000
  Fe  Fe254     1.0  0.96099  0.37532  0.79735  1.0000
  C   C1520     1.0  0.91884  0.33769  0.96056  1.0000
  C   C1521     1.0  0.99486  0.34760  0.87924  1.0000
  S   S513      1.0  0.94337  0.37688  0.82718  1.0000
  H   H1522     1.0  0.78466  0.43808  0.99465  1.0000
  Fe  Fe255     1.0  0.81491  0.35926  0.96511  1.0000
  S   S514      1.0  0.84484  0.36335  0.94883  1.0000
  H   H1523     1.0  0.88097  0.40968  0.99522  1.0000
  S   S515      1.0  0.96827  0.33277  0.85896  1.0000
  S   S516      1.0  0.81050  0.36735  0.99693  1.0000
  H   H1524     1.0  0.91456  0.37097  0.88782  1.0000
  C   C1522     1.0  0.98566  0.42207  0.81029  1.0000
  H   H1525     1.0  0.92914  0.35436  0.87162  1.0000
  Fe  Fe256     1.0  0.82914  0.37053  0.92157  1.0000
  S   S517      1.0  0.83611  0.39677  0.90005  1.0000
  C   C1523     1.0  0.96410  0.34423  0.92915  1.0000
  S   S518      1.0  0.79866  0.36896  0.93817  1.0000
  H   H1526     1.0  0.83352  0.37976  0.84418  1.0000
  C   C1524     1.0  0.99896  0.38052  0.85126  1.0000
  H   H1527     1.0  0.83429  0.42674  0.92804  1.0000
  H   H1528     1.0  0.88044  0.34593  0.98686  1.0000
  H   H1529     1.0  0.97146  0.37410  0.92789  1.0000
  H   H1530     1.0  0.98533  0.44447  0.83008  1.0000
  Fe  Fe257     1.0  0.80321  0.33692  0.93196  1.0000
  H   H1531     1.0  0.88726  0.39813  0.95169  1.0000
  C   C1525     1.0  0.95237  0.37090  0.90562  1.0000
  C   C1526     1.0  0.86185  0.41215  0.93767  1.0000
  H   H1532     1.0  0.98062  0.36730  0.83458  1.0000
  H   H1533     1.0  0.84778  0.33387  0.82184  1.0000
  H   H1534     1.0  0.80661  0.38448  0.87140  1.0000
  C   C1527     1.0  0.98451  0.34989  0.86244  1.0000
  C   C1528     1.0  0.96353  0.36405  0.92146  1.0000
  H   H1535     1.0  0.77583  0.35216  0.98699  1.0000
  C   C1529     1.0  0.91531  0.35703  0.95161  1.0000
  C   C1530     1.0  0.98708  0.36611  0.84829  1.0000
  S   S519      1.0  0.92541  0.37661  0.95985  1.0000
  H   H1536     1.0  0.97253  0.41608  0.81807  1.0000
  C   C1531     1.0  0.87614  0.38636  0.84274  1.0000
  C   C1532     1.0  0.87732  0.37202  0.85916  1.0000
  C   C1533     1.0  0.86538  0.37508  0.87714  1.0000
  C   C1534     1.0  0.85273  0.39270  0.87876  1.0000
  C   C1535     1.0  0.85249  0.40733  0.86266  1.0000
  C   C1536     1.0  0.86386  0.40404  0.84467  1.0000
  H   H1537     1.0  0.88665  0.35823  0.85771  1.0000
  H   H1538     1.0  0.86570  0.36374  0.88956  1.0000
  H   H1539     1.0  0.84284  0.42099  0.86381  1.0000
  H   H1540     1.0  0.86280  0.41511  0.83203  1.0000
  C   C1537     1.0  0.87207  0.40486  0.95408  1.0000
  H   H1541     1.0  0.79135  0.40561  0.98097  1.0000
  C   C1538     1.0  0.82662  0.36703  0.85161  1.0000
  C   C1539     1.0  0.79647  0.40735  0.99500  1.0000
  C   C1540     1.0  0.89081  0.34648  0.93327  1.0000
  H   H1542     1.0  0.90030  0.37566  0.92902  1.0000
  N   N128      1.0  0.94217  0.35831  0.89759  1.0000
  H   H1543     1.0  0.95194  0.38635  0.89980  1.0000
  H   H1544     1.0  0.87980  0.34998  0.92283  1.0000
  H   H1545     1.0  0.86880  0.41056  0.92271  1.0000
  Fe  Fe258     1.0  0.94354  0.33626  0.79106  1.0000
  C   C1541     1.0  0.81124  0.36981  0.86688  1.0000
  C   C1542     1.0  0.82467  0.33240  0.85606  1.0000
  H   H1546     1.0  0.99316  0.33496  0.89016  1.0000
  S   S520      1.0  0.83246  0.33961  0.91331  1.0000
  H   H1547     1.0  0.81856  0.43042  0.96242  1.0000
  H   H1548     1.0  0.00061  0.39313  0.84028  1.0000
  C   C1543     1.0  0.84243  0.42124  0.94067  1.0000
  C   C1544     1.0  0.87368  0.39791  0.98994  1.0000
  C   C1545     1.0  0.84978  0.34579  0.83087  1.0000
  Fe  Fe259     1.0  0.93436  0.37028  0.99095  1.0000
  C   C1546     1.0  0.90232  0.36105  0.93687  1.0000
  C   C1547     1.0  0.80226  0.35353  0.87655  1.0000
  S   S521      1.0  0.98646  0.39365  0.78398  1.0000
  C   C1548     1.0  0.94251  0.33888  0.90514  1.0000
  C   C1549     1.0  0.99295  0.43824  0.81706  1.0000
  C   C1550     1.0  0.84416  0.41552  0.97600  1.0000
  H   H1549     1.0  0.79039  0.35542  0.88852  1.0000
  N   N129      1.0  0.83306  0.34852  0.84631  1.0000
  H   H1550     1.0  0.83721  0.41708  0.99095  1.0000
  N   N130      1.0  0.86295  0.40606  0.97292  1.0000
  C   C1551     1.0  0.83357  0.42317  0.95994  1.0000
  C   C1552     1.0  0.76766  0.33939  0.98765  1.0000
  C   C1553     1.0  0.76151  0.33449  0.97019  1.0000
  H   H1551     1.0  0.84692  0.33522  0.98764  1.0000
  H   H1552     1.0  0.76495  0.34324  0.95616  1.0000
  H   H1553     1.0  0.85126  0.35949  0.82050  1.0000
  H   H1554     1.0  0.88536  0.38582  0.98590  1.0000
  H   H1555     1.0  0.86395  0.34204  0.83773  1.0000
  C   C1554     1.0  0.87711  0.33179  0.99463  1.0000
  C   C1555     1.0  0.80900  0.33468  0.87116  1.0000
  H   H1556     1.0  0.93638  0.37842  0.87209  1.0000
  C   C1556     1.0  0.95357  0.33152  0.92093  1.0000
  H   H1557     1.0  0.92972  0.33413  0.97095  1.0000
  C   C1557     1.0  0.92989  0.36593  0.88154  1.0000
  H   H1558     1.0  0.97251  0.33880  0.94158  1.0000
  Fe  Fe260     1.0  0.84565  0.33208  0.94203  1.0000
  Fe  Fe261     1.0  0.63863  0.93039  0.11151  1.0000
  S   S522      1.0  0.66813  0.92827  0.09301  1.0000
  S   S523      1.0  0.62649  0.95458  0.13047  1.0000
  Fe  Fe262     1.0  0.62835  0.89050  0.10166  1.0000
  S   S524      1.0  0.65720  0.88553  0.08228  1.0000
  S   S525      1.0  0.60600  0.86885  0.11357  1.0000
  Fe  Fe263     1.0  0.67119  0.89659  0.10672  1.0000
  S   S526      1.0  0.69943  0.88258  0.12000  1.0000
  Fe  Fe264     1.0  0.65106  0.91788  0.07074  1.0000
  S   S527      1.0  0.65043  0.93053  0.03840  1.0000
  S   S528      1.0  0.64272  0.89972  0.12650  1.0000
  S   S529      1.0  0.62117  0.92182  0.08873  1.0000
  C   C1558     1.0  0.67686  0.82529  0.21427  1.0000
  H   H1559     1.0  0.90246  0.71796  0.17732  1.0000
  C   C1559     1.0  0.82310  0.76344  0.21545  1.0000
  Fe  Fe265     1.0  0.53066  0.80338  0.08707  1.0000
  S   S530      1.0  0.52323  0.77394  0.08002  1.0000
  S   S531      1.0  0.55395  0.82107  0.06877  1.0000
  H   H1560     1.0  0.57687  0.75976  0.12294  1.0000
  C   C1560     1.0  0.60612  0.79675  0.12147  1.0000
  Fe  Fe266     1.0  0.52361  0.76518  0.11310  1.0000
  S   S532      1.0  0.54309  0.73804  0.12526  1.0000
  C   C1561     1.0  0.69972  0.92694  0.13901  1.0000
  S   S533      1.0  0.53286  0.79380  0.11924  1.0000
  C   C1562     1.0  0.71356  0.92029  0.15249  1.0000
  S   S534      1.0  0.73834  0.82118  0.23270  1.0000
  H   H1561     1.0  0.91289  0.72036  0.14020  1.0000
  C   C1563     1.0  0.67549  0.82835  0.23429  1.0000
  Fe  Fe267     1.0  0.72629  0.85328  0.23293  1.0000
  S   S535      1.0  0.70336  0.86973  0.21336  1.0000
  C   C1564     1.0  0.67331  0.96174  0.03577  1.0000
  H   H1562     1.0  0.68679  0.83330  0.20341  1.0000
  N   N131      1.0  0.92883  0.70383  0.16288  1.0000
  C   C1565     1.0  0.60768  0.80248  0.10110  1.0000
  Fe  Fe268     1.0  0.76543  0.83039  0.24385  1.0000
  Fe  Fe269     1.0  0.88641  0.68726  0.22351  1.0000
  C   C1566     1.0  0.95208  0.67666  0.15298  1.0000
  H   H1563     1.0  0.59085  0.94477  0.11614  1.0000
  N   N132      1.0  0.58663  0.77786  0.09681  1.0000
  H   H1564     1.0  0.67671  0.92198  0.00304  1.0000
  S   S536      1.0  0.62871  0.70442  0.22131  1.0000
  S   S537      1.0  0.65906  0.74666  0.23005  1.0000
  H   H1565     1.0  0.54863  0.97925  0.15327  1.0000
  H   H1566     1.0  0.69503  0.93721  0.00689  1.0000
  H   H1567     1.0  0.64353  0.92676  0.16651  1.0000
  Fe  Fe270     1.0  0.59638  0.71444  0.23014  1.0000
  S   S538      1.0  0.56944  0.72531  0.21292  1.0000
  C   C1567     1.0  0.65380  0.98333  0.00481  1.0000
  C   C1568     1.0  0.68748  0.92454  0.17933  1.0000
  S   S539      1.0  0.53083  0.90064  0.13066  1.0000
  H   H1568     1.0  0.55276  0.91451  0.09297  1.0000
  C   C1569     1.0  0.55683  0.92941  0.15271  1.0000
  H   H1569     1.0  0.64839  0.95189  0.16741  1.0000
  H   H1570     1.0  0.84821  0.76534  0.23133  1.0000
  H   H1571     1.0  0.50889  0.68605  0.19439  1.0000
  H   H1572     1.0  0.57264  0.89697  0.13848  1.0000
  Fe  Fe271     1.0  0.50997  0.92758  0.12290  1.0000
  N   N133      1.0  0.53686  0.89726  0.07801  1.0000
  H   H1573     1.0  0.94606  0.68445  0.18275  1.0000
  H   H1574     1.0  0.59846  0.79780  0.07318  1.0000
  H   H1575     1.0  0.66906  0.93687  0.13557  1.0000
  C   C1570     1.0  0.65681  0.95462  0.02973  1.0000
  H   H1576     1.0  0.66678  0.80891  0.19303  1.0000
  H   H1577     1.0  0.51947  0.92085  0.06258  1.0000
  C   C1571     1.0  0.67100  0.98979  0.01007  1.0000
  H   H1578     1.0  0.66471  0.66782  0.22309  1.0000
  Fe  Fe272     1.0  0.50749  0.97277  0.11614  1.0000
  H   H1579     1.0  0.95340  0.67134  0.12231  1.0000
  S   S540      1.0  0.88774  0.71995  0.22311  1.0000
  H   H1580     1.0  0.68435  0.83892  0.23866  1.0000
  C   C1572     1.0  0.65295  0.93620  0.17272  1.0000
  S   S541      1.0  0.79848  0.82229  0.23842  1.0000
  C   C1573     1.0  0.89041  0.67626  0.14738  1.0000
  C   C1574     1.0  0.89047  0.67748  0.16786  1.0000
  H   H1581     1.0  0.64990  0.93426  0.18913  1.0000
  N   N134      1.0  0.67398  0.93093  0.16597  1.0000
  H   H1582     1.0  0.88091  0.68694  0.13882  1.0000
  H   H1583     1.0  0.88106  0.68907  0.17494  1.0000
  C   C1575     1.0  0.83377  0.77224  0.22763  1.0000
  C   C1576     1.0  0.67385  0.75786  0.24429  1.0000
  H   H1584     1.0  0.59365  0.77661  0.14517  1.0000
  H   H1585     1.0  0.69182  0.76959  0.21840  1.0000
  H   H1586     1.0  0.56807  0.89918  0.07610  1.0000
  H   H1587     1.0  0.56934  0.77864  0.07269  1.0000
  H   H1588     1.0  0.53833  0.70102  0.20113  1.0000
  H   H1589     1.0  0.59647  0.90637  0.13671  1.0000
  H   H1590     1.0  0.68280  0.92292  0.19513  1.0000
  C   C1577     1.0  0.64692  0.96567  0.01443  1.0000
  C   C1578     1.0  0.69957  0.77989  0.24483  1.0000
  H   H1591     1.0  0.61340  0.80445  0.13110  1.0000
  C   C1579     1.0  0.67987  0.93220  0.14607  1.0000
  C   C1580     1.0  0.59497  0.78127  0.12936  1.0000
  C   C1581     1.0  0.52947  0.86070  0.13605  1.0000
  C   C1582     1.0  0.51971  0.84352  0.13898  1.0000
  H   H1592     1.0  0.54545  0.85969  0.13287  1.0000
  H   H1593     1.0  0.52826  0.82928  0.13821  1.0000
  C   C1583     1.0  0.55149  0.73577  0.14921  1.0000
  C   C1584     1.0  0.54218  0.74736  0.16389  1.0000
  C   C1585     1.0  0.54841  0.74438  0.18308  1.0000
  C   C1586     1.0  0.56439  0.73024  0.18774  1.0000
  C   C1587     1.0  0.57417  0.71909  0.17288  1.0000
  C   C1588     1.0  0.56760  0.72173  0.15378  1.0000
  H   H1594     1.0  0.52975  0.75817  0.16063  1.0000
  H   H1595     1.0  0.54059  0.75297  0.19446  1.0000
  H   H1596     1.0  0.58627  0.70793  0.17629  1.0000
  H   H1597     1.0  0.57489  0.71264  0.14257  1.0000
  C   C1589     1.0  0.52066  0.67680  0.20151  1.0000
  C   C1590     1.0  0.65695  0.97675  0.11459  1.0000
  C   C1591     1.0  0.55519  0.96500  0.14893  1.0000
  N   N135      1.0  0.57187  0.92851  0.13754  1.0000
  H   H1598     1.0  0.66466  0.96350  0.10924  1.0000
  C   C1592     1.0  0.70008  0.87676  0.14601  1.0000
  C   C1593     1.0  0.68310  0.88024  0.15934  1.0000
  C   C1594     1.0  0.68433  0.87723  0.17988  1.0000
  C   C1595     1.0  0.70254  0.87065  0.18745  1.0000
  C   C1596     1.0  0.71947  0.86644  0.17424  1.0000
  C   C1597     1.0  0.71822  0.86954  0.15359  1.0000
  H   H1599     1.0  0.66905  0.88561  0.15389  1.0000
  H   H1600     1.0  0.67114  0.88045  0.18997  1.0000
  H   H1601     1.0  0.73361  0.86137  0.17988  1.0000
  H   H1602     1.0  0.73146  0.86671  0.14344  1.0000
  C   C1598     1.0  0.59208  0.85588  0.10031  1.0000
  C   C1599     1.0  0.59351  0.85769  0.07959  1.0000
  C   C1600     1.0  0.58174  0.84697  0.06997  1.0000
  C   C1601     1.0  0.56839  0.83462  0.08101  1.0000
  C   C1602     1.0  0.56702  0.83300  0.10168  1.0000
  C   C1603     1.0  0.57896  0.84337  0.11124  1.0000
  H   H1603     1.0  0.60370  0.86723  0.07101  1.0000
  H   H1604     1.0  0.58296  0.84829  0.05394  1.0000
  H   H1605     1.0  0.55688  0.82370  0.11041  1.0000
  H   H1606     1.0  0.57794  0.84176  0.12727  1.0000
  H   H1607     1.0  0.72879  0.91532  0.14717  1.0000
  C   C1604     1.0  0.57878  0.94545  0.12800  1.0000
  H   H1608     1.0  0.55386  0.92126  0.06651  1.0000
  H   H1609     1.0  0.68120  0.95328  0.04737  1.0000
  H   H1610     1.0  0.56503  0.75910  0.09198  1.0000
  C   C1605     1.0  0.58540  0.77183  0.11671  1.0000
  C   C1606     1.0  0.79643  0.79036  0.21807  1.0000
  C   C1607     1.0  0.68885  0.76899  0.23437  1.0000
  C   C1608     1.0  0.59772  0.79285  0.08892  1.0000
  C   C1609     1.0  0.53754  0.87839  0.08714  1.0000
  C   C1610     1.0  0.63800  0.97652  0.12511  1.0000
  C   C1611     1.0  0.57675  0.76774  0.08362  1.0000
  S   S542      1.0  0.85362  0.69023  0.22231  1.0000
  Fe  Fe273     1.0  0.85442  0.72227  0.22472  1.0000
  H   H1611     1.0  0.58781  0.75744  0.07561  1.0000
  C   C1612     1.0  0.51854  0.87926  0.13669  1.0000
  C   C1613     1.0  0.57062  0.96392  0.13358  1.0000
  C   C1614     1.0  0.65293  0.80152  0.22263  1.0000
  C   C1615     1.0  0.91879  0.71574  0.17832  1.0000
  H   H1612     1.0  0.57628  0.97729  0.12604  1.0000
  C   C1616     1.0  0.93317  0.69687  0.12890  1.0000
  H   H1613     1.0  0.52256  0.85201  0.09421  1.0000
  H   H1614     1.0  0.71792  0.91322  0.18339  1.0000
  C   C1617     1.0  0.52028  0.90570  0.06942  1.0000
  C   C1618     1.0  0.70745  0.91912  0.17279  1.0000
  C   C1619     1.0  0.53729  0.68537  0.20528  1.0000
  S   S543      1.0  0.51912  0.94859  0.09683  1.0000
  H   H1615     1.0  0.55026  0.87212  0.09475  1.0000
  C   C1620     1.0  0.90332  0.66422  0.17886  1.0000
  H   H1616     1.0  0.92467  0.73033  0.17679  1.0000
  C   C1621     1.0  0.94711  0.68088  0.13357  1.0000
  H   H1617     1.0  0.92088  0.70825  0.19341  1.0000
  C   C1622     1.0  0.80742  0.79946  0.22974  1.0000
  H   H1618     1.0  0.61601  0.81475  0.09487  1.0000
  H   H1619     1.0  0.92863  0.69973  0.11402  1.0000
  C   C1623     1.0  0.80442  0.77248  0.21070  1.0000
  C   C1624     1.0  0.92418  0.70833  0.14381  1.0000
  H   H1620     1.0  0.78207  0.79736  0.21429  1.0000
  C   C1625     1.0  0.82606  0.79038  0.23452  1.0000
  C   C1626     1.0  0.94276  0.68838  0.16754  1.0000
  H   H1621     1.0  0.69380  0.98402  0.03001  1.0000
  C   C1627     1.0  0.52173  0.86709  0.08715  1.0000
  H   H1622     1.0  0.53609  0.94836  0.17041  1.0000
  S   S544      1.0  0.83290  0.74116  0.20609  1.0000
  C   C1628     1.0  0.66556  0.81172  0.20845  1.0000
  H   H1623     1.0  0.79614  0.76567  0.20127  1.0000
  H   H1624     1.0  0.64454  0.79045  0.21839  1.0000
  H   H1625     1.0  0.71075  0.78869  0.23692  1.0000
  Fe  Fe274     1.0  0.63567  0.72568  0.24188  1.0000
  C   C1629     1.0  0.58130  0.90936  0.13185  1.0000
  C   C1630     1.0  0.54821  0.94766  0.15858  1.0000
  H   H1626     1.0  0.70415  0.92716  0.12319  1.0000
  S   S545      1.0  0.53001  0.99582  0.10939  1.0000
  H   H1627     1.0  0.58244  0.90919  0.11553  1.0000
  S   S546      1.0  0.75458  0.86276  0.24103  1.0000
  C   C1631     1.0  0.68049  0.97912  0.02582  1.0000
  H   H1628     1.0  0.63414  0.96028  0.00965  1.0000
  H   H1629     1.0  0.55124  0.91600  0.16020  1.0000
  C   C1632     1.0  0.55371  0.90867  0.07837  1.0000
  H   H1630     1.0  0.80773  0.72177  0.23823  1.0000
  C   C1633     1.0  0.50486  0.87545  0.07822  1.0000
  H   H1631     1.0  0.83459  0.79740  0.24354  1.0000
  C   C1634     1.0  0.50403  0.89494  0.06940  1.0000
  H   H1632     1.0  0.55430  0.74657  0.24552  1.0000
  S   S547      1.0  0.90633  0.66678  0.20382  1.0000
  C   C1635     1.0  0.66622  0.99423  0.11122  1.0000
  H   H1633     1.0  0.68096  0.99426  0.10327  1.0000
  C   C1636     1.0  0.55246  0.67369  0.21456  1.0000
  H   H1634     1.0  0.56534  0.68031  0.21770  1.0000
  H   H1635     1.0  0.52591  0.73723  0.23013  1.0000
  H   H1636     1.0  0.61356  0.99393  0.14008  1.0000
  C   C1637     1.0  0.62824  0.99395  0.13197  1.0000
  C   C1638     1.0  0.65200  0.80489  0.24254  1.0000
  C   C1639     1.0  0.52712  0.73317  0.24582  1.0000
  H   H1637     1.0  0.82507  0.66857  0.21024  1.0000
  N   N136      1.0  0.66341  0.81798  0.24816  1.0000
  H   H1638     1.0  0.78862  0.70633  0.24834  1.0000
  H   H1639     1.0  0.96237  0.66388  0.15700  1.0000
  Fe  Fe275     1.0  0.95113  0.78569  0.38000  1.0000
  S   S548      1.0  0.96362  0.75410  0.38752  1.0000
  S   S549      1.0  0.92106  0.79836  0.39325  1.0000
  Fe  Fe276     1.0  0.98369  0.79312  0.34710  1.0000
  Fe  Fe277     1.0  0.72627  0.81846  0.26481  1.0000
  C   C1640     1.0  0.91655  0.72241  0.37245  1.0000
  Fe  Fe278     1.0  0.96731  0.75312  0.35431  1.0000
  S   S550      1.0  0.95793  0.72721  0.34063  1.0000
  Fe  Fe279     1.0  0.99360  0.76623  0.38430  1.0000
  H   H1640     1.0  0.82376  0.91486  0.30577  1.0000
  S   S551      1.0  0.95320  0.78393  0.34728  1.0000
  S   S552      1.0  0.98050  0.79783  0.37933  1.0000
  Fe  Fe280     1.0  0.84453  0.93779  0.35112  1.0000
  S   S553      1.0  0.81727  0.93119  0.37180  1.0000
  S   S554      1.0  0.84656  0.96214  0.32626  1.0000
  Fe  Fe281     1.0  0.87087  0.90301  0.36890  1.0000
  S   S555      1.0  0.84575  0.89346  0.39073  1.0000
  S   S556      1.0  0.90309  0.89000  0.36789  1.0000
  Fe  Fe282     1.0  0.82684  0.89970  0.36512  1.0000
  S   S557      1.0  0.80940  0.87551  0.35754  1.0000
  Fe  Fe283     1.0  0.83874  0.92581  0.39536  1.0000
  S   S558      1.0  0.83665  0.93350  0.42739  1.0000
  S   S559      1.0  0.85286  0.90696  0.34309  1.0000
  S   S560      1.0  0.86507  0.93472  0.37483  1.0000
  C   C1641     1.0  0.82653  0.88367  0.30277  1.0000
  S   S561      1.0  0.74788  0.88029  0.29260  1.0000
  C   C1642     1.0  0.89127  0.86174  0.42464  1.0000
  N   N137      1.0  0.80687  0.87378  0.27939  1.0000
  S   S562      1.0  0.89812  0.73468  0.27379  1.0000
  H   H1641     1.0  0.91407  0.89688  0.43084  1.0000
  H   H1642     1.0  0.94787  0.84925  0.31386  1.0000
  C   C1643     1.0  0.98383  0.88014  0.30036  1.0000
  H   H1643     1.0  0.95944  0.91938  0.33803  1.0000
  H   H1644     1.0  0.80540  0.71271  0.26428  1.0000
  S   S563      1.0  0.58754  0.71907  0.30431  1.0000
  C   C1644     1.0  0.87310  0.89216  0.43227  1.0000
  H   H1645     1.0  0.97773  0.85334  0.28964  1.0000
  C   C1645     1.0  0.88875  0.75378  0.33387  1.0000
  C   C1646     1.0  0.95620  0.86183  0.31371  1.0000
  C   C1647     1.0  0.79940  0.89302  0.27497  1.0000
  C   C1648     1.0  0.76362  0.73660  0.25664  1.0000
  H   H1646     1.0  0.67818  0.76721  0.29141  1.0000
  C   C1649     1.0  0.83532  0.97465  0.42396  1.0000
  H   H1647     1.0  0.74993  0.78350  0.26816  1.0000
  Fe  Fe284     1.0  0.74266  0.85687  0.27302  1.0000
  S   S564      1.0  0.75445  0.82485  0.27607  1.0000
  H   H1648     1.0  0.96652  0.89894  0.35590  1.0000
  H   H1649     1.0  0.67618  0.82620  0.27267  1.0000
  S   S565      1.0  0.70820  0.79361  0.27911  1.0000
  C   C1650     1.0  0.84209  0.98709  0.35527  1.0000
  H   H1650     1.0  0.93005  0.72579  0.37860  1.0000
  N   N138      1.0  0.89030  0.88175  0.42502  1.0000
  H   H1651     1.0  0.90494  0.85339  0.41906  1.0000
  H   H1652     1.0  0.88945  0.96064  0.33662  1.0000
  H   H1653     1.0  0.90360  0.90548  0.40772  1.0000
  H   H1654     1.0  0.64262  0.79643  0.25353  1.0000
  C   C1651     1.0  0.89637  0.97313  0.34008  1.0000
  C   C1652     1.0  0.85607  0.88263  0.43885  1.0000
  C   C1653     1.0  0.67021  0.75712  0.26493  1.0000
  C   C1654     1.0  0.58297  0.70367  0.32677  1.0000
  C   C1655     1.0  0.58107  0.71265  0.34431  1.0000
  C   C1656     1.0  0.57704  0.70178  0.36272  1.0000
  C   C1657     1.0  0.57446  0.68172  0.36405  1.0000
  C   C1658     1.0  0.54311  0.73834  0.25442  1.0000
  C   C1659     1.0  0.58028  0.68351  0.32780  1.0000
  H   H1655     1.0  0.58286  0.72820  0.34373  1.0000
  H   H1656     1.0  0.57588  0.70905  0.37610  1.0000
  H   H1657     1.0  0.65875  0.74857  0.27276  1.0000
  C   C1660     1.0  0.99021  0.84213  0.34886  1.0000
  H   H1658     1.0  0.91957  0.88290  0.40964  1.0000
  H   H1659     1.0  0.54204  0.72472  0.31319  1.0000
  S   S566      1.0  0.57019  0.66928  0.38821  1.0000
  H   H1660     1.0  0.90555  0.71736  0.38477  1.0000
  C   C1661     1.0  0.85673  0.86233  0.43796  1.0000
  N   N139      1.0  0.53113  0.72168  0.28571  1.0000
  H   H1661     1.0  0.00096  0.77536  0.43546  1.0000
  H   H1662     1.0  0.93763  0.87354  0.33811  1.0000
  H   H1663     1.0  0.92169  0.71018  0.36308  1.0000
  C   C1662     1.0  0.99329  0.98701  0.32425  1.0000
  C   C1663     1.0  0.90915  0.75831  0.36556  1.0000
  C   C1664     1.0  0.81932  0.90338  0.29806  1.0000
  S   S567      1.0  0.63601  0.70327  0.26870  1.0000
  H   H1664     1.0  0.98725  0.90501  0.31558  1.0000
  H   H1665     1.0  0.88418  0.78559  0.32961  1.0000
  Fe  Fe285     1.0  0.88341  0.71445  0.25663  1.0000
  C   C1665     1.0  0.78010  0.76979  0.26392  1.0000
  H   H1666     1.0  0.78807  0.89666  0.26481  1.0000
  H   H1667     1.0  0.84347  0.85486  0.44256  1.0000
  C   C1666     1.0  0.79174  0.87716  0.33997  1.0000
  C   C1667     1.0  0.78221  0.89526  0.33247  1.0000
  C   C1668     1.0  0.76851  0.89585  0.31836  1.0000
  C   C1669     1.0  0.76444  0.87846  0.31126  1.0000
  C   C1670     1.0  0.77389  0.86034  0.31883  1.0000
  C   C1671     1.0  0.78730  0.85971  0.33323  1.0000
  H   H1668     1.0  0.78527  0.90879  0.33766  1.0000
  H   H1669     1.0  0.76117  0.90994  0.31276  1.0000
  H   H1670     1.0  0.77072  0.84679  0.31378  1.0000
  H   H1671     1.0  0.79439  0.84561  0.33909  1.0000
  H   H1672     1.0  0.89642  0.72272  0.34116  1.0000
  H   H1673     1.0  0.90216  0.78970  0.35837  1.0000
  H   H1674     1.0  0.91710  0.76027  0.37793  1.0000
  S   S568      1.0  0.71318  0.85013  0.26489  1.0000
  H   H1675     1.0  0.62010  0.68059  0.34372  1.0000
  H   H1676     1.0  0.51967  0.71269  0.31554  1.0000
  H   H1677     1.0  0.58122  0.67649  0.31431  1.0000
  C   C1672     1.0  0.94239  0.72934  0.32106  1.0000
  C   C1673     1.0  0.93567  0.71223  0.31575  1.0000
  C   C1674     1.0  0.92245  0.71342  0.30106  1.0000
  C   C1675     1.0  0.91585  0.73180  0.29143  1.0000
  C   C1676     1.0  0.92285  0.74886  0.29654  1.0000
  C   C1677     1.0  0.93597  0.74767  0.31125  1.0000
  H   H1678     1.0  0.94058  0.69795  0.32316  1.0000
  H   H1679     1.0  0.91725  0.70016  0.29731  1.0000
  H   H1680     1.0  0.91791  0.76315  0.28917  1.0000
  H   H1681     1.0  0.94103  0.76097  0.31505  1.0000
  C   C1678     1.0  0.91598  0.82371  0.38575  1.0000
  C   C1679     1.0  0.93149  0.83574  0.38145  1.0000
  C   C1680     1.0  0.92731  0.85607  0.37614  1.0000
  C   C1681     1.0  0.90766  0.86443  0.37451  1.0000
  C   C1682     1.0  0.89212  0.85241  0.37863  1.0000
  C   C1683     1.0  0.89627  0.83210  0.38449  1.0000
  H   H1682     1.0  0.94668  0.82944  0.38268  1.0000
  H   H1683     1.0  0.93939  0.86532  0.37344  1.0000
  H   H1684     1.0  0.87690  0.85875  0.37743  1.0000
  H   H1685     1.0  0.88421  0.82284  0.38782  1.0000
  C   C1684     1.0  0.82007  0.86896  0.29328  1.0000
  H   H1686     1.0  0.88086  0.97326  0.36932  1.0000
  C   C1685     1.0  0.80563  0.90813  0.28409  1.0000
  S   S569      1.0  0.84988  0.71922  0.25777  1.0000
  H   H1687     1.0  0.84655  0.97555  0.47838  1.0000
  H   H1688     1.0  0.87235  0.90802  0.43267  1.0000
  H   H1689     1.0  0.80925  0.84397  0.27182  1.0000
  H   H1690     1.0  0.87517  0.83597  0.42998  1.0000
  C   C1686     1.0  0.83862  0.95676  0.43589  1.0000
  C   C1687     1.0  0.90957  0.98258  0.32590  1.0000
  H   H1691     1.0  0.55786  0.73580  0.28075  1.0000
  C   C1688     1.0  0.89147  0.98039  0.35853  1.0000
  N   N140      1.0  0.96171  0.89081  0.32809  1.0000
  S   S570      1.0  0.88423  0.68126  0.25699  1.0000
  H   H1692     1.0  0.83548  0.97539  0.36495  1.0000
  C   C1689     1.0  0.53409  0.71445  0.30634  1.0000
  H   H1693     1.0  0.80822  0.75232  0.25866  1.0000
  N   N141      1.0  0.89932  0.99672  0.36265  1.0000
  S   S571      1.0  0.99838  0.76217  0.35163  1.0000
  H   H1694     1.0  0.75699  0.72371  0.25386  1.0000
  H   H1695     1.0  0.97829  0.83398  0.35615  1.0000
  N   N142      1.0  0.90773  0.73979  0.36062  1.0000
  H   H1696     1.0  0.83636  0.87973  0.31436  1.0000
  H   H1697     1.0  0.83189  0.97453  0.40891  1.0000
  C   C1690     1.0  0.90781  0.89224  0.41806  1.0000
  H   H1698     1.0  0.84231  0.89113  0.44406  1.0000
  C   C1691     1.0  0.99424  0.85917  0.35639  1.0000
  H   H1699     1.0  0.88130  0.75177  0.32114  1.0000
  C   C1692     1.0  0.51297  0.72241  0.25741  1.0000
  C   C1693     1.0  0.84272  0.95732  0.45555  1.0000
  C   C1694     1.0  0.68119  0.76776  0.27545  1.0000
  H   H1700     1.0  0.78672  0.78279  0.26649  1.0000
  C   C1695     1.0  0.89742  0.73737  0.34521  1.0000
  H   H1701     1.0  0.84517  0.94361  0.46498  1.0000
  C   C1696     1.0  0.87446  0.85175  0.43089  1.0000
  C   C1697     1.0  0.89052  0.77274  0.33852  1.0000
  C   C1698     1.0  0.90066  0.77505  0.35455  1.0000
  H   H1702     1.0  0.94102  0.90405  0.35010  1.0000
  H   H1703     1.0  0.79962  0.86246  0.25371  1.0000
  H   H1704     1.0  0.50406  0.70859  0.28638  1.0000
  C   C1699     1.0  0.75947  0.77026  0.26472  1.0000
  Fe  Fe286     1.0  0.85103  0.68670  0.25531  1.0000
  C   C1700     1.0  0.69566  0.77947  0.26543  1.0000
  C   C1701     1.0  0.51516  0.71687  0.27749  1.0000
  C   C1702     1.0  0.57592  0.67253  0.34649  1.0000
  H   H1705     1.0  0.79933  0.92331  0.28090  1.0000
  C   C1703     1.0  0.99491  0.98684  0.30366  1.0000
  Fe  Fe287     1.0  0.60319  0.71228  0.27432  1.0000
  H   H1706     1.0  0.64969  0.83307  0.27242  1.0000
  C   C1704     1.0  0.62311  0.66460  0.34561  1.0000
  C   C1705     1.0  0.84348  0.97545  0.46322  1.0000
  H   H1707     1.0  0.98576  0.86379  0.36980  1.0000
  H   H1708     1.0  0.91318  0.97736  0.31139  1.0000
  C   C1706     1.0  0.79697  0.71840  0.25143  1.0000
  N   N143      1.0  0.78387  0.73627  0.25585  1.0000
  C   C1707     1.0  0.95067  0.87546  0.32760  1.0000
  C   C1708     1.0  0.97291  0.86419  0.30004  1.0000
  C   C1709     1.0  0.97813  0.89323  0.31475  1.0000
  C   C1710     1.0  0.83556  0.99278  0.43178  1.0000
  C   C1711     1.0  0.95688  0.90394  0.34382  1.0000
  S   S572      1.0  0.51118  0.67252  0.30736  1.0000
  H   H1709     1.0  0.54314  0.69981  0.30687  1.0000
  C   C1712     1.0  0.79216  0.75255  0.25944  1.0000
  H   H1710     1.0  0.65967  0.80767  0.27896  1.0000
  C   C1713     1.0  0.79971  0.85826  0.26993  1.0000
  H   H1711     1.0  0.78432  0.85586  0.27640  1.0000
  C   C1714     1.0  0.84798  0.98470  0.33530  1.0000
  H   H1712     1.0  0.73504  0.75391  0.26177  1.0000
  H   H1713     1.0  0.82522  0.85363  0.29754  1.0000
  S   S573      1.0  0.82412  0.67180  0.26954  1.0000
  S   S574      1.0  0.99710  0.81415  0.32279  1.0000
  H   H1714     1.0  0.53178  0.66489  0.34196  1.0000
  H   H1715     1.0  0.99715  0.88184  0.29014  1.0000
  C   C1715     1.0  0.75112  0.75360  0.26109  1.0000
  S   S575      1.0  0.59369  0.69084  0.25608  1.0000
  C   C1716     1.0  0.54505  0.73220  0.27440  1.0000
  C   C1717     1.0  0.66206  0.82148  0.26906  1.0000
  C   C1718     1.0  0.83967  0.99334  0.45144  1.0000
  H   H1716     1.0  0.62239  0.68019  0.30916  1.0000
  S   S576      1.0  0.60352  0.73675  0.24920  1.0000
  Fe  Fe288     1.0  0.62668  0.68283  0.24897  1.0000
  C   C1719     1.0  0.62902  0.66453  0.30936  1.0000
  H   H1717     1.0  0.64484  0.66430  0.30293  1.0000
  C   C1720     1.0  0.00122  0.83601  0.33166  1.0000
  H   H1718     1.0  0.90445  0.99676  0.39264  1.0000
  C   C1721     1.0  0.50853  0.93837  0.83887  1.0000
  H   H1719     1.0  0.66001  0.98779  0.94258  1.0000
  H   H1720     1.0  0.52141  0.94665  0.83564  1.0000
  H   H1721     1.0  0.64109  0.95905  0.95430  1.0000
  C   C1722     1.0  0.66293  0.94508  0.97359  1.0000
  C   C1723     1.0  0.69119  0.96217  0.97433  1.0000
  C   C1724     1.0  0.66594  0.97605  0.95312  1.0000
  H   H1722     1.0  0.65442  0.93273  0.97891  1.0000
  H   H1723     1.0  0.70498  0.96350  0.98032  1.0000
  C   C1725     1.0  0.65529  0.95990  0.95972  1.0000
  C   C1726     1.0  0.68404  0.97717  0.96041  1.0000
  N   N144      1.0  0.68057  0.94647  0.98085  1.0000
  H   H1724     1.0  0.64627  0.99147  0.99280  1.0000
  C   C1727     1.0  0.68858  0.93079  0.99520  1.0000
  H   H1725     1.0  0.51049  0.92921  0.80953  1.0000
  H   H1726     1.0  0.69230  0.98983  0.95580  1.0000
  H   H1727     1.0  0.70024  0.92075  0.98758  1.0000
  C   C1728     1.0  0.50236  0.92867  0.82421  1.0000
  H   H1728     1.0  0.50191  0.94627  0.86868  1.0000
