data_image0
_chemical_formula_structural       HCHC3H2CH2SH3CHCH3CHC2HC2NH4FeHSFeSNCFe2CHS2HCHC2SCSFeS2FeS2FeSFeS2FeS2FeS2HFe2HS2HSCH2C6H4NSC3NCHC7H5C3SCHC8H4C2H4C2H2CHNC6H9CH2C2H3FeC2H2CH3CHCSHC3H2CNHC4SH2SCNCH2CHSCFeH4S2C2H3CH2CHC4HSHFeS2HSNFeS4HSFeS2FeHCFeHFeHS2FeS2FeS2FeSFeHS2FeS2FeSHFeSFeSCS2CHCFeNHC6H7C2HC2HCHCFeH2C5H5C5H2CHC6H4C6H2NC6H8NC6H8NHC3HCSH2C3HCH2CHSHC2HCNCHC3HFeCFeN2C6H5CH2CH2CH2CHC2H3SCH5CH4CH2C2HC2SHFeS2HFeS2FeS2FeSHFeSFeS2FeS2FeS2FeCFeS3HC4SH2FeHCHC2HCHC4H2C2NC2SCH3C6H4C6H4C7H4C4H3NC3H5C2SH2NH2NC6H3CFeH4CNHC3HCH5CHCSH2C2H4C3HC3HCH2C3HSH2CHSHFeS2FeSFeCSHFeSHFeS2FeHFeS3H3C2FeSCFeS2HFeS2C6H4C6SH2NC2HC3HC2H2SCHC6H4C2HCFeH2SH2NC6H7SCHCHCH2SCH4CSCSCH2NHCH5C2H4CH2C2HC2HSCFeSHFeS2Fe2S3FeS2FeS2FeSFeS3FeS2FeS2FeSFeS3CFeS2CH2CFeS2C6H4C6H5C3HCH3CHC7H4C5H2C4H2CHC6H5SHCH3C6H9NC2H2SFeH4SC2H2C2FeNHSH2NCHC3SCHCHSCHNCHNC6H8NC6H8FeHCH3CSH2C2HCNCHCHFeHNC5HC2H2C2HSCH3CHC3H2C2H2CH7C2H2FeH2NSCHC2H5CHC2HCSHFeS2FeS2FeSFeS3CHSHFeS2FeS2FeSFeHS2FeS2FeS2FeSFeS3HSNSHC6H4C3H3CH2CSC6H4C2H2NHC7H4C6H4C6H4C6SH2CH2CH3SH2CH2NC6H3CH2C2H2C2FeC7H2C2HCNC4H8CHNC6H7NC6H10FeHNCNH2NH2CH2CFeHC7H2C2HCFeHCH2CH3C2SH2C2H2CHCH2CFeH2SH2C2SFeS2CHSFeS2C2HFeHFeS2FeSCFeSFeS2FeS2FeS2FeSFeCS2HCSH2NH2CH4C6H4SHC2HCHSH2C6H3C6H2C6H5NC3HC2HCHCH5CHCH2C5HCHNH4FeSHCHCHNHCH2CH2CHC2SCHNHCSHCHFeHCH2CHC3H2C5H2CH3C2HCHCHFeC2H2SCH3FeS2CFeS2FeS2FeCFeS3FeS2FeSHFeSFeS3NC2NH4CHC2H4C2HSH2C6H4C3HCNC5H3C6H8C2H4CH3CH2C2H3C3HNCHCHCNH2CH2NHN2SHC2HCH3CH3CHCFeC2HC3HCHC3SC5HCSC2NHCHCHSC3HSC2NH2CH2C4H3SCH3CH3C2HCSH3SH3C3HSCHFeS2CH2Fe2SCFeSHSNC2FeS2FeSCFeS2FeSFeS3FeS2FeSFeSFeCS2HC2SHSC7H2CHC6H5CH2CHNSNC2HC5H4C6H5C4H4C6HCH2C3HCHNC3H4C4H7CHSHNHCSNHC4HC2H2SHCHCHC2HCH2CH2C2HCNC2SH2C2H2FeHCH2CHCHC2SHCH3CHC3H2C3H4CH2C2HCH2NC2HCH3CH2SHCSFe2S2NCHNFeS2NFeSHSH2SH2FeSHCFeS2FeSFe2S3FeH2FeS2FeHCS2CHC6H4C3NH2CHCH3C5SCHC2HC3H2CH2C6H3C6H4CHSFeHC2HCHCH2CH3C2H2C3H2SHCSCNCSCHC3H2SH5CH3CH2CS2NC3HC2HCH2C2H2CSH2C3SHCHCSH4SCH3CHFeHCHCHCHSHFeS2HCHFeNSH2SFeS2FeCHFeHFeHS2FeS2FeCFeSH2S2FeCHFeS2FeCFeHS2H2C2HFeH2C2HC6H4SHSNHCH2C6H4CH3SHCSHC6H4C7H2C2SCNC8H4CHCHC2H2C2SH2C2HNCH3C3SH3C2H2CH3NC2SHCH2C6NHC2H2NHSCH4SC2HSHCHC3H2NCHCH2CH3SNCFeHFeSCFeSCFeSFeCHCSHCS2HCH2C2SCFeSCFeS2FeSFeS3FeCFeS2FeCFeS3HCFeCHSC6H3CHN2C6H5C6H4C4HCHSH2C2HC3H4CH3SHCHSH2C2HCH2SHC3HCSC2H3C3FeC2SHSCSH2N2C6H4CH7CHCH4CSHFeCH5CHCHSHS2FeSCFeS2FeSCFeS2FeS2FeSFeS2FeHFeS2FeHFeNS2C2HC6H4CHCHCH3C6H4C6H4CHC2H4NHC2H2C3HCHCHSFeSH2C2H2SHFeNC2HC4H3SCH2NC2HNCH3C2S2H3CH2C2H4CS2C2H3CHC2H3CHC2SC3HC2HC2HC4HFeCH4C2HCHNHNCHCNCHFeCHSH3CH3CHCHCHC2H2CHCH2SH2SHCHSH2CHC4NFeCSNSH2NH2CHCHFeS2C4HSHFeS2FeS2FeSFeS2FeS2FeS2FeSFeS2CHC6H6C6HC2HC3H4SCH2SNCSC7H3C6H8C2HSCHCHCSCH2SHC4NHCHCSH4CNC6H8NC6H8FeSHCNCHC3SCHC2HCFeCHCH2NHC2HC2SH2CH2SCHC2H2C2SCH3SH9FeS2FeS2FeSFeS3H3SFeS2FeS3FeSFeS2Fe2S3FeS2FeS2FeSFeS3HC9HCH2C3H3CHCHSC6H4CHCH3CHC8H4C6H4C6H6C4H5CH3CH3CHFeNCHC2SC2H6C4HC4HCH3C2NC5H9NC4H5FeCH2NC3NSC3HCH2CH2C2HSCHCH2C2NSCNH2C2H4C3NCSFeC2SCHCHNCH5CH2CH2CHC3H8CHFeNHCHC2H2CSCFeS2FeS2FeSFeS3CH2CHFeSCFeS2FeSFeS3H2CSCSFeS2FeS2FeSFeS3C6H4C6H4C5H3CSC4H2C5H4C3HCHNH3C6H4C6H4C6H4C2SHCHC2H2CHCHC2NC6H9NC6H8NH2CHCHCHSHCH3C2HCHNHSH3NC3HCFeCHC2SC2HCHC2HSHCHCHCHCHCFeH2C2H2CSCNCNHCSNH2CHNC2HSCFeSC2H3CHCHSCH4CHCHFeS2FeSFeCFeHS2FeSHFeS2FeSFeS3C5NSC2H2NSC3H2CHCH2C4HSHCHCNH2CH3C3H2C4HCH3SH4CHC6H4C3H2CHCNC4H3CHSH2FeHFeHC2NCH2C2HC2HCH3FeCSC2H2CFeSHFeHSFeCSHCSHS2FeSHFeS2FeCFeS3HCNHC7H4S2CH2SC2H2C4H2C2HC3SCH4C4H2SH2CNHFeC2FeH3C2HCHC2H2C2FeNHCFeHCSH3FeS2FeH2S2CHCFeHCHFeCSHNHCSFeS2FeS2FeCFeS3FeS2FeS2FeSFeS3NCH2NC6H4CHCH5C3SH2C3HCH4C7H3CHC5HC8H4C6H2CHCH3C3SCSCHNH3CSH4C2H2CFeH5NC4HSCHSHNH2CH2CHC6HCHC2HSC3H2CSHCNCH4C2H2NC3SCHCH4CH2CHFeSHC2HC3FeHSHFeHSHSHFeS2FeS2FeCFe2SHSHFeSHFeSFeSFeSCSFeS2FeS2Fe2S3HCH4CHCH2C6H2CSCHC2H2C7H3C6H5C6H6CHNC6H9CNC6HC2HC2SHCHC3SFeSH4FeHCSHSHCHNC6H9CSNCH2CH2FeHCNC3HC4SHNFeC2HC2HCH4C2H4CH3CHCHCH2CNCH2CHC3HC2H3SCH5NC3HCH
_chemical_formula_sum              "H1728 C1728 S576 N144 Fe288"
_cell_length_a       67.7615
_cell_length_b       67.9612
_cell_length_c       68.0177
_cell_angle_alpha    81.8583
_cell_angle_beta     81.6419
_cell_angle_gamma    81.7

_space_group_name_H-M_alt    "P 1"
_space_group_IT_number       1

loop_
  _space_group_symop_operation_xyz
  'x, y, z'

loop_
  _atom_site_type_symbol
  _atom_site_label
  _atom_site_symmetry_multiplicity
  _atom_site_fract_x
  _atom_site_fract_y
  _atom_site_fract_z
  _atom_site_occupancy
  H   H1        1.0  0.99948  0.28389  0.06517  1.0000
  C   C1        1.0  0.00000  0.27789  0.99453  1.0000
  H   H2        1.0  0.44294  0.14420  0.01621  1.0000
  C   C2        1.0  0.44443  0.13326  0.00572  1.0000
  C   C3        1.0  0.01892  0.27210  0.98411  1.0000
  C   C4        1.0  0.46237  0.12055  0.00257  1.0000
  H   H3        1.0  0.48060  0.99601  0.18089  1.0000
  H   H4        1.0  0.47495  0.12169  0.01042  1.0000
  C   C5        1.0  0.42864  0.13213  0.99501  1.0000
  H   H5        1.0  0.29479  0.01105  0.98743  1.0000
  H   H6        1.0  0.99977  0.30810  0.08765  1.0000
  S   S1        1.0  0.99231  0.26529  0.01824  1.0000
  H   H7        1.0  0.41467  0.14207  0.99718  1.0000
  H   H8        1.0  0.02902  0.26010  0.99091  1.0000
  H   H9        1.0  0.47384  0.17878  0.99208  1.0000
  C   C6        1.0  0.48434  0.16607  0.98781  1.0000
  H   H10       1.0  0.47873  0.09788  0.98537  1.0000
  C   C7        1.0  0.46442  0.10709  0.98840  1.0000
  H   H11       1.0  0.03830  0.31166  0.98669  1.0000
  H   H12       1.0  0.07481  0.29874  0.98325  1.0000
  H   H13       1.0  0.00962  0.13866  0.39100  1.0000
  C   C8        1.0  0.00926  0.12821  0.44142  1.0000
  H   H14       1.0  0.02047  0.15159  0.41972  1.0000
  C   C9        1.0  0.01298  0.13821  0.42214  1.0000
  C   C10       1.0  0.99924  0.11121  0.44436  1.0000
  H   H15       1.0  0.99239  0.07321  0.43277  1.0000
  C   C11       1.0  0.00690  0.13097  0.40606  1.0000
  C   C12       1.0  0.99680  0.11400  0.40958  1.0000
  N   N1        1.0  0.99265  0.10467  0.42863  1.0000
  H   H16       1.0  0.01377  0.13374  0.45412  1.0000
  H   H17       1.0  0.99179  0.10867  0.39704  1.0000
  H   H18       1.0  0.99631  0.10359  0.45943  1.0000
  H   H19       1.0  0.01750  0.98819  0.27922  1.0000
  Fe  Fe1       1.0  0.46684  0.28663  0.61247  1.0000
  H   H20       1.0  0.26340  0.03232  0.61005  1.0000
  S   S2        1.0  0.40560  0.30216  0.57503  1.0000
  Fe  Fe2       1.0  0.46989  0.25499  0.58419  1.0000
  S   S3        1.0  0.46085  0.27814  0.55894  1.0000
  N   N2        1.0  0.44138  0.01968  0.66923  1.0000
  C   C13       1.0  0.42241  0.02670  0.66467  1.0000
  Fe  Fe3       1.0  0.38932  0.99837  0.61291  1.0000
  Fe  Fe4       1.0  0.43754  0.29172  0.58206  1.0000
  C   C14       1.0  0.45471  0.03376  0.67253  1.0000
  H   H21       1.0  0.11569  0.17451  0.58306  1.0000
  S   S4        1.0  0.44479  0.26690  0.60672  1.0000
  S   S5        1.0  0.48212  0.08823  0.65708  1.0000
  H   H22       1.0  0.99653  0.26000  0.57149  1.0000
  C   C15       1.0  0.99830  0.24887  0.58442  1.0000
  H   H23       1.0  0.41747  0.04268  0.66253  1.0000
  C   C16       1.0  0.03200  0.02468  0.66517  1.0000
  C   C17       1.0  0.26921  0.99351  0.58923  1.0000
  S   S6        1.0  0.00216  0.06337  0.63733  1.0000
  C   C18       1.0  0.24834  0.03909  0.60737  1.0000
  S   S7        1.0  0.39965  0.02888  0.61243  1.0000
  Fe  Fe5       1.0  0.06958  0.14441  0.54180  1.0000
  S   S8        1.0  0.03763  0.13690  0.54663  1.0000
  S   S9        1.0  0.09602  0.12225  0.53008  1.0000
  Fe  Fe6       1.0  0.05567  0.18891  0.54771  1.0000
  S   S10       1.0  0.02335  0.18422  0.55306  1.0000
  S   S11       1.0  0.06272  0.22096  0.54464  1.0000
  Fe  Fe7       1.0  0.03394  0.15595  0.57179  1.0000
  S   S12       1.0  0.01633  0.15172  0.60237  1.0000
  Fe  Fe8       1.0  0.02996  0.16601  0.52737  1.0000
  S   S13       1.0  0.06621  0.16172  0.56833  1.0000
  S   S14       1.0  0.06199  0.17237  0.52067  1.0000
  Fe  Fe9       1.0  0.22768  0.01425  0.55475  1.0000
  S   S15       1.0  0.47067  0.29499  0.64247  1.0000
  S   S16       1.0  0.25997  0.01973  0.55553  1.0000
  Fe  Fe10      1.0  0.18339  0.03421  0.55894  1.0000
  S   S17       1.0  0.17199  0.00753  0.55017  1.0000
  S   S18       1.0  0.16433  0.06171  0.57096  1.0000
  H   H24       1.0  0.00498  0.22388  0.56724  1.0000
  Fe  Fe11      1.0  0.48183  0.29644  0.56858  1.0000
  Fe  Fe12      1.0  0.19886  0.00689  0.52647  1.0000
  H   H25       1.0  0.00727  0.21004  0.63043  1.0000
  S   S19       1.0  0.20306  0.01542  0.58060  1.0000
  S   S20       1.0  0.20888  0.03499  0.53370  1.0000
  H   H26       1.0  0.13059  0.17181  0.49719  1.0000
  S   S21       1.0  0.03661  0.27599  0.61483  1.0000
  C   C19       1.0  0.22325  0.06924  0.56537  1.0000
  H   H27       1.0  0.45896  0.18562  0.64008  1.0000
  H   H28       1.0  0.45269  0.03607  0.68856  1.0000
  C   C20       1.0  0.05450  0.23609  0.56417  1.0000
  C   C21       1.0  0.04960  0.25689  0.55950  1.0000
  C   C22       1.0  0.04384  0.26938  0.57479  1.0000
  C   C23       1.0  0.04356  0.26119  0.59488  1.0000
  C   C24       1.0  0.04866  0.24041  0.59950  1.0000
  C   C25       1.0  0.05380  0.22787  0.58426  1.0000
  H   H29       1.0  0.05031  0.26339  0.54399  1.0000
  H   H30       1.0  0.04003  0.28536  0.57104  1.0000
  H   H31       1.0  0.04858  0.23396  0.61499  1.0000
  H   H32       1.0  0.05771  0.21191  0.58806  1.0000
  N   N3        1.0  0.99971  0.24093  0.61981  1.0000
  S   S22       1.0  0.37050  0.99107  0.59073  1.0000
  C   C26       1.0  0.01527  0.12674  0.61283  1.0000
  C   C27       1.0  0.02267  0.11089  0.60162  1.0000
  C   C28       1.0  0.01940  0.09121  0.60954  1.0000
  N   N4        1.0  0.02548  0.00828  0.65984  1.0000
  C   C29       1.0  0.99448  0.13912  0.50557  1.0000
  H   H33       1.0  0.03042  0.11383  0.58667  1.0000
  C   C30       1.0  0.00440  0.00925  0.65671  1.0000
  C   C31       1.0  0.11388  0.10463  0.54231  1.0000
  C   C32       1.0  0.12690  0.09110  0.53102  1.0000
  C   C33       1.0  0.14203  0.07755  0.53967  1.0000
  C   C34       1.0  0.14459  0.07758  0.55970  1.0000
  C   C35       1.0  0.13162  0.09117  0.57101  1.0000
  C   C36       1.0  0.11623  0.10448  0.56245  1.0000
  H   H34       1.0  0.12529  0.09108  0.51543  1.0000
  H   H35       1.0  0.15189  0.06728  0.53073  1.0000
  H   H36       1.0  0.13340  0.09131  0.58653  1.0000
  H   H37       1.0  0.10631  0.11471  0.57138  1.0000
  H   H38       1.0  0.25398  0.98987  0.59080  1.0000
  C   C37       1.0  0.30876  0.00276  0.58552  1.0000
  C   C38       1.0  0.29575  0.01187  0.57150  1.0000
  C   C39       1.0  0.27593  0.00727  0.57323  1.0000
  S   S23       1.0  0.01001  0.17511  0.50263  1.0000
  C   C40       1.0  0.24520  0.05055  0.58907  1.0000
  H   H39       1.0  0.30108  0.02258  0.55925  1.0000
  C   C41       1.0  0.00882  0.08741  0.62868  1.0000
  C   C42       1.0  0.10711  0.18835  0.53472  1.0000
  C   C43       1.0  0.46344  0.03847  0.62172  1.0000
  C   C44       1.0  0.44817  0.05464  0.62030  1.0000
  C   C45       1.0  0.42884  0.05154  0.61699  1.0000
  C   C46       1.0  0.42454  0.03227  0.61522  1.0000
  C   C47       1.0  0.43983  0.01613  0.61662  1.0000
  C   C48       1.0  0.45917  0.01924  0.61980  1.0000
  H   H40       1.0  0.45126  0.06952  0.62174  1.0000
  H   H41       1.0  0.41712  0.06412  0.61592  1.0000
  H   H42       1.0  0.43676  0.00124  0.61531  1.0000
  H   H43       1.0  0.47088  0.00666  0.62087  1.0000
  C   C49       1.0  0.05211  0.02438  0.66786  1.0000
  C   C50       1.0  0.46984  0.20288  0.61248  1.0000
  H   H44       1.0  0.46298  0.21714  0.61716  1.0000
  H   H45       1.0  0.48816  0.29109  0.52438  1.0000
  H   H46       1.0  0.99084  0.23768  0.65136  1.0000
  H   H47       1.0  0.02461  0.07906  0.60062  1.0000
  C   C51       1.0  0.00604  0.21452  0.59874  1.0000
  C   C52       1.0  0.23190  0.03590  0.62182  1.0000
  H   H48       1.0  0.45169  0.04849  0.66331  1.0000
  H   H49       1.0  0.09993  0.20091  0.52546  1.0000
  C   C53       1.0  0.12481  0.15636  0.55894  1.0000
  H   H50       1.0  0.23336  0.06189  0.55335  1.0000
  N   N5        1.0  0.42222  0.21354  0.59251  1.0000
  C   C54       1.0  0.40861  0.22915  0.59854  1.0000
  C   C55       1.0  0.43422  0.21582  0.57454  1.0000
  C   C56       1.0  0.40680  0.24764  0.58647  1.0000
  C   C57       1.0  0.43288  0.23412  0.56217  1.0000
  C   C58       1.0  0.41899  0.25007  0.56815  1.0000
  C   C59       1.0  0.42338  0.19418  0.60521  1.0000
  H   H51       1.0  0.39916  0.22741  0.61282  1.0000
  H   H52       1.0  0.44533  0.20363  0.56988  1.0000
  H   H53       1.0  0.39625  0.26018  0.59134  1.0000
  H   H54       1.0  0.44289  0.23603  0.54824  1.0000
  H   H55       1.0  0.41787  0.26442  0.55877  1.0000
  H   H56       1.0  0.43682  0.18377  0.60013  1.0000
  H   H57       1.0  0.42467  0.19624  0.62088  1.0000
  H   H58       1.0  0.40978  0.18689  0.60499  1.0000
  H   H59       1.0  0.23411  0.02667  0.63590  1.0000
  C   C60       1.0  0.49002  0.31011  0.63985  1.0000
  H   H60       1.0  0.10001  0.20336  0.56128  1.0000
  H   H61       1.0  0.16315  0.99726  0.60056  1.0000
  C   C61       1.0  0.21004  0.05574  0.59942  1.0000
  C   C62       1.0  0.21262  0.04444  0.61794  1.0000
  H   H62       1.0  0.19495  0.06194  0.59633  1.0000
  H   H63       1.0  0.32391  0.00658  0.58404  1.0000
  H   H64       1.0  0.22647  0.08487  0.56478  1.0000
  Fe  Fe13      1.0  0.02164  0.30832  0.61404  1.0000
  C   C63       1.0  0.47617  0.16635  0.61948  1.0000
  C   C64       1.0  0.46760  0.18503  0.62544  1.0000
  H   H65       1.0  0.00013  0.13491  0.64118  1.0000
  H   H66       1.0  0.39465  0.01911  0.65738  1.0000
  C   C65       1.0  0.10717  0.18986  0.55502  1.0000
  H   H67       1.0  0.13148  0.14355  0.56827  1.0000
  H   H68       1.0  0.08125  0.00664  0.66709  1.0000
  H   H69       1.0  0.00327  0.13385  0.51778  1.0000
  C   C66       1.0  0.44766  0.99951  0.67162  1.0000
  H   H70       1.0  0.00175  0.01869  0.64238  1.0000
  C   C67       1.0  0.48044  0.20214  0.59331  1.0000
  S   S24       1.0  0.19850  0.00060  0.49477  1.0000
  H   H71       1.0  0.13427  0.00271  0.62700  1.0000
  C   C68       1.0  0.40938  0.01344  0.66183  1.0000
  C   C69       1.0  0.99926  0.24741  0.63956  1.0000
  C   C70       1.0  0.00308  0.22860  0.58205  1.0000
  H   H72       1.0  0.25804  0.05265  0.57776  1.0000
  H   H73       1.0  0.20759  0.06950  0.56204  1.0000
  C   C71       1.0  0.14173  0.98770  0.62553  1.0000
  N   N6        1.0  0.22618  0.05814  0.58506  1.0000
  H   H74       1.0  0.05718  0.03746  0.67205  1.0000
  C   C72       1.0  0.12463  0.15545  0.53856  1.0000
  C   C73       1.0  0.11596  0.17369  0.56721  1.0000
  C   C74       1.0  0.00558  0.12275  0.63232  1.0000
  C   C75       1.0  0.06559  0.00716  0.66502  1.0000
  S   S25       1.0  0.48774  0.04124  0.62689  1.0000
  H   H75       1.0  0.02163  0.03814  0.66734  1.0000
  H   H76       1.0  0.11173  0.15482  0.50347  1.0000
  S   S26       1.0  0.47063  0.14423  0.63514  1.0000
  C   C76       1.0  0.00249  0.10311  0.64027  1.0000
  N   N7        1.0  0.11554  0.17117  0.52682  1.0000
  C   C77       1.0  0.11554  0.16974  0.50550  1.0000
  H   H77       1.0  0.13137  0.14184  0.53226  1.0000
  H   H78       1.0  0.47074  0.02817  0.66788  1.0000
  C   C78       1.0  0.99985  0.98725  0.70602  1.0000
  H   H79       1.0  0.46263  0.99394  0.67538  1.0000
  S   S27       1.0  0.48165  0.22390  0.57573  1.0000
  C   C79       1.0  0.03865  0.99141  0.65679  1.0000
  Fe  Fe14      1.0  0.19375  0.98912  0.56951  1.0000
  H   H80       1.0  0.19968  0.04195  0.62898  1.0000
  H   H81       1.0  0.00401  0.99817  0.71427  1.0000
  H   H82       1.0  0.99437  0.01586  0.66916  1.0000
  H   H83       1.0  0.10407  0.18112  0.49885  1.0000
  S   S28       1.0  0.36900  0.98647  0.63991  1.0000
  S   S29       1.0  0.45792  0.31203  0.58943  1.0000
  C   C80       1.0  0.48734  0.16569  0.60055  1.0000
  C   C81       1.0  0.41581  0.99290  0.66385  1.0000
  H   H84       1.0  0.00012  0.99411  0.65641  1.0000
  H   H85       1.0  0.14962  0.99496  0.71418  1.0000
  H   H86       1.0  0.01010  0.19872  0.59703  1.0000
  C   C82       1.0  0.99667  0.25481  0.60353  1.0000
  H   H87       1.0  0.99514  0.10021  0.65535  1.0000
  H   H88       1.0  0.01491  0.24685  0.64299  1.0000
  C   C83       1.0  0.48930  0.18352  0.58746  1.0000
  H   H89       1.0  0.99377  0.27069  0.60511  1.0000
  C   C84       1.0  0.99521  0.15855  0.49569  1.0000
  C   C85       1.0  0.00438  0.22101  0.61762  1.0000
  C   C86       1.0  0.30207  0.98896  0.60151  1.0000
  C   C87       1.0  0.05885  0.99058  0.65944  1.0000
  H   H90       1.0  0.99195  0.26311  0.64009  1.0000
  S   S30       1.0  0.21975  0.98644  0.54521  1.0000
  H   H91       1.0  0.99088  0.24101  0.50009  1.0000
  Fe  Fe15      1.0  0.03639  0.11022  0.84334  1.0000
  S   S31       1.0  0.02199  0.13427  0.82161  1.0000
  S   S32       1.0  0.06583  0.09387  0.82998  1.0000
  H   H92       1.0  0.35612  0.99011  0.87609  1.0000
  S   S33       1.0  0.11731  0.30678  0.91440  1.0000
  N   N8        1.0  0.00740  0.24926  0.93806  1.0000
  Fe  Fe16      1.0  0.01375  0.15201  0.84813  1.0000
  S   S34       1.0  0.01416  0.18572  0.84849  1.0000
  S   S35       1.0  0.00871  0.09499  0.85282  1.0000
  S   S36       1.0  0.03027  0.12898  0.86886  1.0000
  S   S37       1.0  0.10520  0.00988  0.86928  1.0000
  H   H93       1.0  0.35115  0.01334  0.79832  1.0000
  S   S38       1.0  0.14737  0.00092  0.82225  1.0000
  Fe  Fe17      1.0  0.06954  0.26206  0.89373  1.0000
  S   S39       1.0  0.04235  0.28257  0.88569  1.0000
  S   S40       1.0  0.07013  0.22847  0.89302  1.0000
  Fe  Fe18      1.0  0.09079  0.29732  0.90212  1.0000
  H   H94       1.0  0.99732  0.04255  0.81695  1.0000
  C   C88       1.0  0.48436  0.11876  0.85279  1.0000
  Fe  Fe19      1.0  0.04544  0.29771  0.91210  1.0000
  H   H95       1.0  0.03904  0.27677  0.95662  1.0000
  Fe  Fe20      1.0  0.06430  0.30260  0.86898  1.0000
  H   H96       1.0  0.43868  0.29666  0.83270  1.0000
  S   S41       1.0  0.07129  0.27589  0.92170  1.0000
  S   S42       1.0  0.09179  0.28112  0.87506  1.0000
  Fe  Fe21      1.0  0.44049  0.17580  0.91230  1.0000
  S   S43       1.0  0.43693  0.15440  0.94083  1.0000
  S   S44       1.0  0.43816  0.20883  0.91637  1.0000
  Fe  Fe22      1.0  0.45283  0.14180  0.88687  1.0000
  S   S45       1.0  0.45192  0.11843  0.91336  1.0000
  S   S46       1.0  0.45892  0.12854  0.85784  1.0000
  Fe  Fe23      1.0  0.42236  0.13554  0.92362  1.0000
  S   S47       1.0  0.40051  0.11316  0.93751  1.0000
  Fe  Fe24      1.0  0.46638  0.13894  0.92816  1.0000
  H   H97       1.0  0.48303  0.19357  0.91687  1.0000
  S   S48       1.0  0.42262  0.15862  0.89635  1.0000
  S   S49       1.0  0.47062  0.16069  0.90039  1.0000
  Fe  Fe25      1.0  0.33021  0.02351  0.87148  1.0000
  S   S50       1.0  0.30549  0.04900  0.87534  1.0000
  S   S51       1.0  0.34924  0.01963  0.84207  1.0000
  Fe  Fe26      1.0  0.32548  0.00739  0.91536  1.0000
  S   S52       1.0  0.30059  0.03170  0.92285  1.0000
  H   H98       1.0  0.29741  0.98842  0.95117  1.0000
  Fe  Fe27      1.0  0.28855  0.02576  0.89514  1.0000
  S   S53       1.0  0.25541  0.02080  0.89813  1.0000
  Fe  Fe28      1.0  0.31995  0.05249  0.90239  1.0000
  S   S54       1.0  0.32577  0.08322  0.90863  1.0000
  C   C89       1.0  0.99285  0.30304  0.96654  1.0000
  S   S55       1.0  0.34556  0.02853  0.89695  1.0000
  S   S56       1.0  0.31250  0.99997  0.88919  1.0000
  C   C90       1.0  0.44773  0.30325  0.84186  1.0000
  H   H99       1.0  0.32559  0.00795  0.80319  1.0000
  C   C91       1.0  0.04848  0.31767  0.97419  1.0000
  Fe  Fe29      1.0  0.13060  0.99130  0.85211  1.0000
  N   N9        1.0  0.43937  0.30072  0.86306  1.0000
  H   H100      1.0  0.03322  0.07715  0.81914  1.0000
  C   C92       1.0  0.38171  0.10514  0.92581  1.0000
  C   C93       1.0  0.38123  0.08453  0.92552  1.0000
  C   C94       1.0  0.36472  0.07755  0.91934  1.0000
  C   C95       1.0  0.34813  0.09111  0.91409  1.0000
  C   C96       1.0  0.34882  0.11170  0.91401  1.0000
  C   C97       1.0  0.36556  0.11869  0.91961  1.0000
  H   H101      1.0  0.39350  0.07387  0.93054  1.0000
  H   H102      1.0  0.36455  0.06168  0.91925  1.0000
  H   H103      1.0  0.33608  0.12233  0.91005  1.0000
  H   H104      1.0  0.36541  0.13454  0.92022  1.0000
  H   H105      1.0  0.07370  0.03874  0.88464  1.0000
  H   H106      1.0  0.10947  0.02994  0.82831  1.0000
  H   H107      1.0  0.02161  0.28137  0.81385  1.0000
  C   C98       1.0  0.01145  0.29691  0.95586  1.0000
  C   C99       1.0  0.02732  0.24077  0.92928  1.0000
  H   H108      1.0  0.05791  0.07168  0.86964  1.0000
  C   C100      1.0  0.00743  0.06663  0.78417  1.0000
  C   C101      1.0  0.29415  0.04184  0.97387  1.0000
  H   H109      1.0  0.24373  0.01570  0.82894  1.0000
  C   C102      1.0  0.49005  0.10418  0.83969  1.0000
  H   H110      1.0  0.00853  0.22971  0.96546  1.0000
  C   C103      1.0  0.47567  0.23409  0.87039  1.0000
  Fe  Fe30      1.0  0.17558  0.98920  0.83624  1.0000
  H   H111      1.0  0.04395  0.29318  0.81252  1.0000
  H   H112      1.0  0.99487  0.05894  0.78264  1.0000
  C   C104      1.0  0.47008  0.25578  0.89643  1.0000
  C   C105      1.0  0.45792  0.24233  0.90842  1.0000
  C   C106      1.0  0.45455  0.22474  0.90142  1.0000
  C   C107      1.0  0.46379  0.22051  0.88248  1.0000
  C   C108      1.0  0.47872  0.25187  0.87718  1.0000
  H   H113      1.0  0.47236  0.26940  0.90185  1.0000
  H   H114      1.0  0.45088  0.24570  0.92309  1.0000
  H   H115      1.0  0.46135  0.20703  0.87689  1.0000
  H   H116      1.0  0.07864  0.21133  0.83655  1.0000
  H   H117      1.0  0.42083  0.26536  0.89828  1.0000
  C   C109      1.0  0.02858  0.07705  0.80457  1.0000
  C   C110      1.0  0.24912  0.01830  0.85895  1.0000
  C   C111      1.0  0.24116  0.01719  0.87919  1.0000
  C   C112      1.0  0.22149  0.01218  0.88483  1.0000
  C   C113      1.0  0.21003  0.00802  0.87052  1.0000
  H   H118      1.0  0.43884  0.09422  0.95401  1.0000
  H   H119      1.0  0.00331  0.27185  0.91324  1.0000
  C   C114      1.0  0.36772  0.99899  0.84538  1.0000
  H   H120      1.0  0.33447  0.06190  0.94767  1.0000
  C   C115      1.0  0.02881  0.19688  0.86257  1.0000
  C   C116      1.0  0.04531  0.18608  0.87112  1.0000
  C   C117      1.0  0.05750  0.19590  0.88073  1.0000
  C   C118      1.0  0.05345  0.21664  0.88188  1.0000
  C   C119      1.0  0.03664  0.22737  0.87377  1.0000
  C   C120      1.0  0.02440  0.21752  0.86424  1.0000
  H   H121      1.0  0.04895  0.17022  0.86996  1.0000
  H   H122      1.0  0.07040  0.18740  0.88699  1.0000
  H   H123      1.0  0.03329  0.24330  0.87441  1.0000
  H   H124      1.0  0.01168  0.22604  0.85768  1.0000
  C   C121      1.0  0.07494  0.06962  0.84055  1.0000
  C   C122      1.0  0.08936  0.05764  0.82892  1.0000
  C   C123      1.0  0.09822  0.03893  0.83735  1.0000
  C   C124      1.0  0.09282  0.03216  0.85754  1.0000
  C   C125      1.0  0.07803  0.04393  0.86903  1.0000
  C   C126      1.0  0.06902  0.06256  0.86055  1.0000
  H   H125      1.0  0.09393  0.06297  0.81340  1.0000
  H   H126      1.0  0.03921  0.24685  0.93536  1.0000
  N   N10       1.0  0.40433  0.09960  0.87142  1.0000
  C   C127      1.0  0.42117  0.08686  0.86598  1.0000
  C   C128      1.0  0.38560  0.09395  0.87227  1.0000
  C   C129      1.0  0.41949  0.06776  0.86139  1.0000
  C   C130      1.0  0.38337  0.07494  0.86790  1.0000
  C   C131      1.0  0.40044  0.06178  0.86243  1.0000
  C   C132      1.0  0.40666  0.11921  0.87671  1.0000
  H   H127      1.0  0.43602  0.09149  0.86520  1.0000
  H   H128      1.0  0.37224  0.10404  0.87654  1.0000
  H   H129      1.0  0.43290  0.05768  0.85713  1.0000
  H   H130      1.0  0.36846  0.07045  0.86888  1.0000
  H   H131      1.0  0.39888  0.04699  0.85900  1.0000
  H   H132      1.0  0.41543  0.12774  0.86408  1.0000
  H   H133      1.0  0.39197  0.12839  0.88038  1.0000
  H   H134      1.0  0.41481  0.11716  0.89005  1.0000
  N   N11       1.0  0.14045  0.04719  0.86310  1.0000
  C   C133      1.0  0.15737  0.03964  0.85157  1.0000
  C   C134      1.0  0.12807  0.06330  0.85546  1.0000
  C   C135      1.0  0.16187  0.04781  0.83164  1.0000
  C   C136      1.0  0.13213  0.07186  0.83559  1.0000
  C   C137      1.0  0.14907  0.06394  0.82358  1.0000
  C   C138      1.0  0.13612  0.03852  0.88401  1.0000
  H   H135      1.0  0.16740  0.02709  0.85766  1.0000
  H   H136      1.0  0.11457  0.06924  0.86452  1.0000
  H   H137      1.0  0.17513  0.04147  0.82249  1.0000
  H   H138      1.0  0.12184  0.08422  0.82946  1.0000
  H   H139      1.0  0.15221  0.07020  0.80805  1.0000
  H   H140      1.0  0.11972  0.04098  0.88932  1.0000
  H   H141      1.0  0.14034  0.02199  0.88562  1.0000
  H   H142      1.0  0.14446  0.04526  0.89369  1.0000
  N   N12       1.0  0.44895  0.10623  0.97779  1.0000
  H   H143      1.0  0.45310  0.07645  0.97051  1.0000
  C   C139      1.0  0.03240  0.08806  0.76908  1.0000
  C   C140      1.0  0.38211  0.99409  0.82928  1.0000
  C   C141      1.0  0.43049  0.31355  0.89477  1.0000
  H   H144      1.0  0.47877  0.09896  0.83268  1.0000
  C   C142      1.0  0.43809  0.31605  0.87446  1.0000
  S   S57       1.0  0.01749  0.30894  0.93153  1.0000
  H   H145      1.0  0.02946  0.24433  0.91273  1.0000
  H   H146      1.0  0.47629  0.21659  0.94282  1.0000
  C   C143      1.0  0.42405  0.29531  0.90339  1.0000
  C   C144      1.0  0.99696  0.26526  0.92784  1.0000
  C   C145      1.0  0.02457  0.28145  0.96468  1.0000
  H   H147      1.0  0.46549  0.09428  0.95226  1.0000
  C   C146      1.0  0.35617  0.02623  0.95446  1.0000
  H   H148      1.0  0.02881  0.28802  0.83624  1.0000
  H   H149      1.0  0.33101  0.00246  0.97656  1.0000
  C   C147      1.0  0.43111  0.11832  0.98112  1.0000
  H   H150      1.0  0.26418  0.02219  0.85436  1.0000
  S   S58       1.0  0.20407  0.00453  0.83152  1.0000
  H   H151      1.0  0.46848  0.16141  0.96385  1.0000
  C   C148      1.0  0.06891  0.31037  0.97220  1.0000
  C   C149      1.0  0.30545  0.05615  0.96266  1.0000
  H   H152      1.0  0.43534  0.27020  0.86270  1.0000
  C   C150      1.0  0.32398  0.01766  0.97284  1.0000
  N   N13       1.0  0.33495  0.03178  0.96186  1.0000
  C   C151      1.0  0.21795  0.00928  0.85026  1.0000
  H   H153      1.0  0.41882  0.11769  0.97271  1.0000
  C   C152      1.0  0.00243  0.05635  0.82039  1.0000
  C   C153      1.0  0.34081  0.00296  0.79565  1.0000
  C   C154      1.0  0.23750  0.01455  0.84458  1.0000
  H   H154      1.0  0.02945  0.22416  0.93253  1.0000
  Fe  Fe31      1.0  0.99389  0.11974  0.83212  1.0000
  C   C155      1.0  0.32594  0.05080  0.95671  1.0000
  Fe  Fe32      1.0  0.00087  0.11603  0.87620  1.0000
  N   N14       1.0  0.01335  0.06659  0.80257  1.0000
  N   N15       1.0  0.04690  0.26268  0.82530  1.0000
  C   C156      1.0  0.04158  0.24592  0.81944  1.0000
  C   C157      1.0  0.06357  0.26141  0.83482  1.0000
  C   C158      1.0  0.05312  0.22727  0.82306  1.0000
  C   C159      1.0  0.07534  0.24298  0.83885  1.0000
  C   C160      1.0  0.07005  0.22583  0.83290  1.0000
  C   C161      1.0  0.03466  0.28218  0.82176  1.0000
  H   H155      1.0  0.02817  0.24676  0.81222  1.0000
  H   H156      1.0  0.06770  0.27468  0.83957  1.0000
  H   H157      1.0  0.04846  0.21387  0.81904  1.0000
  H   H158      1.0  0.08812  0.24190  0.84708  1.0000
  H   H159      1.0  0.21520  0.01123  0.90044  1.0000
  C   C162      1.0  0.42541  0.27978  0.89167  1.0000
  H   H160      1.0  0.19507  0.00394  0.87518  1.0000
  H   H161      1.0  0.38278  0.00386  0.81526  1.0000
  C   C163      1.0  0.99988  0.24182  0.95700  1.0000
  H   H162      1.0  0.46342  0.29560  0.84000  1.0000
  H   H163      1.0  0.03950  0.09680  0.75608  1.0000
  C   C164      1.0  0.01698  0.07719  0.76713  1.0000
  H   H164      1.0  0.29836  0.07115  0.95806  1.0000
  H   H165      1.0  0.01187  0.07759  0.75264  1.0000
  C   C165      1.0  0.43349  0.28265  0.87149  1.0000
  H   H166      1.0  0.05018  0.09646  0.78977  1.0000
  C   C166      1.0  0.03832  0.08796  0.78792  1.0000
  C   C167      1.0  0.45167  0.09207  0.96295  1.0000
  H   H167      1.0  0.41826  0.29313  0.91917  1.0000
  H   H168      1.0  0.27815  0.04567  0.97823  1.0000
  H   H169      1.0  0.09759  0.31228  0.95399  1.0000
  S   S59       1.0  0.05968  0.31763  0.83819  1.0000
  C   C168      1.0  0.48132  0.15627  0.97179  1.0000
  H   H170      1.0  0.01206  0.05188  0.83260  1.0000
  H   H171      1.0  0.48172  0.98729  0.83825  1.0000
  H   H172      1.0  0.48404  0.01968  0.80132  1.0000
  H   H173      1.0  0.33989  0.00418  0.77934  1.0000
  H   H174      1.0  0.36289  0.01282  0.96372  1.0000
  C   C169      1.0  0.48940  0.20532  0.94267  1.0000
  H   H175      1.0  0.35746  0.02252  0.93890  1.0000
  H   H176      1.0  0.48357  0.99742  0.77668  1.0000
  H   H177      1.0  0.48235  0.23089  0.85555  1.0000
  H   H178      1.0  0.36510  0.03867  0.95467  1.0000
  C   C170      1.0  0.30345  0.02246  0.97904  1.0000
  H   H179      1.0  0.99323  0.12869  0.77827  1.0000
  H   H180      1.0  0.99254  0.12644  0.74217  1.0000
  C   C171      1.0  0.08168  0.31794  0.95579  1.0000
  C   C172      1.0  0.36708  0.98640  0.86354  1.0000
  H   H181      1.0  0.48922  0.04083  0.78260  1.0000
  C   C173      1.0  0.99546  0.58417  0.09421  1.0000
  C   C174      1.0  0.16489  0.52451  0.14844  1.0000
  S   S60       1.0  0.44827  0.62912  0.09189  1.0000
  H   H182      1.0  0.15506  0.57444  0.13760  1.0000
  Fe  Fe33      1.0  0.39112  0.58872  0.01483  1.0000
  S   S61       1.0  0.36781  0.61553  0.01621  1.0000
  S   S62       1.0  0.41361  0.57726  0.03688  1.0000
  H   H183      1.0  0.03636  0.60838  0.12580  1.0000
  Fe  Fe34      1.0  0.34646  0.59637  0.00801  1.0000
  S   S63       1.0  0.31381  0.59851  0.02241  1.0000
  S   S64       1.0  0.36897  0.56898  0.00967  1.0000
  Fe  Fe35      1.0  0.03621  0.50645  0.18409  1.0000
  S   S65       1.0  0.06308  0.51305  0.19697  1.0000
  S   S66       1.0  0.03110  0.47509  0.18051  1.0000
  Fe  Fe36      1.0  0.01788  0.54983  0.18065  1.0000
  S   S67       1.0  0.04288  0.56014  0.19307  1.0000
  H   H184      1.0  0.14203  0.54241  0.00845  1.0000
  Fe  Fe37      1.0  0.06307  0.53964  0.17288  1.0000
  S   S68       1.0  0.08865  0.55320  0.15213  1.0000
  Fe  Fe38      1.0  0.04058  0.53294  0.21587  1.0000
  S   S69       1.0  0.03774  0.53153  0.15889  1.0000
  S   S70       1.0  0.01402  0.52410  0.20455  1.0000
  Fe  Fe39      1.0  0.22152  0.53591  0.04459  1.0000
  S   S71       1.0  0.20751  0.54999  0.01738  1.0000
  S   S72       1.0  0.25583  0.53015  0.04160  1.0000
  Fe  Fe40      1.0  0.18049  0.52835  0.06861  1.0000
  S   S73       1.0  0.16363  0.54182  0.04304  1.0000
  S   S74       1.0  0.16390  0.51400  0.09755  1.0000
  Fe  Fe41      1.0  0.18802  0.52525  0.02348  1.0000
  C   C175      1.0  0.02897  0.56231  0.10930  1.0000
  Fe  Fe42      1.0  0.18407  0.56550  0.03862  1.0000
  S   S75       1.0  0.17005  0.59712  0.03059  1.0000
  S   S76       1.0  0.20371  0.50952  0.04930  1.0000
  S   S77       1.0  0.19949  0.55354  0.06589  1.0000
  H   H185      1.0  0.12743  0.56918  0.16521  1.0000
  C   C176      1.0  0.16779  0.60246  0.00487  1.0000
  C   C177      1.0  0.23779  0.49906  0.00300  1.0000
  C   C178      1.0  0.19245  0.45479  0.00057  1.0000
  C   C179      1.0  0.16039  0.62183  0.99697  1.0000
  S   S78       1.0  0.17939  0.51558  0.99574  1.0000
  H   H186      1.0  0.46099  0.56008  0.22386  1.0000
  H   H187      1.0  0.15677  0.63360  0.00656  1.0000
  Fe  Fe43      1.0  0.47868  0.62170  0.10367  1.0000
  H   H188      1.0  0.35256  0.53484  0.05815  1.0000
  C   C180      1.0  0.13838  0.55667  0.16106  1.0000
  H   H189      1.0  0.30374  0.60431  0.06451  1.0000
  C   C181      1.0  0.14960  0.52117  0.16428  1.0000
  C   C182      1.0  0.18952  0.47466  0.00521  1.0000
  H   H190      1.0  0.30287  0.59020  0.08929  1.0000
  C   C183      1.0  0.02083  0.60667  0.13133  1.0000
  H   H191      1.0  0.19308  0.47787  0.01933  1.0000
  C   C184      1.0  0.18255  0.54694  0.12226  1.0000
  C   C185      1.0  0.01623  0.59208  0.14748  1.0000
  C   C186      1.0  0.00540  0.61853  0.12188  1.0000
  C   C187      1.0  0.00108  0.59306  0.21680  1.0000
  H   H192      1.0  0.02825  0.58255  0.15427  1.0000
  H   H193      1.0  0.31767  0.55130  0.06526  1.0000
  C   C188      1.0  0.99617  0.58958  0.15437  1.0000
  C   C189      1.0  0.01085  0.47228  0.16793  1.0000
  N   N16       1.0  0.99309  0.56988  0.11040  1.0000
  C   C190      1.0  0.46119  0.60590  0.22717  1.0000
  C   C191      1.0  0.99773  0.48883  0.16098  1.0000
  S   S79       1.0  0.07045  0.62995  0.98592  1.0000
  C   C192      1.0  0.48124  0.60729  0.22891  1.0000
  H   H194      1.0  0.48389  0.64230  0.03124  1.0000
  H   H195      1.0  0.19302  0.55664  0.12589  1.0000
  H   H196      1.0  0.12362  0.53493  0.18204  1.0000
  C   C193      1.0  0.10671  0.54139  0.13438  1.0000
  C   C194      1.0  0.11724  0.55344  0.11902  1.0000
  C   C195      1.0  0.13387  0.54504  0.10655  1.0000
  C   C196      1.0  0.14048  0.52449  0.10965  1.0000
  C   C197      1.0  0.12944  0.51232  0.12444  1.0000
  C   C198      1.0  0.11251  0.52067  0.13662  1.0000
  H   H197      1.0  0.11287  0.56948  0.11715  1.0000
  H   H198      1.0  0.14211  0.55459  0.09516  1.0000
  H   H199      1.0  0.13437  0.49640  0.12692  1.0000
  H   H200      1.0  0.10460  0.51120  0.14839  1.0000
  C   C199      1.0  0.29782  0.57943  0.02569  1.0000
  C   C200      1.0  0.27707  0.58450  0.03116  1.0000
  C   C201      1.0  0.26398  0.56966  0.03551  1.0000
  C   C202      1.0  0.27156  0.54948  0.03480  1.0000
  C   C203      1.0  0.29232  0.54439  0.02924  1.0000
  C   C204      1.0  0.30537  0.55929  0.02450  1.0000
  H   H201      1.0  0.27106  0.60002  0.03216  1.0000
  H   H202      1.0  0.24806  0.57383  0.03976  1.0000
  H   H203      1.0  0.29834  0.52882  0.02868  1.0000
  H   H204      1.0  0.23939  0.50754  0.01494  1.0000
  C   C205      1.0  0.43859  0.61428  0.07704  1.0000
  C   C206      1.0  0.42144  0.62229  0.06774  1.0000
  C   C207      1.0  0.41361  0.61120  0.05533  1.0000
  C   C208      1.0  0.42274  0.59185  0.05237  1.0000
  C   C209      1.0  0.43979  0.58380  0.06177  1.0000
  C   C210      1.0  0.44781  0.59502  0.07390  1.0000
  C   C211      1.0  0.99438  0.57517  0.22613  1.0000
  H   H205      1.0  0.40054  0.61762  0.04813  1.0000
  H   H206      1.0  0.44692  0.56882  0.05959  1.0000
  H   H207      1.0  0.46099  0.58867  0.08099  1.0000
  H   H208      1.0  0.41425  0.63720  0.07007  1.0000
  C   C212      1.0  0.45485  0.60927  0.20805  1.0000
  C   C213      1.0  0.46847  0.61378  0.19078  1.0000
  C   C214      1.0  0.01469  0.58812  0.08539  1.0000
  C   C215      1.0  0.04511  0.63927  0.99243  1.0000
  H   H209      1.0  0.01736  0.44011  0.17108  1.0000
  H   H210      1.0  0.43934  0.60829  0.20657  1.0000
  H   H211      1.0  0.46343  0.61632  0.17615  1.0000
  N   N17       1.0  0.45491  0.63583  0.02785  1.0000
  C   C216      1.0  0.13512  0.55646  0.00124  1.0000
  C   C217      1.0  0.13622  0.53737  0.17052  1.0000
  C   C218      1.0  0.30598  0.58908  0.07300  1.0000
  H   H212      1.0  0.19140  0.53268  0.11813  1.0000
  H   H213      1.0  0.17458  0.51173  0.14300  1.0000
  H   H214      1.0  0.38129  0.55421  0.05708  1.0000
  H   H215      1.0  0.41466  0.63353  0.99362  1.0000
  H   H216      1.0  0.17555  0.55419  0.10881  1.0000
  C   C219      1.0  0.99067  0.45293  0.21427  1.0000
  C   C220      1.0  0.15390  0.55949  0.14535  1.0000
  S   S80       1.0  0.01145  0.63502  0.10029  1.0000
  H   H217      1.0  0.14755  0.50604  0.17102  1.0000
  H   H218      1.0  0.19832  0.44272  0.01115  1.0000
  N   N18       1.0  0.16686  0.54350  0.13920  1.0000
  H   H219      1.0  0.46395  0.60490  0.02468  1.0000
  H   H220      1.0  0.17747  0.57224  0.99831  1.0000
  N   N19       1.0  0.32661  0.57957  0.06793  1.0000
  C   C221      1.0  0.34232  0.59038  0.06714  1.0000
  C   C222      1.0  0.33012  0.55981  0.06490  1.0000
  C   C223      1.0  0.36219  0.58138  0.06337  1.0000
  C   C224      1.0  0.34981  0.55039  0.06094  1.0000
  C   C225      1.0  0.36592  0.56124  0.06032  1.0000
  C   C226      1.0  0.45392  0.61831  0.02051  1.0000
  H   H221      1.0  0.33953  0.60610  0.06926  1.0000
  H   H222      1.0  0.00760  0.54744  0.13059  1.0000
  H   H223      1.0  0.37468  0.58996  0.06257  1.0000
  C   C227      1.0  0.17254  0.58737  0.99231  1.0000
  Fe  Fe44      1.0  0.37745  0.62189  0.98308  1.0000
  H   H224      1.0  0.11518  0.62212  0.00437  1.0000
  H   H225      1.0  0.43825  0.60306  0.00294  1.0000
  H   H226      1.0  0.00310  0.41517  0.21135  1.0000
  H   H227      1.0  0.99337  0.48400  0.21533  1.0000
  C   C228      1.0  0.03152  0.57721  0.09312  1.0000
  N   N20       1.0  0.12047  0.59070  0.00268  1.0000
  H   H228      1.0  0.47491  0.62200  0.04888  1.0000
  C   C229      1.0  0.00717  0.45294  0.16589  1.0000
  C   C230      1.0  0.42744  0.65208  0.01032  1.0000
  C   C231      1.0  0.00153  0.60849  0.22818  1.0000
  H   H229      1.0  0.13076  0.57139  0.02765  1.0000
  C   C232      1.0  0.24010  0.46757  0.98972  1.0000
  H   H230      1.0  0.32131  0.55515  0.02038  1.0000
  H   H231      1.0  0.04648  0.58057  0.08683  1.0000
  H   H232      1.0  0.29476  0.58053  0.06877  1.0000
  H   H233      1.0  0.04459  0.62529  0.02296  1.0000
  H   H234      1.0  0.09760  0.60746  0.02035  1.0000
  C   C233      1.0  0.12868  0.57285  0.01198  1.0000
  H   H235      1.0  0.00591  0.59488  0.20076  1.0000
  C   C234      1.0  0.43944  0.61720  0.00812  1.0000
  S   S81       1.0  0.48965  0.59689  0.12682  1.0000
  H   H236      1.0  0.47622  0.56793  0.18876  1.0000
  H   H237      1.0  0.00966  0.64010  0.03355  1.0000
  C   C235      1.0  0.01634  0.64320  0.01819  1.0000
  C   C236      1.0  0.00951  0.55874  0.11775  1.0000
  H   H238      1.0  0.46465  0.64708  0.05209  1.0000
  H   H239      1.0  0.22667  0.52503  0.98376  1.0000
  H   H240      1.0  0.24741  0.47046  0.01903  1.0000
  H   H241      1.0  0.04198  0.55394  0.11560  1.0000
  C   C237      1.0  0.18214  0.49031  0.99144  1.0000
  C   C238      1.0  0.03612  0.63486  0.01218  1.0000
  C   C239      1.0  0.11366  0.60769  0.01411  1.0000
  H   H242      1.0  0.12295  0.60730  0.02642  1.0000
  C   C240      1.0  0.42611  0.63420  0.00305  1.0000
  C   C241      1.0  0.24236  0.47825  0.00525  1.0000
  C   C242      1.0  0.23087  0.50892  0.98541  1.0000
  H   H243      1.0  0.01646  0.60013  0.07316  1.0000
  C   C243      1.0  0.47041  0.63689  0.04052  1.0000
  H   H244      1.0  0.00043  0.50380  0.16254  1.0000
  H   H245      1.0  0.00518  0.44782  0.21941  1.0000
  C   C244      1.0  0.47718  0.55972  0.22027  1.0000
  C   C245      1.0  0.48588  0.56430  0.20049  1.0000
  C   C246      1.0  0.48847  0.61531  0.19259  1.0000
  H   H246      1.0  0.99402  0.56310  0.21738  1.0000
  S   S82       1.0  0.48922  0.64606  0.11751  1.0000
  H   H247      1.0  0.00690  0.62239  0.22108  1.0000
  H   H248      1.0  0.24345  0.45137  0.99163  1.0000
  C   C247      1.0  0.11783  0.59258  0.98293  1.0000
  H   H249      1.0  0.02336  0.53144  0.29192  1.0000
  S   S83       1.0  0.45196  0.55290  0.28694  1.0000
  H   H250      1.0  0.45552  0.64024  0.30921  1.0000
  Fe  Fe45      1.0  0.47007  0.58890  0.31702  1.0000
  S   S84       1.0  0.43865  0.59326  0.30877  1.0000
  S   S85       1.0  0.47594  0.60848  0.33898  1.0000
  Fe  Fe46      1.0  0.43989  0.56014  0.31806  1.0000
  S   S86       1.0  0.41611  0.54358  0.33821  1.0000
  Fe  Fe47      1.0  0.45370  0.58580  0.27840  1.0000
  C   C248      1.0  0.01725  0.64712  0.40197  1.0000
  S   S87       1.0  0.47072  0.55606  0.32767  1.0000
  H   H251      1.0  0.27229  0.59871  0.41532  1.0000
  Fe  Fe48      1.0  0.31885  0.58397  0.46845  1.0000
  S   S88       1.0  0.34572  0.56594  0.45357  1.0000
  H   H252      1.0  0.48302  0.50692  0.33803  1.0000
  Fe  Fe49      1.0  0.28947  0.56626  0.44827  1.0000
  S   S89       1.0  0.31420  0.54659  0.43161  1.0000
  S   S90       1.0  0.25697  0.56495  0.44437  1.0000
  Fe  Fe50      1.0  0.32693  0.54056  0.46096  1.0000
  H   H253      1.0  0.04297  0.57282  0.24158  1.0000
  Fe  Fe51      1.0  0.33094  0.57354  0.42569  1.0000
  S   S91       1.0  0.34768  0.58799  0.39717  1.0000
  S   S92       1.0  0.03630  0.53063  0.25002  1.0000
  S   S93       1.0  0.30515  0.59369  0.43999  1.0000
  H   H254      1.0  0.48631  0.60481  0.24350  1.0000
  H   H255      1.0  0.06102  0.55179  0.42815  1.0000
  H   H256      1.0  0.47388  0.51337  0.31440  1.0000
  C   C249      1.0  0.33523  0.44833  0.46593  1.0000
  C   C250      1.0  0.48874  0.64848  0.45738  1.0000
  Fe  Fe52      1.0  0.11649  0.62192  0.46389  1.0000
  S   S94       1.0  0.10762  0.62371  0.43258  1.0000
  C   C251      1.0  0.38859  0.62968  0.44766  1.0000
  Fe  Fe53      1.0  0.01003  0.60033  0.33798  1.0000
  S   S95       1.0  0.01080  0.57479  0.36299  1.0000
  S   S96       1.0  0.02454  0.60078  0.30546  1.0000
  H   H257      1.0  0.34931  0.65217  0.43512  1.0000
  Fe  Fe54      1.0  0.01513  0.59757  0.38267  1.0000
  S   S97       1.0  0.03226  0.59060  0.40987  1.0000
  S   S98       1.0  0.01747  0.62226  0.35708  1.0000
  C   C252      1.0  0.08473  0.61764  0.42682  1.0000
  C   C253      1.0  0.07054  0.60958  0.44164  1.0000
  C   C254      1.0  0.05386  0.60239  0.43621  1.0000
  C   C255      1.0  0.05112  0.60335  0.41598  1.0000
  C   C256      1.0  0.06476  0.61232  0.40121  1.0000
  C   C257      1.0  0.08152  0.61939  0.40664  1.0000
  H   H258      1.0  0.07277  0.60826  0.45722  1.0000
  H   H259      1.0  0.04337  0.59546  0.44772  1.0000
  H   H260      1.0  0.06298  0.61292  0.38558  1.0000
  H   H261      1.0  0.09246  0.62559  0.39509  1.0000
  C   C258      1.0  0.03332  0.55033  0.26516  1.0000
  C   C259      1.0  0.03760  0.56962  0.25733  1.0000
  C   C260      1.0  0.03528  0.58474  0.27000  1.0000
  C   C261      1.0  0.02834  0.58085  0.29052  1.0000
  C   C262      1.0  0.02395  0.56157  0.29835  1.0000
  C   C263      1.0  0.02655  0.54638  0.28573  1.0000
  S   S99       1.0  0.44378  0.59958  0.24842  1.0000
  H   H262      1.0  0.03883  0.59958  0.26385  1.0000
  H   H263      1.0  0.41747  0.59041  0.42757  1.0000
  N   N21       1.0  0.09642  0.56324  0.45359  1.0000
  C   C264      1.0  0.23761  0.58290  0.45371  1.0000
  C   C265      1.0  0.24193  0.59977  0.46108  1.0000
  H   H264      1.0  0.35081  0.47285  0.45077  1.0000
  C   C266      1.0  0.20601  0.61036  0.46971  1.0000
  C   C267      1.0  0.20169  0.59365  0.46202  1.0000
  C   C268      1.0  0.21744  0.58006  0.45392  1.0000
  H   H265      1.0  0.25740  0.60219  0.46089  1.0000
  C   C269      1.0  0.47691  0.50067  0.32626  1.0000
  C   C270      1.0  0.08779  0.56458  0.41465  1.0000
  H   H266      1.0  0.06900  0.55057  0.46275  1.0000
  H   H267      1.0  0.22965  0.62650  0.47462  1.0000
  S   S100      1.0  0.48503  0.58471  0.28587  1.0000
  C   C271      1.0  0.40426  0.60075  0.43178  1.0000
  H   H268      1.0  0.08393  0.56588  0.39953  1.0000
  C   C272      1.0  0.39780  0.55607  0.35520  1.0000
  C   C273      1.0  0.38582  0.54479  0.36997  1.0000
  C   C274      1.0  0.37077  0.55430  0.38334  1.0000
  C   C275      1.0  0.36737  0.57522  0.38179  1.0000
  C   C276      1.0  0.37934  0.58649  0.36707  1.0000
  C   C277      1.0  0.39459  0.57698  0.35396  1.0000
  H   H269      1.0  0.38821  0.52860  0.37104  1.0000
  H   H270      1.0  0.36164  0.54544  0.39459  1.0000
  H   H271      1.0  0.37677  0.60269  0.36569  1.0000
  H   H272      1.0  0.40363  0.58585  0.34264  1.0000
  C   C278      1.0  0.38564  0.59839  0.42659  1.0000
  C   C279      1.0  0.07492  0.55661  0.43076  1.0000
  H   H273      1.0  0.46247  0.49500  0.33268  1.0000
  C   C280      1.0  0.10034  0.56362  0.47416  1.0000
  Fe  Fe55      1.0  0.48268  0.55209  0.29577  1.0000
  H   H274      1.0  0.00307  0.64159  0.40011  1.0000
  H   H275      1.0  0.38425  0.58630  0.41820  1.0000
  S   S101      1.0  0.34277  0.51122  0.47413  1.0000
  H   H276      1.0  0.48433  0.63452  0.45465  1.0000
  H   H277      1.0  0.18625  0.59106  0.46255  1.0000
  N   N22       1.0  0.28272  0.58044  0.39220  1.0000
  C   C281      1.0  0.27832  0.56113  0.39495  1.0000
  C   C282      1.0  0.30089  0.58494  0.38229  1.0000
  C   C283      1.0  0.29211  0.54581  0.38728  1.0000
  C   C284      1.0  0.31490  0.57004  0.37417  1.0000
  C   C285      1.0  0.31051  0.55035  0.37680  1.0000
  C   C286      1.0  0.07945  0.55613  0.45027  1.0000
  H   H278      1.0  0.26420  0.55740  0.40338  1.0000
  H   H279      1.0  0.30483  0.60005  0.38081  1.0000
  H   H280      1.0  0.28867  0.53049  0.38977  1.0000
  H   H281      1.0  0.32932  0.57368  0.36637  1.0000
  H   H282      1.0  0.32152  0.53864  0.37099  1.0000
  H   H283      1.0  0.42009  0.61831  0.44689  1.0000
  H   H284      1.0  0.02972  0.63979  0.39197  1.0000
  S   S102      1.0  0.14137  0.59869  0.47382  1.0000
  C   C287      1.0  0.26831  0.59628  0.40066  1.0000
  H   H285      1.0  0.11452  0.57914  0.40586  1.0000
  C   C288      1.0  0.22617  0.61354  0.46884  1.0000
  H   H286      1.0  0.21397  0.56710  0.44814  1.0000
  C   C289      1.0  0.36530  0.45721  0.47566  1.0000
  H   H287      1.0  0.25274  0.59219  0.40330  1.0000
  H   H288      1.0  0.12179  0.57806  0.44053  1.0000
  S   S103      1.0  0.18691  0.62674  0.48191  1.0000
  C   C290      1.0  0.40578  0.61647  0.44243  1.0000
  H   H289      1.0  0.47869  0.63174  0.29510  1.0000
  H   H290      1.0  0.26819  0.61057  0.39045  1.0000
  H   H291      1.0  0.00468  0.52358  0.33887  1.0000
  H   H292      1.0  0.09283  0.57779  0.47968  1.0000
  C   C291      1.0  0.10496  0.57196  0.41818  1.0000
  S   S104      1.0  0.13042  0.64733  0.47209  1.0000
  C   C292      1.0  0.36872  0.61173  0.43229  1.0000
  S   S105      1.0  0.30106  0.55805  0.47804  1.0000
  C   C293      1.0  0.35240  0.64101  0.44823  1.0000
  H   H293      1.0  0.01870  0.55839  0.31411  1.0000
  H   H294      1.0  0.35428  0.60976  0.42828  1.0000
  N   N23       1.0  0.37031  0.62699  0.44287  1.0000
  H   H295      1.0  0.38993  0.64173  0.45611  1.0000
  C   C294      1.0  0.35066  0.46042  0.46272  1.0000
  H   H296      1.0  0.33909  0.63283  0.45325  1.0000
  H   H297      1.0  0.48281  0.55243  0.25098  1.0000
  H   H298      1.0  0.32336  0.45121  0.45641  1.0000
  H   H299      1.0  0.35430  0.64900  0.46088  1.0000
  H   H300      1.0  0.02054  0.64224  0.41759  1.0000
  C   C295      1.0  0.10899  0.57132  0.43788  1.0000
  C   C296      1.0  0.99500  0.60587  0.24878  1.0000
  H   H301      1.0  0.37685  0.46711  0.47367  1.0000
  H   H302      1.0  0.46573  0.65225  0.48248  1.0000
  H   H303      1.0  0.30438  0.49753  0.47283  1.0000
  H   H304      1.0  0.11672  0.56257  0.47505  1.0000
  C   C297      1.0  0.46888  0.64543  0.29942  1.0000
  H   H305      1.0  0.48201  0.49121  0.28898  1.0000
  H   H306      1.0  0.99544  0.61791  0.25757  1.0000
  C   C298      1.0  0.48939  0.55563  0.23555  1.0000
  C   C299      1.0  0.33457  0.43327  0.48225  1.0000
  H   H307      1.0  0.99064  0.53589  0.35941  1.0000
  C   C300      1.0  0.38037  0.59977  0.48955  1.0000
  C   C301      1.0  0.48262  0.36652  0.61710  1.0000
  H   H308      1.0  0.00675  0.39776  0.63025  1.0000
  S   S106      1.0  0.43703  0.63001  0.58027  1.0000
  C   C302      1.0  0.36085  0.59616  0.48811  1.0000
  Fe  Fe56      1.0  0.43736  0.49890  0.65641  1.0000
  S   S107      1.0  0.42162  0.48559  0.68541  1.0000
  H   H309      1.0  0.28133  0.49324  0.60493  1.0000
  Fe  Fe57      1.0  0.40452  0.53434  0.65129  1.0000
  S   S108      1.0  0.38592  0.52392  0.68018  1.0000
  S   S109      1.0  0.39049  0.56099  0.63147  1.0000
  Fe  Fe58      1.0  0.41511  0.51703  0.69307  1.0000
  Fe  Fe59      1.0  0.39377  0.49332  0.67053  1.0000
  S   S110      1.0  0.37261  0.47013  0.67549  1.0000
  S   S111      1.0  0.43336  0.53021  0.66506  1.0000
  S   S112      1.0  0.40983  0.50396  0.64064  1.0000
  Fe  Fe60      1.0  0.30732  0.43214  0.55793  1.0000
  S   S113      1.0  0.30368  0.40187  0.57567  1.0000
  S   S114      1.0  0.30124  0.44083  0.52592  1.0000
  Fe  Fe61      1.0  0.31705  0.44980  0.59317  1.0000
  S   S115      1.0  0.31376  0.42153  0.61385  1.0000
  S   S116      1.0  0.32543  0.47839  0.60084  1.0000
  Fe  Fe62      1.0  0.33155  0.40580  0.58869  1.0000
  S   S117      1.0  0.36048  0.38696  0.59694  1.0000
  Fe  Fe63      1.0  0.28633  0.42017  0.59929  1.0000
  S   S118      1.0  0.25762  0.41401  0.61963  1.0000
  S   S119      1.0  0.33640  0.43454  0.56887  1.0000
  S   S120      1.0  0.28829  0.44989  0.58065  1.0000
  Fe  Fe64      1.0  0.10489  0.45204  0.63366  1.0000
  S   S121      1.0  0.13476  0.44783  0.64564  1.0000
  S   S122      1.0  0.08929  0.42373  0.64116  1.0000
  Fe  Fe65      1.0  0.10812  0.49652  0.61918  1.0000
  S   S123      1.0  0.13784  0.49515  0.63044  1.0000
  S   S124      1.0  0.09436  0.52735  0.60648  1.0000
  Fe  Fe66      1.0  0.14572  0.46621  0.61722  1.0000
  S   S125      1.0  0.17466  0.46103  0.59616  1.0000
  Fe  Fe67      1.0  0.12400  0.47714  0.65793  1.0000
  S   S126      1.0  0.13038  0.48162  0.68880  1.0000
  S   S127      1.0  0.11664  0.46853  0.60408  1.0000
  S   S128      1.0  0.09359  0.48037  0.64780  1.0000
  C   C303      1.0  0.42402  0.59518  0.54707  1.0000
  Fe  Fe68      1.0  0.12255  0.59612  0.50397  1.0000
  S   S129      1.0  0.12372  0.56334  0.51703  1.0000
  S   S130      1.0  0.13628  0.61981  0.51539  1.0000
  C   C304      1.0  0.30167  0.47381  0.49750  1.0000
  H   H310      1.0  0.23837  0.59043  0.50545  1.0000
  H   H311      1.0  0.35457  0.56652  0.57379  1.0000
  C   C305      1.0  0.39320  0.32591  0.58083  1.0000
  Fe  Fe69      1.0  0.02231  0.35382  0.60699  1.0000
  S   S131      1.0  0.03729  0.38121  0.59280  1.0000
  S   S132      1.0  0.03177  0.33011  0.63149  1.0000
  C   C306      1.0  0.07636  0.41168  0.62640  1.0000
  C   C307      1.0  0.07015  0.42104  0.60826  1.0000
  C   C308      1.0  0.05859  0.41132  0.59786  1.0000
  C   C309      1.0  0.05311  0.39225  0.60552  1.0000
  C   C310      1.0  0.05978  0.38272  0.62340  1.0000
  C   C311      1.0  0.07134  0.39239  0.63376  1.0000
  H   H312      1.0  0.07382  0.43591  0.60246  1.0000
  H   H313      1.0  0.05355  0.41878  0.58400  1.0000
  H   H314      1.0  0.05580  0.36800  0.62939  1.0000
  H   H315      1.0  0.07612  0.38501  0.64776  1.0000
  C   C312      1.0  0.10339  0.53754  0.58191  1.0000
  C   C313      1.0  0.09748  0.55780  0.57522  1.0000
  C   C314      1.0  0.10401  0.56613  0.55556  1.0000
  C   C315      1.0  0.11623  0.55413  0.54233  1.0000
  C   C316      1.0  0.12223  0.53393  0.54906  1.0000
  C   C317      1.0  0.11601  0.52571  0.56879  1.0000
  H   H316      1.0  0.08766  0.56704  0.58524  1.0000
  H   H317      1.0  0.09918  0.58167  0.55052  1.0000
  H   H318      1.0  0.13163  0.52451  0.53894  1.0000
  H   H319      1.0  0.12066  0.51011  0.57373  1.0000
  H   H320      1.0  0.33489  0.63862  0.50453  1.0000
  C   C318      1.0  0.08079  0.51187  0.71799  1.0000
  C   C319      1.0  0.09339  0.50125  0.70355  1.0000
  C   C320      1.0  0.11260  0.49223  0.70742  1.0000
  H   H321      1.0  0.22266  0.47435  0.62229  1.0000
  C   C321      1.0  0.18928  0.58647  0.51966  1.0000
  H   H322      1.0  0.06621  0.51929  0.71468  1.0000
  H   H323      1.0  0.08854  0.50063  0.68922  1.0000
  H   H324      1.0  0.22754  0.59019  0.53135  1.0000
  C   C322      1.0  0.38046  0.57952  0.68593  1.0000
  H   H325      1.0  0.04052  0.43306  0.65738  1.0000
  C   C323      1.0  0.03320  0.41976  0.65790  1.0000
  C   C324      1.0  0.23454  0.42695  0.61300  1.0000
  C   C325      1.0  0.21719  0.42680  0.62713  1.0000
  C   C326      1.0  0.19877  0.43762  0.62243  1.0000
  C   C327      1.0  0.19754  0.44828  0.60339  1.0000
  C   C328      1.0  0.21483  0.44825  0.58926  1.0000
  C   C329      1.0  0.23328  0.43775  0.59406  1.0000
  H   H326      1.0  0.21805  0.41843  0.64181  1.0000
  H   H327      1.0  0.18549  0.43749  0.63339  1.0000
  H   H328      1.0  0.21397  0.45639  0.57446  1.0000
  H   H329      1.0  0.24648  0.43787  0.58301  1.0000
  C   C330      1.0  0.37448  0.33326  0.57419  1.0000
  C   C331      1.0  0.36423  0.35199  0.57880  1.0000
  C   C332      1.0  0.37260  0.36346  0.59022  1.0000
  C   C333      1.0  0.39128  0.35608  0.59684  1.0000
  C   C334      1.0  0.38799  0.59589  0.54673  1.0000
  H   H330      1.0  0.34981  0.35744  0.57369  1.0000
  H   H331      1.0  0.27743  0.42751  0.65019  1.0000
  C   C335      1.0  0.22417  0.59338  0.51565  1.0000
  C   C336      1.0  0.17460  0.57461  0.51775  1.0000
  C   C337      1.0  0.31017  0.46325  0.51414  1.0000
  C   C338      1.0  0.32714  0.46938  0.51978  1.0000
  H   H332      1.0  0.00967  0.37115  0.65894  1.0000
  H   H333      1.0  0.48217  0.31955  0.66925  1.0000
  C   C339      1.0  0.34445  0.61032  0.49304  1.0000
  H   H334      1.0  0.33384  0.46138  0.53252  1.0000
  C   C340      1.0  0.35791  0.47319  0.65588  1.0000
  C   C341      1.0  0.35729  0.49071  0.64232  1.0000
  C   C342      1.0  0.34677  0.49238  0.62574  1.0000
  C   C343      1.0  0.33719  0.47643  0.62250  1.0000
  C   C344      1.0  0.33757  0.45905  0.63624  1.0000
  C   C345      1.0  0.34774  0.45751  0.65303  1.0000
  H   H335      1.0  0.36489  0.50298  0.64460  1.0000
  H   H336      1.0  0.34637  0.50594  0.61525  1.0000
  H   H337      1.0  0.33021  0.44670  0.63394  1.0000
  H   H338      1.0  0.34826  0.44393  0.66349  1.0000
  H   H339      1.0  0.37537  0.43987  0.50208  1.0000
  S   S133      1.0  0.01503  0.33167  0.58801  1.0000
  H   H340      1.0  0.14277  0.54873  0.69810  1.0000
  C   C346      1.0  0.23833  0.47346  0.62452  1.0000
  H   H341      1.0  0.39784  0.36476  0.60576  1.0000
  H   H342      1.0  0.36540  0.57126  0.72453  1.0000
  H   H343      1.0  0.26345  0.44017  0.67048  1.0000
  C   C347      1.0  0.42389  0.61080  0.59415  1.0000
  C   C348      1.0  0.43454  0.59473  0.60521  1.0000
  C   C349      1.0  0.42457  0.57924  0.61657  1.0000
  C   C350      1.0  0.40376  0.57997  0.61733  1.0000
  C   C351      1.0  0.39306  0.59617  0.60650  1.0000
  C   C352      1.0  0.40309  0.61140  0.59475  1.0000
  H   H344      1.0  0.45063  0.59421  0.60485  1.0000
  H   H345      1.0  0.43299  0.56683  0.62482  1.0000
  H   H346      1.0  0.37694  0.59688  0.60705  1.0000
  H   H347      1.0  0.39470  0.62380  0.58647  1.0000
  H   H348      1.0  0.34649  0.42209  0.52634  1.0000
  H   H349      1.0  0.41578  0.33194  0.59756  1.0000
  H   H350      1.0  0.42257  0.61088  0.55037  1.0000
  H   H351      1.0  0.41791  0.56415  0.57550  1.0000
  H   H352      1.0  0.46522  0.47465  0.68343  1.0000
  N   N24       1.0  0.26609  0.45774  0.64187  1.0000
  C   C353      1.0  0.36961  0.58854  0.55335  1.0000
  C   C354      1.0  0.40448  0.57084  0.56892  1.0000
  H   H353      1.0  0.36446  0.57885  0.68668  1.0000
  H   H354      1.0  0.14238  0.52188  0.70047  1.0000
  S   S134      1.0  0.09661  0.61747  0.49312  1.0000
  Fe  Fe70      1.0  0.11200  0.64172  0.50206  1.0000
  H   H355      1.0  0.15899  0.57880  0.52345  1.0000
  H   H356      1.0  0.11094  0.53042  0.64209  1.0000
  H   H357      1.0  0.18474  0.60016  0.52653  1.0000
  H   H358      1.0  0.09573  0.55577  0.70794  1.0000
  S   S135      1.0  0.99493  0.33372  0.67966  1.0000
  C   C355      1.0  0.12190  0.53278  0.66987  1.0000
  C   C356      1.0  0.02767  0.37157  0.69125  1.0000
  H   H359      1.0  0.48614  0.44971  0.70438  1.0000
  H   H360      1.0  0.38572  0.55102  0.58827  1.0000
  C   C357      1.0  0.13298  0.53662  0.70170  1.0000
  C   C358      1.0  0.99618  0.36596  0.54212  1.0000
  Fe  Fe71      1.0  0.42688  0.64953  0.55259  1.0000
  N   N25       1.0  0.20900  0.58114  0.51260  1.0000
  H   H361      1.0  0.12603  0.53631  0.71759  1.0000
  S   S136      1.0  0.44376  0.64100  0.52351  1.0000
  H   H362      1.0  0.23644  0.44953  0.64871  1.0000
  H   H363      1.0  0.28850  0.44546  0.66096  1.0000
  N   N26       1.0  0.40512  0.58694  0.55437  1.0000
  C   C359      1.0  0.32830  0.49517  0.49101  1.0000
  H   H364      1.0  0.99887  0.37700  0.57652  1.0000
  C   C360      1.0  0.34787  0.41493  0.51241  1.0000
  C   C361      1.0  0.41092  0.57126  0.70037  1.0000
  C   C362      1.0  0.24620  0.45946  0.63946  1.0000
  S   S137      1.0  0.41863  0.52244  0.72439  1.0000
  C   C363      1.0  0.38629  0.56331  0.57618  1.0000
  H   H365      1.0  0.16872  0.54821  0.50666  1.0000
  C   C364      1.0  0.21464  0.56410  0.50351  1.0000
  H   H366      1.0  0.36787  0.32442  0.56547  1.0000
  S   S138      1.0  0.40837  0.62226  0.49577  1.0000
  C   C365      1.0  0.38359  0.61751  0.49609  1.0000
  H   H367      1.0  0.01123  0.36364  0.54642  1.0000
  N   N27       1.0  0.11758  0.53981  0.68810  1.0000
  C   C366      1.0  0.18013  0.55735  0.50835  1.0000
  H   H368      1.0  0.38849  0.60892  0.53558  1.0000
  N   N28       1.0  0.17231  0.40289  0.60385  1.0000
  C   C367      1.0  0.16630  0.41644  0.58831  1.0000
  C   C368      1.0  0.15841  0.39585  0.61888  1.0000
  C   C369      1.0  0.14593  0.42352  0.58771  1.0000
  C   C370      1.0  0.13790  0.40253  0.61869  1.0000
  C   C371      1.0  0.13167  0.41642  0.60296  1.0000
  C   C372      1.0  0.19364  0.39505  0.60393  1.0000
  H   H369      1.0  0.17729  0.42238  0.57657  1.0000
  H   H370      1.0  0.16313  0.38507  0.63119  1.0000
  H   H371      1.0  0.14131  0.43479  0.57572  1.0000
  H   H372      1.0  0.12685  0.39719  0.63075  1.0000
  H   H373      1.0  0.11583  0.42187  0.60276  1.0000
  H   H374      1.0  0.19785  0.39312  0.61935  1.0000
  H   H375      1.0  0.19680  0.38042  0.59791  1.0000
  H   H376      1.0  0.20352  0.40553  0.59470  1.0000
  N   N29       1.0  0.38271  0.45028  0.60636  1.0000
  C   C373      1.0  0.37647  0.43169  0.60935  1.0000
  C   C374      1.0  0.39341  0.45591  0.61975  1.0000
  C   C375      1.0  0.38034  0.41843  0.62644  1.0000
  C   C376      1.0  0.39763  0.44300  0.63696  1.0000
  C   C377      1.0  0.39089  0.42421  0.64038  1.0000
  C   C378      1.0  0.37873  0.46393  0.58826  1.0000
  H   H377      1.0  0.36822  0.42708  0.59864  1.0000
  H   H378      1.0  0.39833  0.47066  0.61744  1.0000
  H   H379      1.0  0.37504  0.40383  0.62884  1.0000
  H   H380      1.0  0.40550  0.44783  0.64789  1.0000
  H   H381      1.0  0.39365  0.41425  0.65390  1.0000
  H   H382      1.0  0.37560  0.47973  0.59155  1.0000
  H   H383      1.0  0.39183  0.46235  0.57648  1.0000
  H   H384      1.0  0.36514  0.46081  0.58243  1.0000
  Fe  Fe72      1.0  0.15366  0.62349  0.48451  1.0000
  H   H385      1.0  0.41939  0.59592  0.65340  1.0000
  C   C379      1.0  0.03467  0.40445  0.67390  1.0000
  H   H386      1.0  0.42759  0.59506  0.53060  1.0000
  H   H387      1.0  0.07752  0.54885  0.65157  1.0000
  H   H388      1.0  0.02223  0.42889  0.62939  1.0000
  C   C380      1.0  0.34758  0.62767  0.50053  1.0000
  S   S139      1.0  0.32021  0.60726  0.48865  1.0000
  H   H389      1.0  0.36959  0.64501  0.50721  1.0000
  H   H390      1.0  0.43687  0.58678  0.55441  1.0000
  C   C381      1.0  0.40154  0.33746  0.59216  1.0000
  C   C382      1.0  0.27120  0.48402  0.61473  1.0000
  H   H391      1.0  0.24520  0.49628  0.60006  1.0000
  C   C383      1.0  0.33636  0.48507  0.50806  1.0000
  N   N30       1.0  0.02639  0.38720  0.67410  1.0000
  C   C384      1.0  0.41132  0.58907  0.66702  1.0000
  H   H392      1.0  0.29435  0.46829  0.63151  1.0000
  C   C385      1.0  0.25098  0.48572  0.61202  1.0000
  H   H393      1.0  0.35013  0.48900  0.51185  1.0000
  Fe  Fe73      1.0  0.41356  0.64685  0.51261  1.0000
  H   H394      1.0  0.37974  0.50840  0.72577  1.0000
  N   N31       1.0  0.39056  0.57122  0.70173  1.0000
  C   C386      1.0  0.10758  0.53608  0.65649  1.0000
  C   C387      1.0  0.47646  0.46397  0.67644  1.0000
  C   C388      1.0  0.27430  0.44197  0.65663  1.0000
  C   C389      1.0  0.01430  0.39991  0.64265  1.0000
  C   C390      1.0  0.20028  0.55204  0.50110  1.0000
  H   H395      1.0  0.23025  0.55998  0.49765  1.0000
  C   C391      1.0  0.27855  0.46979  0.62977  1.0000
  C   C392      1.0  0.39062  0.58878  0.66847  1.0000
  H   H396      1.0  0.39100  0.46086  0.71865  1.0000
  H   H397      1.0  0.41907  0.56423  0.71267  1.0000
  C   C393      1.0  0.36718  0.63131  0.50203  1.0000
  C   C394      1.0  0.11864  0.49314  0.72612  1.0000
  H   H398      1.0  0.13631  0.52414  0.66577  1.0000
  S   S140      1.0  0.46547  0.48295  0.64051  1.0000
  C   C395      1.0  0.02295  0.41742  0.64218  1.0000
  H   H399      1.0  0.06984  0.56176  0.68485  1.0000
  H   H400      1.0  0.09478  0.55081  0.48446  1.0000
  H   H401      1.0  0.47252  0.36888  0.63070  1.0000
  C   C396      1.0  0.47959  0.46465  0.65561  1.0000
  H   H402      1.0  0.33443  0.40696  0.51362  1.0000
  C   C397      1.0  0.01619  0.38485  0.65881  1.0000
  C   C398      1.0  0.36878  0.57217  0.56825  1.0000
  C   C399      1.0  0.37948  0.56161  0.71982  1.0000
  H   H403      1.0  0.35613  0.59564  0.54703  1.0000
  H   H404      1.0  0.43776  0.57993  0.68189  1.0000
  C   C400      1.0  0.08452  0.55380  0.68040  1.0000
  C   C401      1.0  0.42160  0.58016  0.68301  1.0000
  H   H405      1.0  0.01502  0.37486  0.70317  1.0000
  H   H406      1.0  0.04278  0.40635  0.68599  1.0000
  C   C402      1.0  0.08876  0.54654  0.66183  1.0000
  H   H407      1.0  0.46285  0.34930  0.60642  1.0000
  H   H408      1.0  0.20475  0.53876  0.49356  1.0000
  H   H409      1.0  0.04214  0.37058  0.69739  1.0000
  H   H410      1.0  0.28855  0.46912  0.49306  1.0000
  H   H411      1.0  0.21864  0.60960  0.51236  1.0000
  H   H412      1.0  0.37569  0.54701  0.71691  1.0000
  H   H413      1.0  0.02677  0.35656  0.68692  1.0000
  C   C403      1.0  0.09927  0.55043  0.69336  1.0000
  C   C404      1.0  0.47706  0.35545  0.60341  1.0000
  H   H414      1.0  0.35856  0.58239  0.48319  1.0000
  H   H415      1.0  0.36150  0.40370  0.51160  1.0000
  Fe  Fe74      1.0  0.99953  0.33502  0.64555  1.0000
  H   H416      1.0  0.42319  0.46733  0.72869  1.0000
  H   H417      1.0  0.38261  0.59518  0.65588  1.0000
  N   N32       1.0  0.34896  0.43027  0.49493  1.0000
  S   S141      1.0  0.99064  0.36005  0.62200  1.0000
  C   C405      1.0  0.31056  0.48994  0.48609  1.0000
  H   H418      1.0  0.48621  0.34314  0.57544  1.0000
  C   C406      1.0  0.36425  0.44193  0.49176  1.0000
  C   C407      1.0  0.48837  0.44986  0.68828  1.0000
  H   H419      1.0  0.13344  0.48619  0.72928  1.0000
  H   H420      1.0  0.39303  0.58891  0.48524  1.0000
  H   H421      1.0  0.32197  0.42460  0.48521  1.0000
  H   H422      1.0  0.00521  0.35057  0.51590  1.0000
  H   H423      1.0  0.38849  0.55861  0.73261  1.0000
  C   C408      1.0  0.49016  0.35193  0.58609  1.0000
  H   H424      1.0  0.99156  0.33264  0.72227  1.0000
  C   C409      1.0  0.99292  0.35866  0.52476  1.0000
  C   C410      1.0  0.17186  0.36240  0.85929  1.0000
  H   H425      1.0  0.03059  0.43301  0.83660  1.0000
  C   C411      1.0  0.12605  0.33075  0.91016  1.0000
  S   S142      1.0  0.38002  0.54895  0.96246  1.0000
  H   H426      1.0  0.35508  0.49718  0.75432  1.0000
  Fe  Fe75      1.0  0.37575  0.49935  0.86505  1.0000
  S   S143      1.0  0.34561  0.49967  0.85492  1.0000
  S   S144      1.0  0.38413  0.52793  0.87360  1.0000
  Fe  Fe76      1.0  0.38989  0.45638  0.85488  1.0000
  S   S145      1.0  0.36025  0.45347  0.84508  1.0000
  S   S146      1.0  0.41816  0.43574  0.84569  1.0000
  Fe  Fe77      1.0  0.36236  0.48456  0.82896  1.0000
  S   S147      1.0  0.35573  0.49099  0.79671  1.0000
  Fe  Fe78      1.0  0.34622  0.46874  0.87200  1.0000
  S   S148      1.0  0.31920  0.46316  0.89533  1.0000
  S   S149      1.0  0.39237  0.48684  0.83759  1.0000
  S   S150      1.0  0.37600  0.46916  0.88336  1.0000
  C   C412      1.0  0.01617  0.48720  0.75305  1.0000
  H   H427      1.0  0.38633  0.45583  0.80552  1.0000
  S   S151      1.0  0.45721  0.35660  0.89470  1.0000
  H   H428      1.0  0.06183  0.48721  0.76777  1.0000
  Fe  Fe79      1.0  0.21577  0.42177  0.90283  1.0000
  S   S152      1.0  0.20667  0.44703  0.92132  1.0000
  S   S153      1.0  0.24658  0.41677  0.88459  1.0000
  Fe  Fe80      1.0  0.17333  0.40753  0.91082  1.0000
  S   S154      1.0  0.16142  0.43187  0.93038  1.0000
  S   S155      1.0  0.15149  0.39157  0.89764  1.0000
  Fe  Fe81      1.0  0.17827  0.45220  0.90728  1.0000
  S   S156      1.0  0.16296  0.48328  0.89919  1.0000
  Fe  Fe82      1.0  0.19077  0.42478  0.94311  1.0000
  H   H429      1.0  0.43193  0.42855  0.90623  1.0000
  S   S157      1.0  0.18840  0.42873  0.88672  1.0000
  S   S158      1.0  0.20176  0.39852  0.92557  1.0000
  Fe  Fe83      1.0  0.11061  0.50404  0.81137  1.0000
  S   S159      1.0  0.10154  0.53621  0.80011  1.0000
  S   S160      1.0  0.14246  0.48949  0.81144  1.0000
  Fe  Fe84      1.0  0.06730  0.49436  0.82203  1.0000
  S   S161      1.0  0.05463  0.52598  0.81218  1.0000
  S   S162      1.0  0.05199  0.46696  0.83464  1.0000
  Fe  Fe85      1.0  0.07893  0.52345  0.78562  1.0000
  S   S163      1.0  0.07220  0.52877  0.75328  1.0000
  Fe  Fe86      1.0  0.07844  0.53587  0.82776  1.0000
  S   S164      1.0  0.07455  0.55339  0.85496  1.0000
  S   S165      1.0  0.09008  0.49143  0.79505  1.0000
  S   S166      1.0  0.08895  0.50397  0.83936  1.0000
  H   H430      1.0  0.24602  0.46520  0.94577  1.0000
  S   S167      1.0  0.15751  0.61537  0.93916  1.0000
  N   N33       1.0  0.05370  0.33961  0.94343  1.0000
  S   S168      1.0  0.10265  0.62027  0.93507  1.0000
  H   H431      1.0  0.11132  0.50486  0.75453  1.0000
  C   C413      1.0  0.08011  0.57648  0.86117  1.0000
  C   C414      1.0  0.07869  0.57913  0.88154  1.0000
  C   C415      1.0  0.08223  0.59732  0.88739  1.0000
  C   C416      1.0  0.08690  0.61332  0.87290  1.0000
  C   C417      1.0  0.08858  0.61061  0.85254  1.0000
  C   C418      1.0  0.08539  0.59227  0.84668  1.0000
  H   H432      1.0  0.07453  0.56709  0.89290  1.0000
  H   H433      1.0  0.09215  0.62287  0.84118  1.0000
  H   H434      1.0  0.08645  0.59057  0.83098  1.0000
  H   H435      1.0  0.31455  0.55174  0.96167  1.0000
  C   C419      1.0  0.02816  0.45495  0.76990  1.0000
  C   C420      1.0  0.02964  0.46438  0.82534  1.0000
  C   C421      1.0  0.01910  0.48063  0.81465  1.0000
  H   H436      1.0  0.11105  0.60666  0.97572  1.0000
  H   H437      1.0  0.02443  0.49514  0.81231  1.0000
  H   H438      1.0  0.13843  0.54592  0.97246  1.0000
  C   C422      1.0  0.00827  0.34946  0.82125  1.0000
  H   H439      1.0  0.02720  0.32194  0.87024  1.0000
  H   H440      1.0  0.08386  0.33819  0.92861  1.0000
  C   C423      1.0  0.02829  0.34034  0.82098  1.0000
  S   S169      1.0  0.35414  0.60463  0.97493  1.0000
  C   C424      1.0  0.15938  0.48732  0.87392  1.0000
  C   C425      1.0  0.17185  0.47633  0.85999  1.0000
  C   C426      1.0  0.16720  0.47773  0.84038  1.0000
  C   C427      1.0  0.15021  0.49029  0.83471  1.0000
  C   C428      1.0  0.13862  0.50232  0.84826  1.0000
  C   C429      1.0  0.14298  0.50059  0.86795  1.0000
  H   H441      1.0  0.18504  0.46674  0.86430  1.0000
  H   H442      1.0  0.17648  0.46875  0.82976  1.0000
  H   H443      1.0  0.12615  0.51282  0.84366  1.0000
  H   H444      1.0  0.13312  0.50891  0.87870  1.0000
  C   C430      1.0  0.14130  0.36837  0.90378  1.0000
  C   C431      1.0  0.12623  0.36475  0.89298  1.0000
  H   H445      1.0  0.12053  0.37638  0.88189  1.0000
  H   H446      1.0  0.10715  0.34359  0.88758  1.0000
  N   N34       1.0  0.18901  0.36639  0.86836  1.0000
  H   H447      1.0  0.00465  0.49707  0.74571  1.0000
  C   C432      1.0  0.42462  0.48887  0.88960  1.0000
  C   C433      1.0  0.29892  0.45076  0.89157  1.0000
  C   C434      1.0  0.29968  0.44049  0.87499  1.0000
  C   C435      1.0  0.28353  0.43024  0.87299  1.0000
  C   C436      1.0  0.26634  0.43039  0.88735  1.0000
  C   C437      1.0  0.26550  0.44087  0.90381  1.0000
  C   C438      1.0  0.28175  0.45088  0.90595  1.0000
  H   H448      1.0  0.31280  0.44022  0.86383  1.0000
  H   H449      1.0  0.28436  0.42215  0.86023  1.0000
  H   H450      1.0  0.25249  0.44095  0.91507  1.0000
  H   H451      1.0  0.28107  0.45869  0.91887  1.0000
  C   C439      1.0  0.42812  0.41338  0.85942  1.0000
  C   C440      1.0  0.44650  0.40330  0.85153  1.0000
  C   C441      1.0  0.45547  0.38584  0.86216  1.0000
  C   C442      1.0  0.44614  0.37834  0.88086  1.0000
  C   C443      1.0  0.42772  0.38840  0.88878  1.0000
  C   C444      1.0  0.41869  0.40586  0.87808  1.0000
  H   H452      1.0  0.45390  0.40901  0.83709  1.0000
  H   H453      1.0  0.46965  0.37823  0.85591  1.0000
  H   H454      1.0  0.42040  0.38264  0.90323  1.0000
  H   H455      1.0  0.40449  0.41349  0.88427  1.0000
  C   C445      1.0  0.38104  0.54375  0.93756  1.0000
  C   C446      1.0  0.37913  0.52414  0.93438  1.0000
  C   C447      1.0  0.37962  0.51916  0.91492  1.0000
  C   C448      1.0  0.38249  0.53370  0.89839  1.0000
  C   C449      1.0  0.38439  0.55330  0.90155  1.0000
  C   C450      1.0  0.38347  0.55839  0.92108  1.0000
  H   H456      1.0  0.37718  0.51275  0.94709  1.0000
  H   H457      1.0  0.37796  0.50407  0.91270  1.0000
  H   H458      1.0  0.38664  0.56462  0.88882  1.0000
  H   H459      1.0  0.38498  0.57351  0.92334  1.0000
  C   C451      1.0  0.40094  0.51397  0.74442  1.0000
  C   C452      1.0  0.40486  0.51338  0.76422  1.0000
  C   C453      1.0  0.39105  0.50661  0.78044  1.0000
  C   C454      1.0  0.37306  0.50067  0.77695  1.0000
  C   C455      1.0  0.36898  0.50170  0.75715  1.0000
  C   C456      1.0  0.01339  0.46734  0.75999  1.0000
  S   S170      1.0  0.19354  0.42598  0.97558  1.0000
  H   H460      1.0  0.39427  0.50614  0.79560  1.0000
  H   H461      1.0  0.03778  0.36814  0.93507  1.0000
  C   C457      1.0  0.10606  0.50368  0.74052  1.0000
  H   H462      1.0  0.23487  0.37694  0.89123  1.0000
  H   H463      1.0  0.33849  0.53743  0.96642  1.0000
  C   C458      1.0  0.38294  0.50809  0.74094  1.0000
  H   H464      1.0  0.19513  0.39102  0.84618  1.0000
  H   H465      1.0  0.40844  0.43810  0.80062  1.0000
  H   H466      1.0  0.12262  0.57838  0.95590  1.0000
  S   S171      1.0  0.48649  0.32773  0.85158  1.0000
  H   H467      1.0  0.41015  0.46464  0.79879  1.0000
  H   H468      1.0  0.17694  0.35813  0.84403  1.0000
  C   C459      1.0  0.33302  0.54343  0.91884  1.0000
  H   H469      1.0  0.07299  0.44336  0.77230  1.0000
  H   H470      1.0  0.33735  0.55841  0.91534  1.0000
  N   N35       1.0  0.44039  0.45495  0.88836  1.0000
  C   C460      1.0  0.43009  0.46961  0.89912  1.0000
  C   C461      1.0  0.44557  0.45899  0.86812  1.0000
  C   C462      1.0  0.17018  0.59162  0.97195  1.0000
  C   C463      1.0  0.13304  0.55843  0.98094  1.0000
  C   C464      1.0  0.02199  0.32929  0.85649  1.0000
  C   C465      1.0  0.44575  0.43488  0.89875  1.0000
  H   H471      1.0  0.99339  0.49085  0.79892  1.0000
  H   H472      1.0  0.05419  0.43630  0.79297  1.0000
  H   H473      1.0  0.22288  0.50555  0.95681  1.0000
  C   C466      1.0  0.08726  0.51346  0.73637  1.0000
  H   H474      1.0  0.44351  0.48087  0.84195  1.0000
  H   H475      1.0  0.22471  0.39778  0.86051  1.0000
  C   C467      1.0  0.32419  0.51599  0.94265  1.0000
  C   C468      1.0  0.33205  0.53252  0.90309  1.0000
  H   H476      1.0  0.42979  0.32570  0.90376  1.0000
  H   H477      1.0  0.17376  0.57980  0.96242  1.0000
  C   C469      1.0  0.12423  0.57657  0.97170  1.0000
  C   C470      1.0  0.04110  0.33237  0.95956  1.0000
  Fe  Fe87      1.0  0.37791  0.57774  0.97676  1.0000
  C   C471      1.0  0.00508  0.44307  0.82044  1.0000
  C   C472      1.0  0.21637  0.38555  0.86745  1.0000
  C   C473      1.0  0.22207  0.37384  0.88475  1.0000
  C   C474      1.0  0.15756  0.62598  0.97668  1.0000
  C   C475      1.0  0.32299  0.50470  0.92725  1.0000
  C   C476      1.0  0.03374  0.49434  0.75583  1.0000
  C   C477      1.0  0.06054  0.44911  0.78334  1.0000
  H   H478      1.0  0.44306  0.33033  0.86799  1.0000
  H   H479      1.0  0.31914  0.48949  0.93055  1.0000
  C   C478      1.0  0.02250  0.44564  0.82834  1.0000
  C   C479      1.0  0.00196  0.33797  0.85667  1.0000
  H   H480      1.0  0.42484  0.50776  0.86135  1.0000
  C   C480      1.0  0.03512  0.33017  0.83861  1.0000
  N   N36       1.0  0.39813  0.45550  0.77468  1.0000
  C   C481      1.0  0.41347  0.46069  0.76032  1.0000
  C   C482      1.0  0.38046  0.45172  0.76934  1.0000
  C   C483      1.0  0.23173  0.46609  0.95609  1.0000
  C   C484      1.0  0.37768  0.45347  0.74913  1.0000
  H   H481      1.0  0.99182  0.33700  0.87051  1.0000
  H   H482      1.0  0.33800  0.56000  0.94962  1.0000
  H   H483      1.0  0.42742  0.46382  0.76454  1.0000
  H   H484      1.0  0.36815  0.44800  0.78075  1.0000
  H   H485      1.0  0.03842  0.34109  0.80712  1.0000
  H   H486      1.0  0.00296  0.35719  0.80761  1.0000
  H   H487      1.0  0.45577  0.43554  0.91012  1.0000
  H   H488      1.0  0.36345  0.45104  0.74496  1.0000
  C   C485      1.0  0.42949  0.49300  0.86894  1.0000
  H   H489      1.0  0.15207  0.64100  0.97065  1.0000
  N   N37       1.0  0.12138  0.45075  0.86690  1.0000
  C   C486      1.0  0.10190  0.45692  0.86354  1.0000
  C   C487      1.0  0.12774  0.45366  0.88434  1.0000
  C   C488      1.0  0.08836  0.46683  0.87759  1.0000
  C   C489      1.0  0.11474  0.46385  0.89854  1.0000
  C   C490      1.0  0.09495  0.47056  0.89506  1.0000
  C   C491      1.0  0.13526  0.44056  0.85184  1.0000
  H   H490      1.0  0.09677  0.45456  0.84974  1.0000
  H   H491      1.0  0.14311  0.44858  0.88718  1.0000
  H   H492      1.0  0.07302  0.47202  0.87460  1.0000
  H   H493      1.0  0.08477  0.47875  0.90580  1.0000
  H   H494      1.0  0.13144  0.42521  0.85188  1.0000
  H   H495      1.0  0.13438  0.44919  0.83673  1.0000
  H   H496      1.0  0.15112  0.43943  0.85479  1.0000
  N   N38       1.0  0.14156  0.58616  0.88940  1.0000
  C   C492      1.0  0.15289  0.57621  0.90370  1.0000
  C   C493      1.0  0.13264  0.57573  0.87808  1.0000
  C   C494      1.0  0.15610  0.55524  0.90648  1.0000
  C   C495      1.0  0.13542  0.55477  0.88053  1.0000
  C   C496      1.0  0.14737  0.54448  0.89474  1.0000
  C   C497      1.0  0.13794  0.60809  0.88702  1.0000
  H   H497      1.0  0.15956  0.58449  0.91302  1.0000
  H   H498      1.0  0.12324  0.58361  0.86708  1.0000
  H   H499      1.0  0.16528  0.54735  0.91765  1.0000
  H   H500      1.0  0.12825  0.54663  0.87148  1.0000
  H   H501      1.0  0.14985  0.52820  0.89675  1.0000
  H   H502      1.0  0.13644  0.61429  0.87119  1.0000
  H   H503      1.0  0.12375  0.61302  0.89629  1.0000
  H   H504      1.0  0.15033  0.61472  0.89172  1.0000
  H   H505      1.0  0.16412  0.35010  0.86831  1.0000
  H   H506      1.0  0.42592  0.46643  0.91515  1.0000
  Fe  Fe88      1.0  0.08594  0.64164  0.95584  1.0000
  H   H507      1.0  0.22829  0.45062  0.96181  1.0000
  N   N39       1.0  0.32924  0.53506  0.93832  1.0000
  C   C498      1.0  0.07379  0.33264  0.94145  1.0000
  N   N40       1.0  0.23326  0.47738  0.97253  1.0000
  H   H508      1.0  0.41643  0.50050  0.89809  1.0000
  H   H509      1.0  0.21503  0.34964  0.90763  1.0000
  N   N41       1.0  0.04515  0.46221  0.77294  1.0000
  H   H510      1.0  0.05712  0.35955  0.91602  1.0000
  H   H511      1.0  0.12020  0.46678  0.91196  1.0000
  C   C499      1.0  0.22871  0.49779  0.97023  1.0000
  H   H512      1.0  0.17167  0.49799  0.96254  1.0000
  H   H513      1.0  0.08074  0.59913  0.90310  1.0000
  C   C500      1.0  0.44003  0.47799  0.85809  1.0000
  Fe  Fe89      1.0  0.12897  0.63617  0.93647  1.0000
  H   H514      1.0  0.03416  0.34838  0.92120  1.0000
  C   C501      1.0  0.99506  0.34805  0.83909  1.0000
  C   C502      1.0  0.11859  0.34613  0.89618  1.0000
  C   C503      1.0  0.19440  0.35492  0.88543  1.0000
  C   C504      1.0  0.19964  0.38165  0.85946  1.0000
  C   C505      1.0  0.21097  0.35850  0.89391  1.0000
  C   C506      1.0  0.40095  0.45334  0.79589  1.0000
  C   C507      1.0  0.17746  0.48598  0.97323  1.0000
  H   H515      1.0  0.33570  0.53892  0.88764  1.0000
  H   H516      1.0  0.17672  0.46313  0.95450  1.0000
  C   C508      1.0  0.18036  0.46621  0.96863  1.0000
  C   C509      1.0  0.16238  0.61085  0.96417  1.0000
  H   H517      1.0  0.32117  0.50938  0.95808  1.0000
  C   C510      1.0  0.03409  0.65161  0.97853  1.0000
  Fe  Fe90      1.0  0.09569  0.64430  0.91006  1.0000
  H   H518      1.0  0.02558  0.43969  0.77572  1.0000
  C   C511      1.0  0.04822  0.48151  0.76573  1.0000
  H   H519      1.0  0.32604  0.50443  0.89538  1.0000
  H   H520      1.0  0.16007  0.35562  0.92649  1.0000
  C   C512      1.0  0.14101  0.33441  0.92109  1.0000
  H   H521      1.0  0.45366  0.42425  0.88827  1.0000
  H   H522      1.0  0.41868  0.51806  0.76705  1.0000
  H   H523      1.0  0.16056  0.37599  0.85840  1.0000
  C   C513      1.0  0.41119  0.46261  0.73998  1.0000
  C   C514      1.0  0.33000  0.54664  0.95478  1.0000
  S   S172      1.0  0.09067  0.63691  0.87945  1.0000
  H   H524      1.0  0.99958  0.46171  0.75833  1.0000
  H   H525      1.0  0.21927  0.47332  0.94753  1.0000
  C   C515      1.0  0.99454  0.45937  0.80980  1.0000
  C   C516      1.0  0.32692  0.51308  0.90739  1.0000
  H   H526      1.0  0.06670  0.45744  0.79351  1.0000
  H   H527      1.0  0.02508  0.33752  0.96084  1.0000
  C   C517      1.0  0.14852  0.35312  0.91802  1.0000
  H   H528      1.0  0.45347  0.44734  0.85947  1.0000
  C   C518      1.0  0.04533  0.35470  0.92818  1.0000
  H   H529      1.0  0.03616  0.50976  0.75054  1.0000
  H   H530      1.0  0.18576  0.34308  0.89274  1.0000
  C   C519      1.0  0.00147  0.47817  0.80714  1.0000
  Fe  Fe91      1.0  0.48592  0.33952  0.88081  1.0000
  H   H531      1.0  0.41700  0.64877  0.94817  1.0000
  H   H532      1.0  0.99987  0.42851  0.82255  1.0000
  S   S173      1.0  0.06472  0.31997  0.89448  1.0000
  H   H533      1.0  0.14687  0.32267  0.93199  1.0000
  H   H534      1.0  0.44791  0.31932  0.83584  1.0000
  C   C520      1.0  0.18806  0.45056  0.98217  1.0000
  C   C521      1.0  0.39315  0.45900  0.73438  1.0000
  S   S174      1.0  0.40201  0.59559  0.98206  1.0000
  Fe  Fe92      1.0  0.03707  0.82397  0.11810  1.0000
  S   S175      1.0  0.02772  0.80501  0.14696  1.0000
  S   S176      1.0  0.06982  0.81678  0.10532  1.0000
  C   C522      1.0  0.24479  0.91268  0.00809  1.0000
  H   H535      1.0  0.41714  0.66537  0.00638  1.0000
  S   S177      1.0  0.02179  0.85248  0.12961  1.0000
  Fe  Fe93      1.0  0.13326  0.82914  0.99704  1.0000
  S   S178      1.0  0.15944  0.80627  0.00510  1.0000
  S   S179      1.0  0.10478  0.84291  0.01478  1.0000
  C   C523      1.0  0.35097  0.84050  0.98372  1.0000
  C   C524      1.0  0.05572  0.85012  0.21024  1.0000
  H   H536      1.0  0.06795  0.66257  0.03384  1.0000
  Fe  Fe94      1.0  0.00091  0.80127  0.13230  1.0000
  H   H537      1.0  0.47194  0.84164  0.10019  1.0000
  Fe  Fe95      1.0  0.45432  0.93444  0.16458  1.0000
  S   S180      1.0  0.42473  0.92219  0.17398  1.0000
  S   S181      1.0  0.46066  0.96454  0.17110  1.0000
  Fe  Fe96      1.0  0.47439  0.89643  0.14797  1.0000
  S   S182      1.0  0.44701  0.88052  0.15654  1.0000
  C   C525      1.0  0.38648  0.85677  0.09259  1.0000
  Fe  Fe97      1.0  0.42999  0.90967  0.14417  1.0000
  S   S183      1.0  0.41114  0.91278  0.11807  1.0000
  Fe  Fe98      1.0  0.44405  0.89415  0.18545  1.0000
  S   S184      1.0  0.45811  0.92467  0.13407  1.0000
  S   S185      1.0  0.47288  0.90725  0.17769  1.0000
  Fe  Fe99      1.0  0.29182  0.86942  0.04191  1.0000
  S   S186      1.0  0.30573  0.88204  0.01167  1.0000
  S   S187      1.0  0.26529  0.85116  0.04699  1.0000
  Fe  Fe100     1.0  0.32058  0.88811  0.06431  1.0000
  S   S188      1.0  0.33533  0.90303  0.03550  1.0000
  S   S189      1.0  0.33057  0.88739  0.09525  1.0000
  Fe  Fe101     1.0  0.30437  0.91014  0.02597  1.0000
  S   S190      1.0  0.28895  0.93862  0.01047  1.0000
  Fe  Fe102     1.0  0.33518  0.87360  0.02413  1.0000
  C   C526      1.0  0.27723  0.80575  0.02554  1.0000
  S   S191      1.0  0.28923  0.89786  0.05596  1.0000
  S   S192      1.0  0.32159  0.85828  0.05321  1.0000
  H   H538      1.0  0.99519  0.72682  0.13280  1.0000
  C   C527      1.0  0.21933  0.89077  0.03548  1.0000
  S   S193      1.0  0.00401  0.84524  0.18784  1.0000
  H   H539      1.0  0.21974  0.89799  0.07263  1.0000
  H   H540      1.0  0.99583  0.88474  0.15994  1.0000
  N   N42       1.0  0.23296  0.90050  0.04207  1.0000
  H   H541      1.0  0.36059  0.86687  0.06642  1.0000
  H   H542      1.0  0.48481  0.75568  0.04898  1.0000
  C   C528      1.0  0.30895  0.82030  0.02165  1.0000
  H   H543      1.0  0.47923  0.85662  0.20913  1.0000
  H   H544      1.0  0.30618  0.83685  0.02112  1.0000
  H   H545      1.0  0.44145  0.94200  0.20692  1.0000
  H   H546      1.0  0.46410  0.96705  0.21465  1.0000
  C   C529      1.0  0.38784  0.90680  0.11268  1.0000
  C   C530      1.0  0.37467  0.89652  0.12693  1.0000
  C   C531      1.0  0.35703  0.89109  0.12143  1.0000
  C   C532      1.0  0.35234  0.89576  0.10164  1.0000
  C   C533      1.0  0.36537  0.90627  0.08748  1.0000
  C   C534      1.0  0.38293  0.91177  0.09300  1.0000
  H   H547      1.0  0.37813  0.89263  0.14213  1.0000
  H   H548      1.0  0.34703  0.88307  0.13256  1.0000
  H   H549      1.0  0.36193  0.91015  0.07226  1.0000
  H   H550      1.0  0.39292  0.91981  0.08186  1.0000
  S   S194      1.0  0.01108  0.81912  0.10307  1.0000
  H   H551      1.0  0.37920  0.85043  0.05255  1.0000
  C   C535      1.0  0.48352  0.77795  0.99624  1.0000
  C   C536      1.0  0.39978  0.85703  0.10646  1.0000
  H   H552      1.0  0.24862  0.79879  0.99056  1.0000
  C   C537      1.0  0.06559  0.67828  0.00419  1.0000
  H   H553      1.0  0.03526  0.79652  0.03952  1.0000
  S   S195      1.0  0.36522  0.85902  0.01148  1.0000
  H   H554      1.0  0.42730  0.86714  0.11115  1.0000
  H   H555      1.0  0.02826  0.80001  0.21309  1.0000
  C   C538      1.0  0.22417  0.84162  0.00157  1.0000
  C   C539      1.0  0.21899  0.83637  0.02212  1.0000
  C   C540      1.0  0.23158  0.83969  0.03583  1.0000
  C   C541      1.0  0.24933  0.84852  0.02921  1.0000
  C   C542      1.0  0.25428  0.85418  0.00870  1.0000
  C   C543      1.0  0.46845  0.83839  0.19077  1.0000
  H   H556      1.0  0.20553  0.82934  0.02741  1.0000
  H   H557      1.0  0.22764  0.83515  0.05166  1.0000
  H   H558      1.0  0.26787  0.86095  0.00336  1.0000
  C   C544      1.0  0.41733  0.86594  0.10035  1.0000
  C   C545      1.0  0.02169  0.85181  0.20197  1.0000
  C   C546      1.0  0.04241  0.84657  0.19735  1.0000
  C   C547      1.0  0.02421  0.78046  0.06771  1.0000
  C   C548      1.0  0.05839  0.67251  0.02422  1.0000
  C   C549      1.0  0.36647  0.84102  0.99513  1.0000
  H   H559      1.0  0.04816  0.83927  0.18416  1.0000
  H   H560      1.0  0.47768  0.78997  0.02447  1.0000
  C   C550      1.0  0.07932  0.82432  0.08014  1.0000
  C   C551      1.0  0.09896  0.81660  0.07274  1.0000
  C   C552      1.0  0.10687  0.82179  0.05264  1.0000
  C   C553      1.0  0.09528  0.83504  0.03988  1.0000
  C   C554      1.0  0.07561  0.84270  0.04727  1.0000
  C   C555      1.0  0.06758  0.83724  0.06726  1.0000
  H   H561      1.0  0.10813  0.80658  0.08261  1.0000
  H   H562      1.0  0.12204  0.81586  0.04715  1.0000
  H   H563      1.0  0.06655  0.85299  0.03750  1.0000
  H   H564      1.0  0.05243  0.84322  0.07277  1.0000
  H   H565      1.0  0.01051  0.69579  0.02413  1.0000
  N   N43       1.0  0.04725  0.77306  0.09229  1.0000
  C   C556      1.0  0.06180  0.78126  0.07886  1.0000
  C   C557      1.0  0.02884  0.77206  0.08675  1.0000
  C   C558      1.0  0.05772  0.78984  0.05971  1.0000
  H   H566      1.0  0.99856  0.86548  0.22288  1.0000
  C   C559      1.0  0.03872  0.78959  0.05420  1.0000
  C   C560      1.0  0.05174  0.76474  0.11247  1.0000
  H   H567      1.0  0.07652  0.78172  0.08316  1.0000
  C   C561      1.0  0.01455  0.86133  0.21918  1.0000
  H   H568      1.0  0.06914  0.79701  0.04941  1.0000
  C   C562      1.0  0.32378  0.94477  0.98533  1.0000
  H   H569      1.0  0.39588  0.82761  0.00193  1.0000
  H   H570      1.0  0.03776  0.76376  0.12320  1.0000
  H   H571      1.0  0.06025  0.74954  0.11220  1.0000
  H   H572      1.0  0.06070  0.77460  0.11832  1.0000
  H   H573      1.0  0.24445  0.88418  0.06774  1.0000
  C   C563      1.0  0.23472  0.89835  0.06353  1.0000
  H   H574      1.0  0.07167  0.84549  0.20681  1.0000
  C   C564      1.0  0.01421  0.65976  0.98449  1.0000
  H   H575      1.0  0.46154  0.82085  0.16923  1.0000
  H   H576      1.0  0.43489  0.88161  0.07577  1.0000
  C   C565      1.0  0.48626  0.96638  0.17174  1.0000
  C   C566      1.0  0.03389  0.69677  0.99888  1.0000
  C   C567      1.0  0.04854  0.85908  0.22778  1.0000
  C   C568      1.0  0.23080  0.90297  0.00126  1.0000
  C   C569      1.0  0.24564  0.91132  0.02867  1.0000
  H   H577      1.0  0.01750  0.76504  0.09716  1.0000
  C   C570      1.0  0.47242  0.82938  0.17317  1.0000
  H   H578      1.0  0.20729  0.88397  0.00983  1.0000
  N   N44       1.0  0.05334  0.69025  0.99181  1.0000
  H   H579      1.0  0.03260  0.67420  0.04689  1.0000
  H   H580      1.0  0.32391  0.81604  0.01315  1.0000
  H   H581      1.0  0.45449  0.83698  0.20067  1.0000
  H   H582      1.0  0.00937  0.78007  0.06366  1.0000
  Fe  Fe103     1.0  0.01032  0.83324  0.15736  1.0000
  S   S196      1.0  0.43824  0.87663  0.21638  1.0000
  H   H583      1.0  0.23018  0.90360  0.98533  1.0000
  C   C571      1.0  0.24182  0.85065  0.99499  1.0000
  H   H584      1.0  0.24859  0.79464  0.02742  1.0000
  C   C572      1.0  0.30312  0.95053  0.98955  1.0000
  H   H585      1.0  0.02399  0.70577  0.98895  1.0000
  N   N45       1.0  0.39054  0.86523  0.07319  1.0000
  H   H586      1.0  0.37753  0.87728  0.04646  1.0000
  C   C573      1.0  0.03856  0.67907  0.03155  1.0000
  H   H587      1.0  0.41115  0.88030  0.05158  1.0000
  H   H588      1.0  0.37247  0.85052  0.09761  1.0000
  C   C574      1.0  0.29308  0.81560  0.99284  1.0000
  H   H589      1.0  0.47215  0.89828  0.21855  1.0000
  H   H590      1.0  0.20980  0.88157  0.04602  1.0000
  C   C575      1.0  0.40795  0.87359  0.06695  1.0000
  H   H591      1.0  0.39605  0.85117  0.12203  1.0000
  C   C576      1.0  0.02620  0.69128  0.01883  1.0000
  C   C577      1.0  0.38396  0.82740  0.99298  1.0000
  S   S197      1.0  0.45777  0.78105  0.99335  1.0000
  C   C578      1.0  0.02834  0.80547  0.22733  1.0000
  H   H592      1.0  0.27657  0.80484  0.04169  1.0000
  N   N46       1.0  0.29291  0.81329  0.01318  1.0000
  H   H593      1.0  0.33122  0.93268  0.99482  1.0000
  C   C579      1.0  0.37634  0.86488  0.05896  1.0000
  S   S198      1.0  0.99486  0.76862  0.13526  1.0000
  H   H594      1.0  0.48661  0.71843  0.05018  1.0000
  C   C580      1.0  0.48245  0.84969  0.19542  1.0000
  H   H595      1.0  0.47214  0.86878  0.12099  1.0000
  Fe  Fe104     1.0  0.99460  0.84600  0.11734  1.0000
  H   H596      1.0  0.25659  0.91892  0.03379  1.0000
  C   C581      1.0  0.42498  0.92602  0.23204  1.0000
  H   H597      1.0  0.30958  0.81383  0.03754  1.0000
  H   H598      1.0  0.24147  0.91102  0.06746  1.0000
  C   C582      1.0  0.42152  0.87421  0.08047  1.0000
  H   H599      1.0  0.25513  0.92109  0.99760  1.0000
  C   C583      1.0  0.26131  0.80003  0.01758  1.0000
  C   C584      1.0  0.21787  0.89204  0.01501  1.0000
  C   C585      1.0  0.26133  0.80235  0.99687  1.0000
  H   H600      1.0  0.06063  0.80096  0.22594  1.0000
  H   H601      1.0  0.48048  0.94372  0.21360  1.0000
  C   C586      1.0  0.49039  0.83153  0.16062  1.0000
  C   C587      1.0  0.48617  0.86117  0.11454  1.0000
  C   C588      1.0  0.00540  0.65579  0.00438  1.0000
  C   C589      1.0  0.48606  0.84588  0.10272  1.0000
  C   C590      1.0  0.47021  0.95322  0.22378  1.0000
  H   H602      1.0  0.44295  0.66657  0.02844  1.0000
  H   H603      1.0  0.33752  0.85117  0.98522  1.0000
  C   C591      1.0  0.48914  0.78416  0.01319  1.0000
  H   H604      1.0  0.08086  0.67268  0.99849  1.0000
  H   H605      1.0  0.47923  0.83795  0.00808  1.0000
  H   H606      1.0  0.48347  0.78336  0.06950  1.0000
  C   C592      1.0  0.48979  0.76827  0.07482  1.0000
  C   C593      1.0  0.44023  0.93740  0.22295  1.0000
  H   H607      1.0  0.41475  0.92154  0.22311  1.0000
  C   C594      1.0  0.27733  0.81014  0.98438  1.0000
  H   H608      1.0  0.48264  0.98290  0.12526  1.0000
  C   C595      1.0  0.02787  0.86504  0.23197  1.0000
  H   H609      1.0  0.10730  0.88003  0.98793  1.0000
  Fe  Fe105     1.0  0.17878  0.82650  0.98356  1.0000
  C   C596      1.0  0.44206  0.65265  0.02275  1.0000
  C   C597      1.0  0.48983  0.83279  0.99577  1.0000
  H   H610      1.0  0.99625  0.81337  0.23200  1.0000
  H   H611      1.0  0.30529  0.82203  0.98308  1.0000
  S   S199      1.0  0.20996  0.83639  0.98333  1.0000
  C   C598      1.0  0.02886  0.83095  0.28075  1.0000
  H   H612      1.0  0.47201  0.80190  0.41302  1.0000
  H   H613      1.0  0.46010  0.75271  0.47527  1.0000
  H   H614      1.0  0.12231  0.90851  0.48174  1.0000
  Fe  Fe106     1.0  0.37586  0.86738  0.45832  1.0000
  S   S200      1.0  0.38934  0.88173  0.42806  1.0000
  S   S201      1.0  0.35897  0.84157  0.45705  1.0000
  C   C599      1.0  0.44013  0.82833  0.38185  1.0000
  Fe  Fe107     1.0  0.20641  0.89520  0.42717  1.0000
  S   S202      1.0  0.19381  0.88403  0.45819  1.0000
  S   S203      1.0  0.24008  0.89711  0.42070  1.0000
  Fe  Fe108     1.0  0.16455  0.90277  0.41244  1.0000
  S   S204      1.0  0.14947  0.89249  0.44311  1.0000
  S   S205      1.0  0.14329  0.91519  0.38892  1.0000
  Fe  Fe109     1.0  0.16972  0.90995  0.45505  1.0000
  C   C600      1.0  0.45218  0.87868  0.23607  1.0000
  Fe  Fe110     1.0  0.17500  0.86759  0.44349  1.0000
  S   S206      1.0  0.17254  0.83601  0.45787  1.0000
  S   S207      1.0  0.18318  0.92250  0.42456  1.0000
  S   S208      1.0  0.18927  0.87661  0.41218  1.0000
  Fe  Fe111     1.0  0.07901  0.88360  0.30976  1.0000
  S   S209      1.0  0.05167  0.90325  0.32143  1.0000
  S   S210      1.0  0.10658  0.87386  0.32631  1.0000
  Fe  Fe112     1.0  0.05975  0.87684  0.27274  1.0000
  S   S211      1.0  0.03109  0.89613  0.28180  1.0000
  H   H615      1.0  0.01407  0.70427  0.35663  1.0000
  Fe  Fe113     1.0  0.05087  0.91687  0.28953  1.0000
  S   S212      1.0  0.04306  0.95022  0.28256  1.0000
  Fe  Fe114     1.0  0.03419  0.88090  0.31282  1.0000
  S   S213      1.0  0.00597  0.87406  0.33263  1.0000
  S   S214      1.0  0.07977  0.89893  0.27800  1.0000
  S   S215      1.0  0.06150  0.85981  0.30353  1.0000
  N   N47       1.0  0.12577  0.92796  0.31627  1.0000
  C   C601      1.0  0.00349  0.84874  0.34027  1.0000
  C   C602      1.0  0.01890  0.83365  0.33505  1.0000
  N   N48       1.0  0.07057  0.76298  0.47947  1.0000
  H   H616      1.0  0.13480  0.85591  0.44624  1.0000
  H   H617      1.0  0.25184  0.81195  0.47600  1.0000
  H   H618      1.0  0.01464  0.83011  0.29113  1.0000
  H   H619      1.0  0.03240  0.83742  0.32573  1.0000
  C   C603      1.0  0.17926  0.95715  0.46991  1.0000
  H   H620      1.0  0.00151  0.93257  0.26446  1.0000
  C   C604      1.0  0.00773  0.94390  0.30638  1.0000
  C   C605      1.0  0.01848  0.95775  0.29360  1.0000
  H   H621      1.0  0.24390  0.97009  0.46264  1.0000
  H   H622      1.0  0.40927  0.83919  0.39099  1.0000
  H   H623      1.0  0.01467  0.92874  0.31006  1.0000
  H   H624      1.0  0.47945  0.67321  0.35466  1.0000
  C   C606      1.0  0.14762  0.83377  0.46827  1.0000
  C   C607      1.0  0.01072  0.82099  0.25577  1.0000
  H   H625      1.0  0.00585  0.71154  0.41916  1.0000
  S   S216      1.0  0.99867  0.78393  0.36628  1.0000
  H   H626      1.0  0.02915  0.80192  0.33876  1.0000
  H   H627      1.0  0.15023  0.91274  0.33132  1.0000
  C   C608      1.0  0.13149  0.90163  0.37432  1.0000
  C   C609      1.0  0.11329  0.91040  0.36726  1.0000
  C   C610      1.0  0.10481  0.90155  0.35340  1.0000
  C   C611      1.0  0.11468  0.88398  0.34613  1.0000
  C   C612      1.0  0.13247  0.87483  0.35375  1.0000
  C   C613      1.0  0.14078  0.88351  0.36783  1.0000
  H   H628      1.0  0.10593  0.92437  0.37223  1.0000
  H   H629      1.0  0.09107  0.90874  0.34781  1.0000
  H   H630      1.0  0.14024  0.86121  0.34829  1.0000
  H   H631      1.0  0.15483  0.87662  0.37299  1.0000
  C   C614      1.0  0.42283  0.83049  0.39579  1.0000
  C   C615      1.0  0.44052  0.81193  0.42153  1.0000
  C   C616      1.0  0.48425  0.67113  0.33909  1.0000
  H   H632      1.0  0.17995  0.95296  0.45505  1.0000
  C   C617      1.0  0.28488  0.86923  0.46497  1.0000
  N   N49       1.0  0.01543  0.66896  0.39701  1.0000
  C   C618      1.0  0.25033  0.87744  0.45716  1.0000
  C   C619      1.0  0.25703  0.88693  0.43825  1.0000
  C   C620      1.0  0.27776  0.88780  0.43291  1.0000
  C   C621      1.0  0.29166  0.87896  0.44619  1.0000
  C   C622      1.0  0.00187  0.79351  0.47894  1.0000
  H   H633      1.0  0.23458  0.87639  0.46153  1.0000
  H   H634      1.0  0.28316  0.89508  0.41831  1.0000
  H   H635      1.0  0.30762  0.87942  0.44178  1.0000
  C   C623      1.0  0.41490  0.87573  0.41848  1.0000
  C   C624      1.0  0.42888  0.86541  0.43071  1.0000
  C   C625      1.0  0.44899  0.86041  0.42255  1.0000
  C   C626      1.0  0.45528  0.86551  0.40208  1.0000
  C   C627      1.0  0.44135  0.87593  0.38983  1.0000
  C   C628      1.0  0.42124  0.88110  0.39805  1.0000
  H   H636      1.0  0.42427  0.86145  0.44650  1.0000
  H   H637      1.0  0.45973  0.85248  0.43213  1.0000
  H   H638      1.0  0.44606  0.88003  0.37407  1.0000
  H   H639      1.0  0.41054  0.88922  0.38852  1.0000
  H   H640      1.0  0.01159  0.81023  0.39472  1.0000
  H   H641      1.0  0.40873  0.82777  0.44444  1.0000
  H   H642      1.0  0.25374  0.93509  0.43321  1.0000
  H   H643      1.0  0.08376  0.93657  0.29315  1.0000
  C   C629      1.0  0.45650  0.87162  0.27161  1.0000
  C   C630      1.0  0.44693  0.86880  0.25531  1.0000
  H   H644      1.0  0.39771  0.81082  0.43237  1.0000
  H   H645      1.0  0.45149  0.86488  0.28655  1.0000
  H   H646      1.0  0.43487  0.85953  0.25781  1.0000
  H   H647      1.0  0.14320  0.89954  0.31310  1.0000
  C   C631      1.0  0.23019  0.82595  0.45654  1.0000
  H   H648      1.0  0.04709  0.80786  0.38165  1.0000
  H   H649      1.0  0.44081  0.80568  0.43708  1.0000
  H   H650      1.0  0.99710  0.83411  0.39675  1.0000
  C   C632      1.0  0.04518  0.82400  0.37771  1.0000
  H   H651      1.0  0.21225  0.84150  0.43414  1.0000
  H   H652      1.0  0.04134  0.82352  0.28918  1.0000
  C   C633      1.0  0.01704  0.81357  0.34242  1.0000
  C   C634      1.0  0.04634  0.81421  0.25231  1.0000
  H   H653      1.0  0.01801  0.66749  0.36560  1.0000
  H   H654      1.0  0.07427  0.82414  0.35967  1.0000
  H   H655      1.0  0.39417  0.83759  0.42466  1.0000
  C   C635      1.0  0.11214  0.84622  0.46969  1.0000
  C   C636      1.0  0.45248  0.93614  0.25417  1.0000
  C   C637      1.0  0.14491  0.91477  0.31634  1.0000
  H   H656      1.0  0.21731  0.82102  0.46650  1.0000
  N   N50       1.0  0.26581  0.82734  0.44924  1.0000
  C   C638      1.0  0.26311  0.83858  0.43125  1.0000
  H   H657      1.0  0.10958  0.89067  0.47262  1.0000
  C   C639      1.0  0.24382  0.84393  0.42557  1.0000
  H   H658      1.0  0.06057  0.81558  0.25724  1.0000
  C   C640      1.0  0.22730  0.83750  0.43831  1.0000
  N   N51       1.0  0.45378  0.94223  0.23400  1.0000
  H   H659      1.0  0.27582  0.84396  0.42141  1.0000
  H   H660      1.0  0.05739  0.79266  0.47000  1.0000
  C   C641      1.0  0.46788  0.89053  0.23311  1.0000
  H   H661      1.0  0.00596  0.96567  0.24546  1.0000
  H   H662      1.0  0.19453  0.98321  0.45974  1.0000
  N   N52       1.0  0.02858  0.82137  0.26279  1.0000
  H   H663      1.0  0.29662  0.83212  0.44733  1.0000
  N   N53       1.0  0.47995  0.65703  0.30972  1.0000
  N   N54       1.0  0.23345  0.94294  0.45848  1.0000
  S   S217      1.0  0.99573  0.80148  0.45450  1.0000
  H   H664      1.0  0.46361  0.93923  0.26291  1.0000
  C   C642      1.0  0.00938  0.70197  0.40729  1.0000
  C   C643      1.0  0.99983  0.80864  0.35517  1.0000
  H   H665      1.0  0.03802  0.88123  0.36280  1.0000
  C   C644      1.0  0.01393  0.69791  0.37220  1.0000
  H   H666      1.0  0.13210  0.94473  0.33837  1.0000
  H   H667      1.0  0.02210  0.87203  0.24532  1.0000
  H   H668      1.0  0.01037  0.67468  0.42751  1.0000
  C   C645      1.0  0.42361  0.91965  0.25256  1.0000
  H   H669      1.0  0.22779  0.94075  0.42893  1.0000
  H   H670      1.0  0.12052  0.78560  0.47472  1.0000
  H   H671      1.0  0.24165  0.85340  0.41159  1.0000
  C   C646      1.0  0.06056  0.83308  0.36528  1.0000
  H   H672      1.0  0.15649  0.92116  0.30495  1.0000
  C   C647      1.0  0.01222  0.82562  0.39821  1.0000
  Fe  Fe115     1.0  0.33548  0.85566  0.47941  1.0000
  C   C648      1.0  0.22467  0.92649  0.46747  1.0000
  C   C649      1.0  0.45811  0.80960  0.40802  1.0000
  H   H673      1.0  0.47160  0.81680  0.37760  1.0000
  C   C650      1.0  0.43735  0.92483  0.26376  1.0000
  C   C651      1.0  0.28614  0.82132  0.45475  1.0000
  C   C652      1.0  0.10656  0.77919  0.47584  1.0000
  H   H674      1.0  0.06988  0.86104  0.35038  1.0000
  C   C653      1.0  0.04034  0.86516  0.36715  1.0000
  H   H675      1.0  0.01139  0.86454  0.38467  1.0000
  C   C654      1.0  0.12161  0.94299  0.32827  1.0000
  C   C655      1.0  0.13185  0.84628  0.46010  1.0000
  C   C656      1.0  0.40506  0.82471  0.42984  1.0000
  S   S218      1.0  0.06566  0.86054  0.24490  1.0000
  C   C657      1.0  0.05810  0.85380  0.36004  1.0000
  C   C658      1.0  0.02529  0.85561  0.37952  1.0000
  C   C659      1.0  0.01185  0.68109  0.41192  1.0000
  C   C660      1.0  0.47746  0.89330  0.24935  1.0000
  C   C661      1.0  0.01051  0.71040  0.38729  1.0000
  H   H676      1.0  0.99670  0.82737  0.26364  1.0000
  C   C662      1.0  0.00921  0.97738  0.28900  1.0000
  S   S219      1.0  0.35092  0.88288  0.47881  1.0000
  C   C663      1.0  0.08904  0.79135  0.47112  1.0000
  C   C664      1.0  0.07104  0.78298  0.47314  1.0000
  N   N55       1.0  0.02781  0.83527  0.38458  1.0000
  H   H677      1.0  0.10003  0.96740  0.33813  1.0000
  C   C665      1.0  0.11247  0.92562  0.30369  1.0000
  H   H678      1.0  0.28619  0.82116  0.47114  1.0000
  C   C666      1.0  0.23952  0.94508  0.43678  1.0000
  H   H679      1.0  0.44001  0.83538  0.36652  1.0000
  S   S220      1.0  0.48048  0.85778  0.39251  1.0000
  C   C667      1.0  0.47338  0.66055  0.32906  1.0000
  C   C668      1.0  0.45787  0.81787  0.38807  1.0000
  C   C669      1.0  0.10347  0.95581  0.32826  1.0000
  H   H680      1.0  0.03103  0.84695  0.27632  1.0000
  S   S221      1.0  0.48309  0.84697  0.33580  1.0000
  C   C670      1.0  0.23713  0.95691  0.46970  1.0000
  C   C671      1.0  0.01623  0.67710  0.37737  1.0000
  N   N56       1.0  0.42326  0.82247  0.41537  1.0000
  H   H681      1.0  0.24171  0.96077  0.43069  1.0000
  H   H682      1.0  0.41235  0.91016  0.25964  1.0000
  C   C672      1.0  0.09432  0.93835  0.30312  1.0000
  H   H683      1.0  0.10004  0.85623  0.46347  1.0000
  H   H684      1.0  0.07557  0.96319  0.31535  1.0000
  C   C673      1.0  0.47152  0.88427  0.26877  1.0000
  C   C674      1.0  0.26416  0.86867  0.47040  1.0000
  C   C675      1.0  0.08976  0.95343  0.31558  1.0000
  C   C676      1.0  0.01033  0.81300  0.23798  1.0000
  H   H685      1.0  0.11573  0.91365  0.29423  1.0000
  H   H686      1.0  0.00806  0.72658  0.38352  1.0000
  H   H687      1.0  0.43697  0.91927  0.27958  1.0000
  S   S222      1.0  0.30149  0.85603  0.48159  1.0000
  C   C677      1.0  0.18744  0.97432  0.47257  1.0000
  H   H688      1.0  0.29208  0.80621  0.45051  1.0000
  H   H689      1.0  0.22182  0.91544  0.45855  1.0000
  H   H690      1.0  0.02277  0.81511  0.47625  1.0000
  C   C678      1.0  0.47823  0.65847  0.47319  1.0000
  H   H691      1.0  0.08927  0.80729  0.46650  1.0000
  H   H692      1.0  0.46017  0.65442  0.33716  1.0000
  H   H693      1.0  0.01517  0.82469  0.41400  1.0000
  C   C679      1.0  0.24968  0.82092  0.46179  1.0000
  C   C680      1.0  0.48416  0.67623  0.47715  1.0000
  H   H694      1.0  0.04019  0.76376  0.47368  1.0000
  C   C681      1.0  0.99103  0.96276  0.25239  1.0000
  S   S223      1.0  0.47922  0.89324  0.28930  1.0000
  H   H695      1.0  0.40793  0.75503  0.47484  1.0000
  H   H696      1.0  0.46374  0.65456  0.28580  1.0000
  H   H697      1.0  0.45018  0.72906  0.48075  1.0000
  S   S224      1.0  0.39244  0.79578  0.47939  1.0000
  H   H698      1.0  0.47917  0.95771  0.23445  1.0000
  H   H699      1.0  0.48885  0.90332  0.24704  1.0000
  H   H700      1.0  0.05342  0.73916  0.47877  1.0000
  C   C682      1.0  0.10592  0.75885  0.48240  1.0000
  C   C683      1.0  0.04649  0.80600  0.23454  1.0000
  C   C684      1.0  0.05139  0.75466  0.48284  1.0000
  H   H701      1.0  0.02205  0.84427  0.59734  1.0000
  S   S225      1.0  0.43139  0.68199  0.54422  1.0000
  C   C685      1.0  0.10810  0.83348  0.48738  1.0000
  H   H702      1.0  0.34545  0.91811  0.51606  1.0000
  Fe  Fe116     1.0  0.40240  0.68576  0.53092  1.0000
  S   S226      1.0  0.38066  0.71398  0.53565  1.0000
  S   S227      1.0  0.41667  0.67888  0.50035  1.0000
  C   C686      1.0  0.32148  0.93413  0.55874  1.0000
  H   H703      1.0  0.09449  0.96406  0.59319  1.0000
  H   H704      1.0  0.12760  0.68796  0.59186  1.0000
  Fe  Fe117     1.0  0.38940  0.95749  0.63765  1.0000
  Fe  Fe118     1.0  0.35192  0.97668  0.61744  1.0000
  S   S228      1.0  0.40618  0.93757  0.66160  1.0000
  C   C687      1.0  0.40438  0.89167  0.61141  1.0000
  Fe  Fe119     1.0  0.38969  0.96113  0.59182  1.0000
  S   S229      1.0  0.40119  0.94759  0.56287  1.0000
  H   H705      1.0  0.16173  0.94263  0.51843  1.0000
  S   S230      1.0  0.37059  0.94630  0.61771  1.0000
  N   N57       1.0  0.10278  0.69434  0.57525  1.0000
  C   C688      1.0  0.99872  0.77228  0.51089  1.0000
  C   C689      1.0  0.09605  0.67826  0.56948  1.0000
  Fe  Fe120     1.0  0.36674  0.86521  0.50387  1.0000
  S   S231      1.0  0.36531  0.87612  0.53446  1.0000
  S   S232      1.0  0.35002  0.83845  0.50555  1.0000
  Fe  Fe121     1.0  0.07949  0.81262  0.52709  1.0000
  S   S233      1.0  0.10021  0.80261  0.55052  1.0000
  C   C690      1.0  0.01570  0.83188  0.59319  1.0000
  Fe  Fe122     1.0  0.04839  0.78586  0.54663  1.0000
  S   S234      1.0  0.06611  0.77359  0.57212  1.0000
  S   S235      1.0  0.02007  0.77435  0.54189  1.0000
  Fe  Fe123     1.0  0.07191  0.80563  0.57244  1.0000
  S   S236      1.0  0.06525  0.82057  0.60129  1.0000
  Fe  Fe124     1.0  0.09269  0.77170  0.54811  1.0000
  S   S237      1.0  0.11589  0.74453  0.54392  1.0000
  S   S238      1.0  0.05169  0.81774  0.54881  1.0000
  S   S239      1.0  0.07448  0.78186  0.52294  1.0000
  Fe  Fe125     1.0  0.09465  0.90415  0.66280  1.0000
  S   S240      1.0  0.07927  0.93436  0.65194  1.0000
  S   S241      1.0  0.10672  0.88381  0.63824  1.0000
  Fe  Fe126     1.0  0.09461  0.91736  0.70514  1.0000
  S   S242      1.0  0.07842  0.94797  0.69676  1.0000
  Fe  Fe127     1.0  0.05945  0.93206  0.68136  1.0000
  S   S243      1.0  0.02654  0.93923  0.67765  1.0000
  Fe  Fe128     1.0  0.09964  0.94724  0.66831  1.0000
  C   C691      1.0  0.06896  0.71110  0.57940  1.0000
  S   S244      1.0  0.07376  0.90094  0.69181  1.0000
  S   S245      1.0  0.11688  0.91750  0.67717  1.0000
  H   H706      1.0  0.99581  0.78707  0.57698  1.0000
  C   C692      1.0  0.00908  0.95784  0.68830  1.0000
  C   C693      1.0  0.15143  0.97881  0.71443  1.0000
  S   S246      1.0  0.39302  0.85197  0.48330  1.0000
  H   H707      1.0  0.17188  0.90976  0.70968  1.0000
  S   S247      1.0  0.18695  0.96088  0.58903  1.0000
  C   C694      1.0  0.00978  0.79727  0.59937  1.0000
  C   C695      1.0  0.10952  0.72465  0.53283  1.0000
  C   C696      1.0  0.08950  0.72311  0.53110  1.0000
  C   C697      1.0  0.08447  0.70573  0.52499  1.0000
  C   C698      1.0  0.09937  0.68980  0.52043  1.0000
  C   C699      1.0  0.11951  0.69182  0.52106  1.0000
  C   C700      1.0  0.12454  0.70918  0.52728  1.0000
  H   H708      1.0  0.07777  0.73487  0.53538  1.0000
  H   H709      1.0  0.06885  0.70426  0.52459  1.0000
  C   C701      1.0  0.14781  0.94944  0.69976  1.0000
  H   H710      1.0  0.31897  0.92756  0.51768  1.0000
  C   C702      1.0  0.07674  0.83885  0.61062  1.0000
  C   C703      1.0  0.06689  0.84750  0.62764  1.0000
  C   C704      1.0  0.07559  0.86156  0.63603  1.0000
  C   C705      1.0  0.09445  0.86697  0.62767  1.0000
  C   C706      1.0  0.10425  0.85843  0.61055  1.0000
  C   C707      1.0  0.09543  0.84457  0.60199  1.0000
  H   H711      1.0  0.05249  0.84318  0.63456  1.0000
  H   H712      1.0  0.06786  0.86788  0.64922  1.0000
  H   H713      1.0  0.11889  0.86236  0.60400  1.0000
  H   H714      1.0  0.10330  0.83798  0.58903  1.0000
  H   H715      1.0  0.40677  0.76262  0.54999  1.0000
  C   C708      1.0  0.01315  0.78171  0.51764  1.0000
  H   H716      1.0  0.39311  0.88186  0.61751  1.0000
  H   H717      1.0  0.13645  0.89717  0.60596  1.0000
  C   C709      1.0  0.39763  0.75494  0.48857  1.0000
  H   H718      1.0  0.42925  0.92652  0.62481  1.0000
  N   N58       1.0  0.99980  0.81800  0.56989  1.0000
  S   S248      1.0  0.11328  0.97527  0.65559  1.0000
  N   N59       1.0  0.33375  0.93441  0.54087  1.0000
  C   C710      1.0  0.11424  0.85571  0.52882  1.0000
  C   C711      1.0  0.16760  0.96524  0.60852  1.0000
  H   H719      1.0  0.09078  0.87570  0.51586  1.0000
  C   C712      1.0  0.00112  0.79983  0.58157  1.0000
  C   C713      1.0  0.13469  0.97134  0.63810  1.0000
  C   C714      1.0  0.14430  0.95199  0.63606  1.0000
  C   C715      1.0  0.16087  0.94896  0.62142  1.0000
  C   C716      1.0  0.17745  0.96839  0.50832  1.0000
  H   H720      1.0  0.14066  0.83677  0.53753  1.0000
  H   H721      1.0  0.13892  0.93928  0.64555  1.0000
  H   H722      1.0  0.36534  0.78655  0.51633  1.0000
  H   H723      1.0  0.33964  0.96978  0.57879  1.0000
  C   C717      1.0  0.39080  0.92796  0.55500  1.0000
  C   C718      1.0  0.37665  0.91745  0.56767  1.0000
  C   C719      1.0  0.36921  0.90152  0.56114  1.0000
  C   C720      1.0  0.37550  0.89616  0.54176  1.0000
  C   C721      1.0  0.38941  0.90686  0.52897  1.0000
  C   C722      1.0  0.39716  0.92257  0.53565  1.0000
  H   H724      1.0  0.37158  0.92145  0.58257  1.0000
  H   H725      1.0  0.35840  0.89336  0.57112  1.0000
  H   H726      1.0  0.39438  0.90288  0.51402  1.0000
  H   H727      1.0  0.40810  0.93062  0.52572  1.0000
  H   H728      1.0  0.35745  0.94787  0.52194  1.0000
  C   C723      1.0  0.34997  0.96060  0.54960  1.0000
  C   C724      1.0  0.39304  0.95500  0.69679  1.0000
  C   C725      1.0  0.40643  0.94062  0.68717  1.0000
  C   C726      1.0  0.42047  0.92807  0.69816  1.0000
  H   H729      1.0  0.45833  0.92533  0.57553  1.0000
  H   H730      1.0  0.21120  0.91125  0.49510  1.0000
  H   H731      1.0  0.38198  0.96462  0.68867  1.0000
  H   H732      1.0  0.36126  0.75431  0.53804  1.0000
  C   C727      1.0  0.38258  0.73639  0.51897  1.0000
  C   C728      1.0  0.39555  0.73673  0.50096  1.0000
  C   C729      1.0  0.18671  0.97990  0.49179  1.0000
  C   C730      1.0  0.38698  0.77306  0.49412  1.0000
  C   C731      1.0  0.37363  0.77271  0.51187  1.0000
  C   C732      1.0  0.37140  0.75443  0.52419  1.0000
  H   H733      1.0  0.40414  0.72299  0.49668  1.0000
  C   C733      1.0  0.99320  0.77804  0.49150  1.0000
  H   H734      1.0  0.14009  0.71032  0.52844  1.0000
  H   H735      1.0  0.43833  0.94555  0.57936  1.0000
  C   C734      1.0  0.39363  0.95665  0.71715  1.0000
  C   C735      1.0  0.01458  0.97220  0.69868  1.0000
  C   C736      1.0  0.14002  0.87476  0.49918  1.0000
  H   H736      1.0  0.09723  0.90490  0.49249  1.0000
  C   C737      1.0  0.16060  0.94561  0.73097  1.0000
  H   H737      1.0  0.43914  0.77740  0.49207  1.0000
  N   N60       1.0  0.11979  0.88097  0.50078  1.0000
  C   C738      1.0  0.41246  0.89243  0.59128  1.0000
  C   C739      1.0  0.10690  0.87148  0.51517  1.0000
  C   C740      1.0  0.10750  0.96307  0.60164  1.0000
  H   H738      1.0  0.42175  0.72709  0.54953  1.0000
  H   H739      1.0  0.01118  0.78277  0.60839  1.0000
  H   H740      1.0  0.25879  0.86109  0.48486  1.0000
  H   H741      1.0  0.16819  0.93394  0.61977  1.0000
  C   C741      1.0  0.41058  0.90392  0.62354  1.0000
  C   C742      1.0  0.23162  0.95477  0.49045  1.0000
  C   C743      1.0  0.44665  0.93189  0.58684  1.0000
  C   C744      1.0  0.14588  0.97030  0.69887  1.0000
  H   H742      1.0  0.44571  0.71724  0.52036  1.0000
  H   H743      1.0  0.31377  0.94666  0.58689  1.0000
  H   H744      1.0  0.10232  0.96024  0.61795  1.0000
  H   H745      1.0  0.11935  0.74933  0.48659  1.0000
  H   H746      1.0  0.08730  0.73516  0.48941  1.0000
  H   H747      1.0  0.09491  0.72340  0.58469  1.0000
  H   H748      1.0  0.04507  0.75438  0.49890  1.0000
  C   C745      1.0  0.42477  0.91685  0.61530  1.0000
  H   H749      1.0  0.03301  0.80446  0.51003  1.0000
  S   S249      1.0  0.31788  0.97697  0.61957  1.0000
  H   H750      1.0  0.40420  0.90374  0.63917  1.0000
  N   N61       1.0  0.43259  0.91753  0.59554  1.0000
  H   H751      1.0  0.45446  0.93642  0.59844  1.0000
  C   C746      1.0  0.21884  0.92394  0.48817  1.0000
  S   S250      1.0  0.41028  0.96985  0.61146  1.0000
  N   N62       1.0  0.44412  0.74674  0.50474  1.0000
  H   H752      1.0  0.07052  0.66594  0.56274  1.0000
  C   C747      1.0  0.43949  0.73282  0.52071  1.0000
  C   C748      1.0  0.42288  0.77249  0.52140  1.0000
  C   C749      1.0  0.42618  0.73835  0.53732  1.0000
  C   C750      1.0  0.41777  0.75831  0.53759  1.0000
  H   H753      1.0  0.12878  0.70934  0.57270  1.0000
  C   C751      1.0  0.12367  0.82009  0.49502  1.0000
  C   C752      1.0  0.22232  0.93823  0.49969  1.0000
  H   H754      1.0  0.41580  0.78790  0.52108  1.0000
  H   H755      1.0  0.99186  0.76041  0.52061  1.0000
  S   S251      1.0  0.08362  0.83515  0.49998  1.0000
  H   H756      1.0  0.14349  0.94301  0.68758  1.0000
  C   C753      1.0  0.99165  0.82033  0.55073  1.0000
  H   H757      1.0  0.00642  0.84817  0.56598  1.0000
  C   C754      1.0  0.08952  0.71052  0.58042  1.0000
  H   H758      1.0  0.23378  0.96632  0.49919  1.0000
  C   C755      1.0  0.14786  0.85886  0.51240  1.0000
  C   C756      1.0  0.13698  0.91234  0.59847  1.0000
  H   H759      1.0  0.43087  0.91685  0.69093  1.0000
  C   C757      1.0  0.13486  0.84935  0.52737  1.0000
  H   H760      1.0  0.13989  0.97973  0.68627  1.0000
  H   H761      1.0  0.43994  0.96982  0.67068  1.0000
  C   C758      1.0  0.07560  0.67833  0.56828  1.0000
  H   H762      1.0  0.40602  0.98248  0.66131  1.0000
  H   H763      1.0  0.17688  0.97256  0.52318  1.0000
  C   C759      1.0  0.14347  0.82024  0.48544  1.0000
  C   C760      1.0  0.16997  0.94568  0.48643  1.0000
  H   H764      1.0  0.13112  0.67966  0.51756  1.0000
  C   C761      1.0  0.06201  0.69490  0.57322  1.0000
  N   N63       1.0  0.12306  0.94706  0.59532  1.0000
  C   C762      1.0  0.13801  0.95138  0.58014  1.0000
  C   C763      1.0  0.12219  0.92778  0.60421  1.0000
  S   S252      1.0  0.09181  0.66683  0.51686  1.0000
  H   H765      1.0  0.14517  0.91099  0.70859  1.0000
  H   H766      1.0  0.10390  0.84809  0.54003  1.0000
  C   C764      1.0  0.33140  0.92098  0.52651  1.0000
  C   C765      1.0  0.34765  0.94765  0.53606  1.0000
  H   H767      1.0  0.04619  0.69535  0.57183  1.0000
  H   H768      1.0  0.03009  0.97167  0.70110  1.0000
  Fe  Fe129     1.0  0.44537  0.67363  0.51408  1.0000
  H   H769      1.0  0.13891  0.96668  0.57320  1.0000
  C   C766      1.0  0.15255  0.91669  0.58335  1.0000
  H   H770      1.0  0.16386  0.85373  0.51072  1.0000
  H   H771      1.0  0.00406  0.82160  0.53817  1.0000
  C   C767      1.0  0.15300  0.93629  0.57398  1.0000
  H   H772      1.0  0.06920  0.97715  0.65726  1.0000
  C   C768      1.0  0.42110  0.92976  0.71852  1.0000
  H   H773      1.0  0.12057  0.80999  0.50853  1.0000
  C   C769      1.0  0.28220  0.98447  0.60331  1.0000
  C   C770      1.0  0.01709  0.81343  0.60518  1.0000
  S   S253      1.0  0.47220  0.68797  0.49794  1.0000
  H   H774      1.0  0.36149  0.97058  0.54609  1.0000
  C   C771      1.0  0.16894  0.95143  0.50561  1.0000
  H   H775      1.0  0.31027  0.92385  0.56244  1.0000
  H   H776      1.0  0.10654  0.66557  0.56496  1.0000
  H   H777      1.0  0.40736  0.88338  0.58154  1.0000
  C   C772      1.0  0.45723  0.74011  0.48716  1.0000
  H   H778      1.0  0.43196  0.90687  0.56762  1.0000
  C   C773      1.0  0.32337  0.94692  0.57261  1.0000
  C   C774      1.0  0.15667  0.91554  0.71656  1.0000
  C   C775      1.0  0.42650  0.90565  0.58351  1.0000
  H   H779      1.0  0.02438  0.81157  0.61866  1.0000
  H   H780      1.0  0.16531  0.93999  0.56256  1.0000
  C   C776      1.0  0.12426  0.69400  0.57650  1.0000
  C   C777      1.0  0.33782  0.96008  0.56802  1.0000
  C   C778      1.0  0.02194  0.79700  0.50498  1.0000
  H   H781      1.0  0.05860  0.72425  0.58288  1.0000
  H   H782      1.0  0.16439  0.90497  0.57909  1.0000
  H   H783      1.0  0.03354  0.97832  0.65264  1.0000
  H   H784      1.0  0.21733  0.93682  0.51567  1.0000
  C   C779      1.0  0.15903  0.96642  0.73050  1.0000
  H   H785      1.0  0.11022  0.92422  0.61607  1.0000
  H   H786      1.0  0.13364  0.68469  0.56557  1.0000
  C   C780      1.0  0.00696  0.83392  0.57548  1.0000
  C   C781      1.0  0.08771  0.75094  0.48408  1.0000
  H   H787      1.0  0.32821  0.90604  0.53437  1.0000
  C   C782      1.0  0.43498  0.98582  0.66894  1.0000
  H   H788      1.0  0.38305  0.96768  0.72446  1.0000
  H   H789      1.0  0.27685  0.97385  0.61563  1.0000
  N   N64       1.0  0.15473  0.93739  0.71586  1.0000
  C   C783      1.0  0.43610  0.76640  0.50495  1.0000
  C   C784      1.0  0.15807  0.98464  0.61059  1.0000
  H   H790      1.0  0.15563  0.81037  0.49169  1.0000
  C   C785      1.0  0.11180  0.89703  0.48619  1.0000
  H   H791      1.0  0.15392  0.90826  0.73226  1.0000
  H   H792      1.0  0.47193  0.73261  0.49154  1.0000
  H   H793      1.0  0.43188  0.91989  0.72678  1.0000
  C   C786      1.0  0.40758  0.94400  0.72819  1.0000
  H   H794      1.0  0.10310  0.95276  0.73171  1.0000
  H   H795      1.0  0.15021  0.88196  0.48750  1.0000
  S   S254      1.0  0.39640  0.65382  0.54215  1.0000
  H   H796      1.0  0.11344  0.97777  0.59918  1.0000
  C   C787      1.0  0.01616  0.80300  0.48582  1.0000
  S   S255      1.0  0.15976  0.92393  0.48364  1.0000
  Fe  Fe130     1.0  0.37493  0.82666  0.48305  1.0000
  Fe  Fe131     1.0  0.14906  0.83347  0.95241  1.0000
  S   S256      1.0  0.17602  0.81086  0.95702  1.0000
  S   S257      1.0  0.14092  0.84691  0.92172  1.0000
  N   N65       1.0  0.34809  0.98243  0.80364  1.0000
  C   C788      1.0  0.25386  0.96965  0.88496  1.0000
  H   H797      1.0  0.13798  0.79818  0.93130  1.0000
  N   N66       1.0  0.15140  0.77423  0.91508  1.0000
  Fe  Fe132     1.0  0.14654  0.96921  0.81602  1.0000
  S   S258      1.0  0.12844  0.96010  0.84581  1.0000
  S   S259      1.0  0.13837  0.96895  0.78438  1.0000
  N   N67       1.0  0.10999  0.89877  0.93885  1.0000
  Fe  Fe133     1.0  0.15848  0.95171  0.85760  1.0000
  S   S260      1.0  0.17157  0.92930  0.88198  1.0000
  H   H798      1.0  0.00572  0.66939  0.97374  1.0000
  S   S261      1.0  0.17652  0.95840  0.82735  1.0000
  H   H799      1.0  0.26806  0.97581  0.88139  1.0000
  H   H800      1.0  0.19933  0.95862  0.86075  1.0000
  S   S262      1.0  0.07639  0.66486  0.93082  1.0000
  H   H801      1.0  0.13076  0.73842  0.89799  1.0000
  H   H802      1.0  0.38230  0.75673  0.93527  1.0000
  Fe  Fe134     1.0  0.10486  0.67770  0.93323  1.0000
  S   S263      1.0  0.10306  0.71152  0.93425  1.0000
  H   H803      1.0  0.44381  0.80296  0.86769  1.0000
  C   C789      1.0  0.40903  0.88479  0.87608  1.0000
  Fe  Fe135     1.0  0.42696  0.93210  0.82223  1.0000
  S   S264      1.0  0.41371  0.91267  0.80513  1.0000
  S   S265      1.0  0.40900  0.93989  0.85109  1.0000
  Fe  Fe136     1.0  0.46654  0.92981  0.79509  1.0000
  S   S266      1.0  0.45635  0.90967  0.77581  1.0000
  Fe  Fe137     1.0  0.42733  0.93071  0.77733  1.0000
  Fe  Fe138     1.0  0.44356  0.89354  0.80539  1.0000
  S   S267      1.0  0.44376  0.85991  0.81433  1.0000
  S   S268      1.0  0.43848  0.95176  0.79487  1.0000
  S   S269      1.0  0.45603  0.91204  0.82412  1.0000
  Fe  Fe139     1.0  0.43758  0.74800  0.93737  1.0000
  H   H804      1.0  0.41202  0.85486  0.86840  1.0000
  H   H805      1.0  0.39312  0.82971  0.91736  1.0000
  Fe  Fe140     1.0  0.44820  0.79024  0.91969  1.0000
  S   S270      1.0  0.43213  0.80326  0.94697  1.0000
  S   S271      1.0  0.46352  0.81464  0.89907  1.0000
  Fe  Fe141     1.0  0.44668  0.77619  0.96479  1.0000
  H   H806      1.0  0.41959  0.82703  0.90796  1.0000
  C   C790      1.0  0.38620  0.81348  0.97928  1.0000
  S   S272      1.0  0.46459  0.76406  0.93776  1.0000
  S   S273      1.0  0.42292  0.77314  0.91662  1.0000
  C   C791      1.0  0.40475  0.89681  0.89156  1.0000
  H   H807      1.0  0.13187  0.91813  0.92664  1.0000
  C   C792      1.0  0.45540  0.82773  0.87663  1.0000
  C   C793      1.0  0.44672  0.81835  0.86361  1.0000
  C   C794      1.0  0.44288  0.82852  0.84471  1.0000
  C   C795      1.0  0.44722  0.84829  0.83885  1.0000
  C   C796      1.0  0.45512  0.85792  0.85225  1.0000
  C   C797      1.0  0.45936  0.84762  0.87094  1.0000
  H   H808      1.0  0.45861  0.87307  0.84800  1.0000
  H   H809      1.0  0.46610  0.85500  0.88090  1.0000
  H   H810      1.0  0.09368  0.85310  0.97505  1.0000
  H   H811      1.0  0.34617  0.70962  0.95897  1.0000
  C   C798      1.0  0.39415  0.96326  0.84905  1.0000
  C   C799      1.0  0.36988  0.70309  0.93509  1.0000
  C   C800      1.0  0.42859  0.67741  0.94313  1.0000
  N   N68       1.0  0.40393  0.85562  0.89984  1.0000
  H   H812      1.0  0.37950  0.95872  0.87936  1.0000
  H   H813      1.0  0.11548  0.91474  0.90939  1.0000
  C   C801      1.0  0.09633  0.86742  0.94457  1.0000
  H   H814      1.0  0.36666  0.68782  0.93558  1.0000
  C   C802      1.0  0.39000  0.72902  0.92209  1.0000
  H   H815      1.0  0.39687  0.89728  0.92337  1.0000
  H   H816      1.0  0.04083  0.65484  0.96322  1.0000
  H   H817      1.0  0.05080  0.69271  0.96076  1.0000
  C   C803      1.0  0.39871  0.67001  0.96599  1.0000
  C   C804      1.0  0.36418  0.94463  0.81978  1.0000
  C   C805      1.0  0.40997  0.70318  0.96198  1.0000
  C   C806      1.0  0.42565  0.69739  0.94736  1.0000
  C   C807      1.0  0.24448  0.96775  0.90467  1.0000
  S   S274      1.0  0.34040  0.98414  0.93747  1.0000
  C   C808      1.0  0.06093  0.69631  0.97085  1.0000
  H   H818      1.0  0.40755  0.71842  0.96552  1.0000
  C   C809      1.0  0.12685  0.95213  0.77311  1.0000
  C   C810      1.0  0.11697  0.95966  0.75624  1.0000
  H   H819      1.0  0.34184  0.82679  0.96021  1.0000
  C   C811      1.0  0.39523  0.97616  0.83108  1.0000
  C   C812      1.0  0.12257  0.91843  0.76748  1.0000
  C   C813      1.0  0.12934  0.93141  0.77885  1.0000
  H   H820      1.0  0.07615  0.68845  0.96647  1.0000
  H   H821      1.0  0.39799  0.68083  0.91468  1.0000
  C   C814      1.0  0.37123  0.81344  0.96720  1.0000
  H   H822      1.0  0.13699  0.92532  0.79169  1.0000
  H   H823      1.0  0.12610  0.77503  0.89946  1.0000
  C   C815      1.0  0.14025  0.74570  0.96665  1.0000
  C   C816      1.0  0.12365  0.75561  0.95763  1.0000
  C   C817      1.0  0.11203  0.74480  0.94842  1.0000
  C   C818      1.0  0.11679  0.72396  0.94810  1.0000
  C   C819      1.0  0.13297  0.71395  0.95770  1.0000
  C   C820      1.0  0.14461  0.72478  0.96689  1.0000
  H   H824      1.0  0.11998  0.77165  0.95745  1.0000
  H   H825      1.0  0.09950  0.75269  0.94112  1.0000
  H   H826      1.0  0.13685  0.69795  0.95762  1.0000
  C   C821      1.0  0.14964  0.86970  0.91061  1.0000
  C   C822      1.0  0.14279  0.87940  0.89274  1.0000
  C   C823      1.0  0.14919  0.89780  0.88380  1.0000
  C   C824      1.0  0.16273  0.90643  0.89257  1.0000
  C   C825      1.0  0.16965  0.89665  0.91037  1.0000
  C   C826      1.0  0.16298  0.87846  0.91947  1.0000
  H   H827      1.0  0.13252  0.87265  0.88574  1.0000
  H   H828      1.0  0.14387  0.90515  0.87002  1.0000
  H   H829      1.0  0.18020  0.90318  0.91720  1.0000
  H   H830      1.0  0.16842  0.87108  0.93318  1.0000
  C   C827      1.0  0.11327  0.92594  0.75024  1.0000
  H   H831      1.0  0.17593  0.76887  0.93240  1.0000
  S   S275      1.0  0.37541  0.79745  0.94846  1.0000
  Fe  Fe142     1.0  0.40806  0.78455  0.94521  1.0000
  H   H832      1.0  0.25122  0.96710  0.85439  1.0000
  C   C828      1.0  0.40016  0.88804  0.91124  1.0000
  C   C829      1.0  0.37862  0.74171  0.93519  1.0000
  H   H833      1.0  0.47380  0.96119  0.81958  1.0000
  C   C830      1.0  0.32554  0.97071  0.95667  1.0000
  H   H834      1.0  0.44075  0.67273  0.93193  1.0000
  C   C831      1.0  0.40854  0.86409  0.88052  1.0000
  H   H835      1.0  0.10132  0.88473  0.91582  1.0000
  H   H836      1.0  0.43682  0.82091  0.83444  1.0000
  C   C832      1.0  0.40442  0.83381  0.90437  1.0000
  H   H837      1.0  0.14034  0.80445  0.90445  1.0000
  H   H838      1.0  0.16203  0.80192  0.91709  1.0000
  H   H839      1.0  0.11788  0.90913  0.96449  1.0000
  C   C833      1.0  0.16973  0.74175  0.92310  1.0000
  C   C834      1.0  0.38031  0.96858  0.86538  1.0000
  H   H840      1.0  0.40104  0.82707  0.89146  1.0000
  H   H841      1.0  0.40269  0.73432  0.91214  1.0000
  C   C835      1.0  0.39996  0.86726  0.91516  1.0000
  C   C836      1.0  0.48878  0.81158  0.94809  1.0000
  C   C837      1.0  0.22583  0.96059  0.90905  1.0000
  H   H842      1.0  0.25147  0.97234  0.91639  1.0000
  H   H843      1.0  0.38385  0.69458  0.98165  1.0000
  S   S276      1.0  0.42084  0.75856  0.96564  1.0000
  H   H844      1.0  0.39662  0.86049  0.93053  1.0000
  C   C838      1.0  0.14774  0.79569  0.91706  1.0000
  S   S277      1.0  0.40714  0.94651  0.75399  1.0000
  C   C839      1.0  0.11174  0.89751  0.95880  1.0000
  N   N69       1.0  0.38571  0.70990  0.92235  1.0000
  C   C840      1.0  0.41521  0.66374  0.95242  1.0000
  S   S278      1.0  0.44023  0.71512  0.93243  1.0000
  C   C841      1.0  0.14132  0.74519  0.90469  1.0000
  H   H845      1.0  0.40509  0.91290  0.88828  1.0000
  C   C842      1.0  0.30479  0.97625  0.96063  1.0000
  C   C843      1.0  0.11609  0.91627  0.92535  1.0000
  C   C844      1.0  0.16661  0.76244  0.92393  1.0000
  H   H846      1.0  0.41283  0.89151  0.86075  1.0000
  H   H847      1.0  0.39151  0.69933  0.89394  1.0000
  S   S279      1.0  0.15688  0.75887  0.97635  1.0000
  H   H848      1.0  0.38150  0.94296  0.79072  1.0000
  H   H849      1.0  0.18131  0.73238  0.93081  1.0000
  H   H850      1.0  0.40590  0.97218  0.81845  1.0000
  H   H851      1.0  0.12489  0.90241  0.77188  1.0000
  H   H852      1.0  0.22137  0.96081  0.84325  1.0000
  C   C845      1.0  0.33497  0.95496  0.96904  1.0000
  H   H853      1.0  0.24598  0.85475  0.97913  1.0000
  H   H854      1.0  0.21751  0.93682  0.85793  1.0000
  H   H855      1.0  0.35104  0.95068  0.96609  1.0000
  C   C846      1.0  0.11029  0.94669  0.74484  1.0000
  H   H856      1.0  0.47563  0.80341  0.95382  1.0000
  H   H857      1.0  0.16284  0.97283  0.74301  1.0000
  C   C847      1.0  0.48299  0.82617  0.97969  1.0000
  S   S280      1.0  0.12754  0.81417  0.97135  1.0000
  S   S281      1.0  0.12332  0.65927  0.91028  1.0000
  N   N70       1.0  0.22573  0.95820  0.87416  1.0000
  C   C848      1.0  0.21668  0.95569  0.89352  1.0000
  C   C849      1.0  0.24420  0.96483  0.86977  1.0000
  C   C850      1.0  0.10232  0.88404  0.93167  1.0000
  H   H858      1.0  0.49003  0.82655  0.84032  1.0000
  C   C851      1.0  0.34984  0.95639  0.83145  1.0000
  C   C852      1.0  0.21565  0.95330  0.85818  1.0000
  H   H859      1.0  0.20211  0.95020  0.89693  1.0000
  C   C853      1.0  0.13869  0.76585  0.90572  1.0000
  H   H860      1.0  0.48416  0.82439  0.93695  1.0000
  H   H861      1.0  0.48667  0.86679  0.77858  1.0000
  C   C854      1.0  0.37026  0.95188  0.79993  1.0000
  C   C855      1.0  0.35342  0.82675  0.96962  1.0000
  H   H862      1.0  0.15860  0.71697  0.91347  1.0000
  H   H863      1.0  0.37100  0.93018  0.82626  1.0000
  C   C856      1.0  0.15696  0.73311  0.91343  1.0000
  S   S282      1.0  0.15277  0.85028  0.97738  1.0000
  H   H864      1.0  0.15736  0.71692  0.97387  1.0000
  H   H865      1.0  0.33137  0.98476  0.83251  1.0000
  C   C857      1.0  0.39775  0.69688  0.90842  1.0000
  C   C858      1.0  0.36222  0.97100  0.79210  1.0000
  C   C859      1.0  0.36271  0.73478  0.94848  1.0000
  S   S283      1.0  0.37856  0.65554  0.97402  1.0000
  H   H866      1.0  0.21835  0.95916  0.92430  1.0000
  C   C860      1.0  0.34185  0.97535  0.82307  1.0000
  H   H867      1.0  0.10605  0.93002  0.92907  1.0000
  C   C861      1.0  0.35823  0.71537  0.94843  1.0000
  S   S284      1.0  0.10683  0.90884  0.73530  1.0000
  H   H868      1.0  0.36764  0.97668  0.77683  1.0000
  H   H869      1.0  0.41369  0.69996  0.90576  1.0000
  H   H870      1.0  0.09094  0.85543  0.93871  1.0000
  H   H871      1.0  0.11493  0.97564  0.75164  1.0000
  S   S285      1.0  0.15880  0.98224  0.86650  1.0000
  C   C862      1.0  0.09806  0.86602  0.96491  1.0000
  H   H872      1.0  0.16579  0.93612  0.74391  1.0000
  H   H873      1.0  0.35405  0.74441  0.95894  1.0000
  H   H874      1.0  0.06204  0.71265  0.96829  1.0000
  C   C863      1.0  0.39655  0.68959  0.97115  1.0000
  H   H875      1.0  0.48753  0.83826  0.80542  1.0000
  Fe  Fe143     1.0  0.15466  0.79259  0.97784  1.0000
  H   H876      1.0  0.27722  0.81240  0.96828  1.0000
  C   C864      1.0  0.29363  0.96627  0.97715  1.0000
  H   H877      1.0  0.39961  0.80278  0.97812  1.0000
  C   C865      1.0  0.10576  0.88116  0.97212  1.0000
  H   H878      1.0  0.34558  0.95125  0.84713  1.0000
  C   C866      1.0  0.48876  0.96561  0.81716  1.0000
  H   H879      1.0  0.27764  0.97076  0.98036  1.0000
  S   S286      1.0  0.11300  0.65557  0.95933  1.0000
  H   H880      1.0  0.46694  0.82623  0.97976  1.0000
  Fe  Fe144     1.0  0.86098  0.09769  0.00603  1.0000
  S   S287      1.0  0.84205  0.12790  0.00247  1.0000
  S   S288      1.0  0.84983  0.07872  0.03474  1.0000
  H   H881      1.0  0.76780  0.08727  0.00137  1.0000
  C   C867      1.0  0.77409  0.05634  0.99657  1.0000
  H   H882      1.0  0.86686  0.26297  0.02312  1.0000
  Fe  Fe145     1.0  0.63129  0.31322  0.00708  1.0000
  N   N71       1.0  0.79681  0.07437  0.00884  1.0000
  S   S289      1.0  0.89486  0.00513  0.08650  1.0000
  H   H883      1.0  0.85911  0.21638  0.05369  1.0000
  H   H884      1.0  0.55323  0.99389  0.12483  1.0000
  S   S290      1.0  0.62363  0.28416  0.02573  1.0000
  Fe  Fe146     1.0  0.91958  0.25288  0.03585  1.0000
  S   S291      1.0  0.93825  0.26287  0.00717  1.0000
  S   S292      1.0  0.90488  0.22399  0.04230  1.0000
  Fe  Fe147     1.0  0.92487  0.29021  0.05537  1.0000
  C   C868      1.0  0.56430  0.27936  0.99875  1.0000
  H   H885      1.0  0.51682  0.99915  0.18076  1.0000
  Fe  Fe148     1.0  0.92174  0.29339  0.01080  1.0000
  H   H886      1.0  0.90947  0.03278  0.05334  1.0000
  Fe  Fe149     1.0  0.95880  0.27153  0.02659  1.0000
  H   H887      1.0  0.98094  0.26704  0.06987  1.0000
  S   S293      1.0  0.90124  0.28311  0.03816  1.0000
  S   S294      1.0  0.94169  0.25904  0.05542  1.0000
  Fe  Fe150     1.0  0.56572  0.04472  0.15944  1.0000
  S   S295      1.0  0.57882  0.01735  0.14501  1.0000
  S   S296      1.0  0.54706  0.06953  0.14155  1.0000
  Fe  Fe151     1.0  0.57920  0.02623  0.20019  1.0000
  C   C869      1.0  0.53776  0.99190  0.12405  1.0000
  Fe  Fe152     1.0  0.60504  0.01740  0.16151  1.0000
  S   S297      1.0  0.63622  0.01196  0.14528  1.0000
  H   H888      1.0  0.52806  0.13871  0.99967  1.0000
  H   H889      1.0  0.95094  0.27356  0.09500  1.0000
  S   S298      1.0  0.59306  0.04624  0.17401  1.0000
  S   S299      1.0  0.55048  0.02717  0.18668  1.0000
  Fe  Fe153     1.0  0.57828  0.18465  0.01302  1.0000
  C   C870      1.0  0.97988  0.30971  0.11510  1.0000
  H   H890      1.0  0.61239  0.00263  0.22770  1.0000
  Fe  Fe154     1.0  0.57209  0.15124  0.04831  1.0000
  S   S300      1.0  0.55289  0.13590  0.03271  1.0000
  S   S301      1.0  0.58475  0.13588  0.07668  1.0000
  Fe  Fe155     1.0  0.57567  0.14139  0.00598  1.0000
  C   C871      1.0  0.85569  0.05399  0.11510  1.0000
  Fe  Fe156     1.0  0.53849  0.16674  0.02243  1.0000
  H   H891      1.0  0.67792  0.99878  0.15333  1.0000
  S   S302      1.0  0.59616  0.15484  0.02180  1.0000
  S   S303      1.0  0.55546  0.18231  0.04065  1.0000
  H   H892      1.0  0.81750  0.02645  0.00515  1.0000
  H   H893      1.0  0.60969  0.06176  0.02960  1.0000
  C   C872      1.0  0.90645  0.02796  0.12551  1.0000
  C   C873      1.0  0.85365  0.23206  0.04790  1.0000
  H   H894      1.0  0.81731  0.09495  0.00975  1.0000
  Fe  Fe157     1.0  0.56579  0.99987  0.17315  1.0000
  H   H895      1.0  0.99018  0.99662  0.22820  1.0000
  H   H896      1.0  0.79920  0.09182  0.03170  1.0000
  C   C874      1.0  0.50287  0.00372  0.12867  1.0000
  C   C875      1.0  0.66496  0.25481  0.00741  1.0000
  H   H897      1.0  0.51462  0.03786  0.13224  1.0000
  C   C876      1.0  0.57432  0.11649  0.09354  1.0000
  C   C877      1.0  0.58638  0.10439  0.10690  1.0000
  C   C878      1.0  0.57844  0.08943  0.12115  1.0000
  C   C879      1.0  0.55818  0.08675  0.12250  1.0000
  C   C880      1.0  0.54613  0.09879  0.10911  1.0000
  C   C881      1.0  0.55420  0.11341  0.09453  1.0000
  H   H898      1.0  0.60195  0.10666  0.10626  1.0000
  H   H899      1.0  0.58792  0.08027  0.13132  1.0000
  H   H900      1.0  0.53041  0.09693  0.11009  1.0000
  H   H901      1.0  0.54471  0.12271  0.08445  1.0000
  S   S304      1.0  0.88968  0.10989  0.99097  1.0000
  H   H902      1.0  0.89236  0.06172  0.03281  1.0000
  S   S305      1.0  0.94371  0.30298  0.02806  1.0000
  N   N72       1.0  0.55331  0.08805  0.18923  1.0000
  H   H903      1.0  0.97240  0.29794  0.99344  1.0000
  C   C882      1.0  0.98323  0.28290  0.06997  1.0000
  H   H904      1.0  0.87003  0.26778  0.98609  1.0000
  H   H905      1.0  0.57036  0.27443  0.01280  1.0000
  C   C883      1.0  0.61427  0.26452  0.01691  1.0000
  C   C884      1.0  0.60833  0.24835  0.03069  1.0000
  C   C885      1.0  0.60098  0.23227  0.02432  1.0000
  C   C886      1.0  0.59967  0.23217  0.00403  1.0000
  C   C887      1.0  0.68388  0.99703  0.98896  1.0000
  C   C888      1.0  0.61297  0.26445  0.99660  1.0000
  H   H906      1.0  0.60933  0.24827  0.04645  1.0000
  H   H907      1.0  0.59636  0.21995  0.03510  1.0000
  H   H908      1.0  0.84308  0.30629  0.00661  1.0000
  H   H909      1.0  0.84871  0.06235  0.10253  1.0000
  C   C889      1.0  0.86836  0.00569  0.21716  1.0000
  H   H910      1.0  0.66012  0.99339  0.01346  1.0000
  H   H911      1.0  0.68761  0.98690  0.17620  1.0000
  H   H912      1.0  0.66097  0.10200  0.99138  1.0000
  S   S306      1.0  0.91371  0.31348  0.98327  1.0000
  H   H913      1.0  0.52262  0.08940  0.20194  1.0000
  C   C890      1.0  0.80647  0.03971  0.00431  1.0000
  S   S307      1.0  0.50610  0.17345  0.01651  1.0000
  H   H914      1.0  0.86291  0.24169  0.05367  1.0000
  C   C891      1.0  0.65584  0.23217  0.98601  1.0000
  C   C892      1.0  0.89011  0.18351  0.99870  1.0000
  C   C893      1.0  0.88695  0.17808  0.01942  1.0000
  C   C894      1.0  0.89220  0.19030  0.03250  1.0000
  C   C895      1.0  0.90068  0.20806  0.02507  1.0000
  C   C896      1.0  0.90430  0.21322  0.00433  1.0000
  H   H915      1.0  0.61755  0.27679  0.98582  1.0000
  H   H916      1.0  0.88014  0.16467  0.02539  1.0000
  H   H917      1.0  0.88946  0.18607  0.04851  1.0000
  H   H918      1.0  0.91075  0.22683  0.99838  1.0000
  C   C897      1.0  0.87626  0.04705  0.11273  1.0000
  C   C898      1.0  0.86273  0.05735  0.04760  1.0000
  C   C899      1.0  0.85159  0.04535  0.06242  1.0000
  C   C900      1.0  0.86119  0.02880  0.07382  1.0000
  C   C901      1.0  0.88212  0.02428  0.07075  1.0000
  C   C902      1.0  0.89327  0.03615  0.05579  1.0000
  C   C903      1.0  0.88361  0.05255  0.04414  1.0000
  H   H919      1.0  0.83543  0.04894  0.06520  1.0000
  H   H920      1.0  0.85242  0.01978  0.08526  1.0000
  C   C904      1.0  0.80142  0.09278  0.01510  1.0000
  C   C905      1.0  0.85075  0.22027  0.01618  1.0000
  S   S308      1.0  0.56009  0.17099  0.99459  1.0000
  C   C906      1.0  0.65480  0.98647  0.11845  1.0000
  N   N73       1.0  0.62040  0.09029  0.02402  1.0000
  C   C907      1.0  0.63437  0.10160  0.01324  1.0000
  C   C908      1.0  0.62111  0.07056  0.02151  1.0000
  C   C909      1.0  0.65003  0.09296  0.00011  1.0000
  C   C910      1.0  0.63651  0.06146  0.00843  1.0000
  C   C911      1.0  0.65106  0.07276  0.99773  1.0000
  C   C912      1.0  0.60394  0.09959  0.03755  1.0000
  C   C913      1.0  0.89522  0.99632  0.19144  1.0000
  C   C914      1.0  0.88239  0.01039  0.22870  1.0000
  H   H921      1.0  0.84911  0.21069  0.98756  1.0000
  H   H922      1.0  0.59946  0.08888  0.05082  1.0000
  H   H923      1.0  0.64529  0.22741  0.99941  1.0000
  H   H924      1.0  0.83764  0.23578  0.05398  1.0000
  C   C915      1.0  0.67456  0.98696  0.00655  1.0000
  H   H925      1.0  0.91424  0.03160  0.13757  1.0000
  C   C916      1.0  0.89906  0.20100  0.99125  1.0000
  H   H926      1.0  0.65766  0.24630  0.02047  1.0000
  C   C917      1.0  0.90292  0.00844  0.22152  1.0000
  C   C918      1.0  0.90921  0.00135  0.20283  1.0000
  H   H927      1.0  0.58883  0.07430  0.22047  1.0000
  H   H928      1.0  0.63328  0.11747  0.01451  1.0000
  C   C919      1.0  0.98704  0.29340  0.98567  1.0000
  C   C920      1.0  0.68307  0.28268  0.99345  1.0000
  S   S309      1.0  0.85612  0.99406  0.18406  1.0000
  H   H929      1.0  0.88088  0.02278  0.15872  1.0000
  H   H930      1.0  0.82482  0.05785  0.01548  1.0000
  C   C921      1.0  0.52715  0.02549  0.13386  1.0000
  C   C922      1.0  0.78815  0.03919  0.99740  1.0000
  H   H931      1.0  0.90796  0.01144  0.12573  1.0000
  N   N74       1.0  0.97665  0.28933  0.08985  1.0000
  C   C923      1.0  0.84419  0.04961  0.13355  1.0000
  H   H932      1.0  0.67352  0.27555  0.02498  1.0000
  H   H933      1.0  0.59308  0.10789  0.16168  1.0000
  H   H934      1.0  0.91419  0.03409  0.11083  1.0000
  C   C924      1.0  0.50137  0.15998  0.99775  1.0000
  C   C925      1.0  0.81055  0.05752  0.01009  1.0000
  C   C926      1.0  0.87395  0.03173  0.14645  1.0000
  S   S310      1.0  0.57707  0.03263  0.23251  1.0000
  H   H935      1.0  0.78487  0.02559  0.99258  1.0000
  H   H936      1.0  0.55766  0.10430  0.15998  1.0000
  H   H937      1.0  0.87978  0.29540  0.00505  1.0000
  C   C927      1.0  0.56195  0.07960  0.20592  1.0000
  C   C928      1.0  0.60573  0.24831  0.99021  1.0000
  H   H938      1.0  0.66641  0.99626  0.11506  1.0000
  H   H939      1.0  0.54057  0.03062  0.12412  1.0000
  C   C929      1.0  0.96252  0.30346  0.12641  1.0000
  H   H940      1.0  0.85251  0.00759  0.22276  1.0000
  H   H941      1.0  0.66786  0.21953  0.98340  1.0000
  H   H942      1.0  0.90034  0.99087  0.17716  1.0000
  N   N75       1.0  0.52247  0.00677  0.12831  1.0000
  C   C930      1.0  0.86263  0.25163  0.01538  1.0000
  C   C931      1.0  0.58197  0.08146  0.20734  1.0000
  S   S311      1.0  0.59052  0.21243  0.99512  1.0000
  H   H943      1.0  0.55765  0.24979  0.99589  1.0000
  C   C932      1.0  0.85338  0.03850  0.14939  1.0000
  H   H944      1.0  0.60837  0.11256  0.04343  1.0000
  H   H945      1.0  0.58510  0.30551  0.00835  1.0000
  C   C933      1.0  0.53239  0.08559  0.18807  1.0000
  C   C934      1.0  0.58438  0.10019  0.17436  1.0000
  C   C935      1.0  0.77866  0.07390  0.00246  1.0000
  C   C936      1.0  0.87463  0.99868  0.19845  1.0000
  C   C937      1.0  0.95956  0.28319  0.10083  1.0000
  C   C938      1.0  0.56429  0.09810  0.17348  1.0000
  N   N76       1.0  0.88510  0.03600  0.12830  1.0000
  H   H946      1.0  0.53143  0.06984  0.18605  1.0000
  C   C939      1.0  0.85357  0.31467  0.99643  1.0000
  C   C940      1.0  0.98672  0.30254  0.09668  1.0000
  H   H947      1.0  0.88500  0.05023  0.09823  1.0000
  H   H948      1.0  0.53030  0.02316  0.14965  1.0000
  N   N77       1.0  0.85595  0.23465  0.02595  1.0000
  H   H949      1.0  0.63717  0.04579  0.00642  1.0000
  S   S312      1.0  0.91486  0.30573  0.08348  1.0000
  C   C941      1.0  0.86450  0.25441  0.99444  1.0000
  H   H950      1.0  0.82816  0.05457  0.13552  1.0000
  H   H951      1.0  0.79204  0.10627  0.00864  1.0000
  H   H952      1.0  0.59069  0.10491  0.02946  1.0000
  H   H953      1.0  0.95652  0.30972  0.14021  1.0000
  S   S313      1.0  0.59338  0.99749  0.18860  1.0000
  C   C942      1.0  0.67401  0.27132  0.01010  1.0000
  C   C943      1.0  0.59322  0.09186  0.19145  1.0000
  H   H954      1.0  0.84459  0.03467  0.16376  1.0000
  S   S314      1.0  0.84761  0.99622  0.12706  1.0000
  H   H955      1.0  0.66290  0.06592  0.98736  1.0000
  C   C944      1.0  0.87428  0.30860  0.99570  1.0000
  H   H956      1.0  0.60889  0.09302  0.19221  1.0000
  C   C945      1.0  0.51491  0.14359  0.99210  1.0000
  C   C946      1.0  0.63800  0.99105  0.13243  1.0000
  C   C947      1.0  0.55701  0.26537  0.98931  1.0000
  H   H957      1.0  0.52641  0.09534  0.17514  1.0000
  H   H958      1.0  0.97451  0.29247  0.05875  1.0000
  N   N78       1.0  0.56441  0.29879  0.99006  1.0000
  C   C948      1.0  0.85249  0.22253  0.99525  1.0000
  H   H959      1.0  0.84579  0.20665  0.02452  1.0000
  C   C949      1.0  0.95230  0.29006  0.11930  1.0000
  H   H960      1.0  0.55350  0.07100  0.21813  1.0000
  H   H961      1.0  0.93825  0.28585  0.12749  1.0000
  C   C950      1.0  0.57273  0.31311  0.99978  1.0000
  H   H962      1.0  0.75994  0.05617  0.99088  1.0000
  H   H963      1.0  0.92503  0.99977  0.19711  1.0000
  H   H964      1.0  0.69016  0.29552  0.99531  1.0000
  S   S315      1.0  0.58381  0.11597  0.98754  1.0000
  N   N79       1.0  0.66471  0.24995  0.98861  1.0000
  C   C951      1.0  0.85944  0.23971  0.98435  1.0000
  Fe  Fe158     1.0  0.87005  0.13944  0.98548  1.0000
  H   H965      1.0  0.49068  0.01511  0.13294  1.0000
  Fe  Fe159     1.0  0.61171  0.28490  0.47328  1.0000
  S   S316      1.0  0.63030  0.27960  0.44413  1.0000
  C   C952      1.0  0.88135  0.04362  0.48281  1.0000
  Fe  Fe160     1.0  0.57348  0.27919  0.45842  1.0000
  S   S317      1.0  0.58891  0.27391  0.42750  1.0000
  C   C953      1.0  0.61121  0.01655  0.45587  1.0000
  Fe  Fe161     1.0  0.61233  0.25426  0.44435  1.0000
  S   S318      1.0  0.62922  0.22506  0.43468  1.0000
  Fe  Fe162     1.0  0.60555  0.29981  0.42990  1.0000
  C   C954      1.0  0.65073  0.31223  0.47437  1.0000
  H   H966      1.0  0.67887  0.30153  0.39857  1.0000
  C   C955      1.0  0.91435  0.27196  0.39501  1.0000
  S   S319      1.0  0.88427  0.26037  0.47828  1.0000
  H   H967      1.0  0.62396  0.29953  0.36451  1.0000
  C   C956      1.0  0.65282  0.29496  0.38702  1.0000
  S   S320      1.0  0.66453  0.04600  0.45326  1.0000
  S   S321      1.0  0.65508  0.99951  0.34267  1.0000
  H   H968      1.0  0.60185  0.21292  0.47016  1.0000
  C   C957      1.0  0.85438  0.00109  0.33763  1.0000
  H   H969      1.0  0.84721  0.27647  0.42702  1.0000
  H   H970      1.0  0.87753  0.05876  0.45328  1.0000
  C   C958      1.0  0.86646  0.13271  0.47854  1.0000
  C   C959      1.0  0.68758  0.04751  0.39851  1.0000
  S   S322      1.0  0.61985  0.02906  0.38270  1.0000
  C   C960      1.0  0.59634  0.03290  0.45766  1.0000
  Fe  Fe163     1.0  0.93983  0.13061  0.44989  1.0000
  S   S323      1.0  0.95483  0.14528  0.42122  1.0000
  C   C961      1.0  0.62230  0.99504  0.25698  1.0000
  Fe  Fe164     1.0  0.89959  0.13551  0.43378  1.0000
  S   S324      1.0  0.91136  0.15104  0.40385  1.0000
  S   S325      1.0  0.86917  0.12479  0.43984  1.0000
  Fe  Fe165     1.0  0.93801  0.12712  0.40545  1.0000
  S   S326      1.0  0.95364  0.10460  0.38444  1.0000
  Fe  Fe166     1.0  0.92685  0.16775  0.42254  1.0000
  S   S327      1.0  0.93104  0.20079  0.41808  1.0000
  S   S328      1.0  0.92521  0.11085  0.43438  1.0000
  S   S329      1.0  0.91292  0.15385  0.45227  1.0000
  Fe  Fe167     1.0  0.91693  0.02174  0.26753  1.0000
  C   C962      1.0  0.62472  0.01165  0.47006  1.0000
  Fe  Fe168     1.0  0.92504  0.04826  0.29878  1.0000
  S   S330      1.0  0.91745  0.02507  0.32446  1.0000
  S   S331      1.0  0.92901  0.07951  0.30510  1.0000
  Fe  Fe169     1.0  0.93491  0.00269  0.30520  1.0000
  C   C963      1.0  0.71105  0.02402  0.41744  1.0000
  Fe  Fe170     1.0  0.89161  0.02227  0.30845  1.0000
  S   S332      1.0  0.86186  0.02451  0.32789  1.0000
  S   S333      1.0  0.94489  0.02596  0.28035  1.0000
  S   S334      1.0  0.89818  0.04646  0.28331  1.0000
  H   H971      1.0  0.64981  0.15318  0.45374  1.0000
  C   C964      1.0  0.97805  0.99747  0.24104  1.0000
  Fe  Fe171     1.0  0.62969  0.00067  0.36782  1.0000
  C   C965      1.0  0.98165  0.08718  0.43223  1.0000
  H   H972      1.0  0.87464  0.03053  0.48088  1.0000
  S   S335      1.0  0.67135  0.09885  0.47194  1.0000
  C   C966      1.0  0.89842  0.24351  0.46240  1.0000
  C   C967      1.0  0.91587  0.24822  0.44998  1.0000
  C   C968      1.0  0.92625  0.23463  0.43704  1.0000
  C   C969      1.0  0.91918  0.21632  0.43630  1.0000
  C   C970      1.0  0.90207  0.21140  0.44915  1.0000
  C   C971      1.0  0.88832  0.28894  0.41703  1.0000
  H   H973      1.0  0.92123  0.26243  0.45010  1.0000
  H   H974      1.0  0.93951  0.23853  0.42719  1.0000
  H   H975      1.0  0.89637  0.19745  0.44865  1.0000
  C   C972      1.0  0.89179  0.22492  0.46217  1.0000
  H   H976      1.0  0.97141  0.08727  0.44658  1.0000
  N   N80       1.0  0.69872  0.02905  0.40098  1.0000
  N   N81       1.0  0.87909  0.27194  0.42165  1.0000
  C   C973      1.0  0.94448  0.09769  0.36348  1.0000
  C   C974      1.0  0.93681  0.11210  0.34876  1.0000
  C   C975      1.0  0.93213  0.10625  0.33104  1.0000
  C   C976      1.0  0.93456  0.08593  0.32801  1.0000
  C   C977      1.0  0.94169  0.07147  0.34299  1.0000
  C   C978      1.0  0.94694  0.07737  0.36045  1.0000
  H   H977      1.0  0.93530  0.12782  0.35061  1.0000
  H   H978      1.0  0.92684  0.11758  0.31947  1.0000
  H   H979      1.0  0.94386  0.05581  0.34080  1.0000
  H   H980      1.0  0.95324  0.06611  0.37151  1.0000
  H   H981      1.0  0.96416  0.00515  0.23496  1.0000
  C   C979      1.0  0.65052  0.04121  0.43490  1.0000
  C   C980      1.0  0.63559  0.05541  0.42725  1.0000
  C   C981      1.0  0.62599  0.05136  0.41147  1.0000
  C   C982      1.0  0.63125  0.03315  0.40329  1.0000
  C   C983      1.0  0.64583  0.01880  0.41133  1.0000
  C   C984      1.0  0.65539  0.02282  0.42707  1.0000
  H   H982      1.0  0.63177  0.06965  0.43312  1.0000
  H   H983      1.0  0.61472  0.06253  0.40531  1.0000
  H   H984      1.0  0.65003  0.00476  0.40516  1.0000
  H   H985      1.0  0.66689  0.01173  0.43293  1.0000
  C   C985      1.0  0.59318  0.01898  0.24955  1.0000
  C   C986      1.0  0.58973  0.02219  0.26984  1.0000
  C   C987      1.0  0.60248  0.01184  0.28366  1.0000
  C   C988      1.0  0.61895  0.99831  0.27723  1.0000
  H   H986      1.0  0.98188  0.99800  0.29300  1.0000
  C   C989      1.0  0.60949  0.00524  0.24323  1.0000
  H   H987      1.0  0.80658  0.02116  0.47006  1.0000
  S   S336      1.0  0.59579  0.25793  0.47486  1.0000
  H   H988      1.0  0.66571  0.06661  0.38188  1.0000
  H   H989      1.0  0.59969  0.01452  0.29918  1.0000
  C   C990      1.0  0.62735  0.20190  0.45018  1.0000
  C   C991      1.0  0.61242  0.20002  0.46660  1.0000
  H   H990      1.0  0.70776  0.00092  0.38960  1.0000
  C   C992      1.0  0.62428  0.16428  0.47367  1.0000
  C   C993      1.0  0.63941  0.16617  0.45742  1.0000
  C   C994      1.0  0.64083  0.18489  0.44565  1.0000
  H   H991      1.0  0.66406  0.24134  0.41368  1.0000
  H   H992      1.0  0.91357  0.30263  0.40053  1.0000
  H   H993      1.0  0.97203  0.08727  0.42026  1.0000
  H   H994      1.0  0.65239  0.18616  0.43294  1.0000
  C   C995      1.0  0.86032  0.27200  0.43545  1.0000
  H   H995      1.0  0.64464  0.30718  0.46250  1.0000
  H   H996      1.0  0.85914  0.25696  0.44414  1.0000
  H   H997      1.0  0.61268  0.00816  0.44316  1.0000
  S   S337      1.0  0.58808  0.30653  0.45936  1.0000
  H   H998      1.0  0.57717  0.03280  0.27490  1.0000
  C   C996      1.0  0.64444  0.26182  0.39565  1.0000
  H   H999      1.0  0.85978  0.28246  0.44675  1.0000
  S   S338      1.0  0.54066  0.27700  0.46903  1.0000
  H   H1000     1.0  0.64935  0.31025  0.38010  1.0000
  H   H1001     1.0  0.96279  0.15797  0.46176  1.0000
  C   C997      1.0  0.69883  0.01551  0.38785  1.0000
  C   C998      1.0  0.66123  0.25639  0.40594  1.0000
  H   H1002     1.0  0.68736  0.05820  0.40902  1.0000
  C   C999      1.0  0.88681  0.25512  0.41281  1.0000
  H   H1003     1.0  0.84548  0.09589  0.46326  1.0000
  H   H1004     1.0  0.61896  0.27393  0.36909  1.0000
  S   S339      1.0  0.60965  0.98717  0.35106  1.0000
  H   H1005     1.0  0.68696  0.00912  0.36205  1.0000
  C   C1000     1.0  0.67376  0.27069  0.40695  1.0000
  C   C1001     1.0  0.68701  0.02004  0.37220  1.0000
  C   C1002     1.0  0.86089  0.12092  0.46555  1.0000
  H   H1006     1.0  0.90132  0.08227  0.38822  1.0000
  C   C1003     1.0  0.81833  0.01041  0.47597  1.0000
  S   S340      1.0  0.90811  0.99739  0.29176  1.0000
  C   C1004     1.0  0.67536  0.05240  0.38316  1.0000
  C   C1005     1.0  0.84992  0.10497  0.47330  1.0000
  H   H1007     1.0  0.87443  0.14535  0.47264  1.0000
  H   H1008     1.0  0.91106  0.24118  0.39307  1.0000
  H   H1009     1.0  0.70362  0.03113  0.43085  1.0000
  C   C1006     1.0  0.66954  0.29014  0.39747  1.0000
  C   C1007     1.0  0.88302  0.05938  0.46736  1.0000
  C   C1008     1.0  0.97155  0.15265  0.47399  1.0000
  Fe  Fe172     1.0  0.65734  0.07036  0.47398  1.0000
  C   C1009     1.0  0.67497  0.03847  0.37004  1.0000
  C   C1010     1.0  0.82352  0.99192  0.46832  1.0000
  S   S341      1.0  0.87185  0.31834  0.46231  1.0000
  H   H1010     1.0  0.92834  0.27182  0.38496  1.0000
  S   S342      1.0  0.91957  0.30294  0.46406  1.0000
  C   C1011     1.0  0.90457  0.25485  0.39940  1.0000
  S   S343      1.0  0.92119  0.01525  0.23489  1.0000
  H   H1011     1.0  0.72599  0.02927  0.41271  1.0000
  H   H1012     1.0  0.71319  0.00758  0.42215  1.0000
  N   N82       1.0  0.64054  0.28086  0.38618  1.0000
  N   N83       1.0  0.88039  0.08128  0.33847  1.0000
  C   C1012     1.0  0.88490  0.06372  0.35045  1.0000
  C   C1013     1.0  0.88325  0.09914  0.34400  1.0000
  C   C1014     1.0  0.89239  0.06378  0.36856  1.0000
  C   C1015     1.0  0.89040  0.09978  0.36217  1.0000
  C   C1016     1.0  0.89513  0.08196  0.37443  1.0000
  C   C1017     1.0  0.87327  0.08104  0.31917  1.0000
  H   H1013     1.0  0.88285  0.04954  0.34598  1.0000
  H   H1014     1.0  0.88038  0.11296  0.33416  1.0000
  H   H1015     1.0  0.89628  0.04980  0.37780  1.0000
  H   H1016     1.0  0.89293  0.11394  0.36641  1.0000
  C   C1018     1.0  0.89155  0.07614  0.47029  1.0000
  H   H1017     1.0  0.88569  0.08350  0.30684  1.0000
  H   H1018     1.0  0.86800  0.06650  0.31815  1.0000
  H   H1019     1.0  0.86044  0.09293  0.31696  1.0000
  H   H1020     1.0  0.60941  0.29085  0.38752  1.0000
  H   H1021     1.0  0.68644  0.26680  0.41545  1.0000
  H   H1022     1.0  0.63673  0.99940  0.46813  1.0000
  H   H1023     1.0  0.89265  0.08836  0.45823  1.0000
  C   C1019     1.0  0.84196  0.99905  0.35595  1.0000
  H   H1024     1.0  0.87963  0.24156  0.41657  1.0000
  C   C1020     1.0  0.90616  0.28917  0.40380  1.0000
  H   H1025     1.0  0.83673  0.01199  0.36379  1.0000
  H   H1026     1.0  0.66503  0.04176  0.35849  1.0000
  H   H1027     1.0  0.58619  0.03718  0.44638  1.0000
  H   H1028     1.0  0.88206  0.30245  0.42367  1.0000
  C   C1021     1.0  0.62236  0.28652  0.37630  1.0000
  S   S344      1.0  0.95610  0.11701  0.47617  1.0000
  H   H1029     1.0  0.63432  0.25078  0.39568  1.0000
  Fe  Fe173     1.0  0.89040  0.29243  0.47787  1.0000
  C   C1022     1.0  0.59487  0.04387  0.47380  1.0000
  H   H1030     1.0  0.90419  0.10762  0.47920  1.0000
  H   H1031     1.0  0.98207  0.00674  0.25172  1.0000
  H   H1032     1.0  0.58344  0.05668  0.47528  1.0000
  H   H1033     1.0  0.87726  0.01586  0.24299  1.0000
  H   H1034     1.0  0.87838  0.22108  0.47183  1.0000
  C   C1023     1.0  0.98380  0.16521  0.47982  1.0000
  H   H1035     1.0  0.98448  0.18013  0.47196  1.0000
  C   C1024     1.0  0.61082  0.18129  0.47818  1.0000
  H   H1036     1.0  0.94539  0.20583  0.47151  1.0000
  S   S345      1.0  0.80986  0.98638  0.44994  1.0000
  H   H1037     1.0  0.56079  0.31399  0.69247  1.0000
  S   S346      1.0  0.52792  0.06545  0.64615  1.0000
  S   S347      1.0  0.51245  0.08354  0.70209  1.0000
  Fe  Fe174     1.0  0.53399  0.09356  0.62571  1.0000
  S   S348      1.0  0.56455  0.10129  0.61065  1.0000
  C   C1025     1.0  0.98228  0.12648  0.49965  1.0000
  Fe  Fe175     1.0  0.63855  0.07364  0.51738  1.0000
  S   S349      1.0  0.65218  0.10147  0.51911  1.0000
  S   S350      1.0  0.61535  0.05804  0.53904  1.0000
  Fe  Fe176     1.0  0.68038  0.08654  0.50243  1.0000
  S   S351      1.0  0.71344  0.08843  0.50422  1.0000
  C   C1026     1.0  0.79606  0.00676  0.53911  1.0000
  Fe  Fe177     1.0  0.80656  0.04997  0.56159  1.0000
  S   S352      1.0  0.82126  0.05714  0.53020  1.0000
  S   S353      1.0  0.77274  0.04914  0.56753  1.0000
  Fe  Fe178     1.0  0.84716  0.04306  0.57963  1.0000
  S   S354      1.0  0.86429  0.04925  0.54909  1.0000
  S   S355      1.0  0.86603  0.03264  0.60553  1.0000
  Fe  Fe179     1.0  0.83979  0.07465  0.54435  1.0000
  S   S356      1.0  0.84701  0.10576  0.53308  1.0000
  Fe  Fe180     1.0  0.84400  0.03089  0.53805  1.0000
  S   S357      1.0  0.82347  0.06962  0.57547  1.0000
  S   S358      1.0  0.82849  0.02257  0.56895  1.0000
  Fe  Fe181     1.0  0.96283  0.07996  0.70409  1.0000
  H   H1038     1.0  0.59901  0.17997  0.49064  1.0000
  Fe  Fe182     1.0  0.93356  0.06963  0.67650  1.0000
  S   S359      1.0  0.95489  0.04355  0.66674  1.0000
  S   S360      1.0  0.90446  0.07942  0.66245  1.0000
  Fe  Fe183     1.0  0.96001  0.03686  0.69892  1.0000
  H   H1039     1.0  0.75238  0.01498  0.49173  1.0000
  Fe  Fe184     1.0  0.97879  0.06362  0.66441  1.0000
  N   N84       1.0  0.94791  0.22419  0.49355  1.0000
  S   S361      1.0  0.93678  0.06170  0.70946  1.0000
  S   S362      1.0  0.95723  0.09043  0.67207  1.0000
  C   C1027     1.0  0.96242  0.13115  0.61163  1.0000
  C   C1028     1.0  0.93501  0.11550  0.63133  1.0000
  H   H1040     1.0  0.59398  0.07309  0.66160  1.0000
  C   C1029     1.0  0.87849  0.04724  0.61845  1.0000
  C   C1030     1.0  0.89551  0.03808  0.62746  1.0000
  C   C1031     1.0  0.90441  0.04819  0.63996  1.0000
  C   C1032     1.0  0.89604  0.06745  0.64408  1.0000
  C   C1033     1.0  0.87939  0.07686  0.63462  1.0000
  C   C1034     1.0  0.87076  0.06691  0.62175  1.0000
  H   H1041     1.0  0.90161  0.02287  0.62505  1.0000
  H   H1042     1.0  0.91715  0.04068  0.64713  1.0000
  H   H1043     1.0  0.87274  0.09176  0.63768  1.0000
  H   H1044     1.0  0.85760  0.07413  0.61507  1.0000
  C   C1035     1.0  0.55728  0.10456  0.68486  1.0000
  H   H1045     1.0  0.60434  0.06768  0.69590  1.0000
  C   C1036     1.0  0.85160  0.11166  0.50707  1.0000
  H   H1046     1.0  0.59828  0.14255  0.53016  1.0000
  C   C1037     1.0  0.55245  0.12301  0.56383  1.0000
  H   H1047     1.0  0.86600  0.13739  0.50928  1.0000
  H   H1048     1.0  0.60721  0.04695  0.50040  1.0000
  H   H1049     1.0  0.93480  0.08457  0.62811  1.0000
  C   C1038     1.0  0.72947  0.07503  0.52129  1.0000
  C   C1039     1.0  0.75036  0.07450  0.51599  1.0000
  C   C1040     1.0  0.76376  0.06611  0.52979  1.0000
  C   C1041     1.0  0.75643  0.05825  0.54917  1.0000
  C   C1042     1.0  0.73557  0.05825  0.55431  1.0000
  C   C1043     1.0  0.72211  0.06657  0.54043  1.0000
  H   H1050     1.0  0.75619  0.08103  0.50122  1.0000
  H   H1051     1.0  0.77970  0.06630  0.52555  1.0000
  H   H1052     1.0  0.72972  0.05215  0.56924  1.0000
  H   H1053     1.0  0.70606  0.06699  0.54475  1.0000
  C   C1044     1.0  0.57869  0.08865  0.59118  1.0000
  C   C1045     1.0  0.57244  0.07204  0.58500  1.0000
  C   C1046     1.0  0.58391  0.06268  0.56912  1.0000
  C   C1047     1.0  0.60152  0.07002  0.55912  1.0000
  C   C1048     1.0  0.60765  0.08676  0.56518  1.0000
  C   C1049     1.0  0.59635  0.09593  0.58124  1.0000
  H   H1054     1.0  0.55884  0.06633  0.59253  1.0000
  H   H1055     1.0  0.57909  0.04970  0.56455  1.0000
  H   H1056     1.0  0.62124  0.09248  0.55769  1.0000
  H   H1057     1.0  0.60126  0.10881  0.58591  1.0000
  C   C1050     1.0  0.56092  0.27081  0.54441  1.0000
  H   H1058     1.0  0.50953  0.25598  0.68224  1.0000
  C   C1051     1.0  0.54613  0.05653  0.71048  1.0000
  C   C1052     1.0  0.52964  0.06962  0.71770  1.0000
  H   H1059     1.0  0.49746  0.18282  0.57262  1.0000
  H   H1060     1.0  0.64508  0.30989  0.52509  1.0000
  H   H1061     1.0  0.72504  0.11878  0.52676  1.0000
  H   H1062     1.0  0.54819  0.05391  0.69494  1.0000
  N   N85       1.0  0.56296  0.10142  0.70366  1.0000
  H   H1063     1.0  0.55735  0.09912  0.54552  1.0000
  C   C1053     1.0  0.53039  0.28883  0.49032  1.0000
  C   C1054     1.0  0.51456  0.30457  0.52630  1.0000
  H   H1064     1.0  0.58145  0.16074  0.55843  1.0000
  H   H1065     1.0  0.51511  0.25437  0.55363  1.0000
  C   C1055     1.0  0.58539  0.13701  0.53964  1.0000
  C   C1056     1.0  0.56022  0.04713  0.72335  1.0000
  C   C1057     1.0  0.55940  0.14022  0.56775  1.0000
  H   H1066     1.0  0.84931  0.04258  0.68934  1.0000
  C   C1058     1.0  0.53372  0.30815  0.51685  1.0000
  H   H1067     1.0  0.58241  0.26583  0.51838  1.0000
  C   C1059     1.0  0.53681  0.28933  0.66482  1.0000
  H   H1068     1.0  0.76575  0.02562  0.51999  1.0000
  S   S363      1.0  0.66757  0.05770  0.50368  1.0000
  Fe  Fe185     1.0  0.51210  0.08577  0.66836  1.0000
  S   S364      1.0  0.62746  0.08421  0.48779  1.0000
  H   H1069     1.0  0.90121  0.06293  0.51776  1.0000
  H   H1070     1.0  0.52602  0.24149  0.50256  1.0000
  C   C1060     1.0  0.82803  0.01499  0.49141  1.0000
  C   C1061     1.0  0.96599  0.31556  0.53796  1.0000
  H   H1071     1.0  0.65312  0.02032  0.49234  1.0000
  H   H1072     1.0  0.98392  0.07682  0.59666  1.0000
  S   S365      1.0  0.88802  0.30713  0.50602  1.0000
  H   H1073     1.0  0.85848  0.04561  0.66286  1.0000
  Fe  Fe186     1.0  0.64216  0.11171  0.48875  1.0000
  N   N86       1.0  0.95987  0.09650  0.61015  1.0000
  C   C1062     1.0  0.96946  0.11309  0.60384  1.0000
  C   C1063     1.0  0.94262  0.09763  0.62338  1.0000
  H   H1074     1.0  0.54382  0.11462  0.68183  1.0000
  C   C1064     1.0  0.94108  0.25813  0.50142  1.0000
  C   C1065     1.0  0.55533  0.25240  0.51831  1.0000
  C   C1066     1.0  0.96758  0.07755  0.60217  1.0000
  C   C1067     1.0  0.77221  0.01155  0.51450  1.0000
  H   H1075     1.0  0.88717  0.03247  0.51290  1.0000
  H   H1076     1.0  0.56046  0.24695  0.50396  1.0000
  H   H1077     1.0  0.97859  0.30772  0.52931  1.0000
  S   S366      1.0  0.98998  0.31163  0.62975  1.0000
  C   C1068     1.0  0.94106  0.20652  0.48783  1.0000
  H   H1078     1.0  0.50837  0.28397  0.70958  1.0000
  H   H1079     1.0  0.50805  0.27078  0.65818  1.0000
  N   N87       1.0  0.75658  0.11966  0.52693  1.0000
  C   C1069     1.0  0.75619  0.10928  0.54574  1.0000
  C   C1070     1.0  0.77433  0.12480  0.51651  1.0000
  H   H1080     1.0  0.55676  0.30234  0.49227  1.0000
  N   N88       1.0  0.57881  0.11981  0.53630  1.0000
  C   C1071     1.0  0.59126  0.07820  0.69258  1.0000
  H   H1081     1.0  0.91864  0.24092  0.49623  1.0000
  H   H1082     1.0  0.74224  0.10473  0.55385  1.0000
  H   H1083     1.0  0.49381  0.15138  0.59574  1.0000
  C   C1072     1.0  0.50345  0.31134  0.62224  1.0000
  C   C1073     1.0  0.52036  0.28851  0.69820  1.0000
  S   S367      1.0  0.85597  0.00637  0.51837  1.0000
  S   S368      1.0  0.52033  0.11369  0.64899  1.0000
  H   H1084     1.0  0.54001  0.11702  0.57363  1.0000
  H   H1085     1.0  0.92272  0.09141  0.49229  1.0000
  H   H1086     1.0  0.56259  0.30568  0.65774  1.0000
  C   C1074     1.0  0.55122  0.11245  0.71942  1.0000
  H   H1087     1.0  0.80644  0.12361  0.51670  1.0000
  H   H1088     1.0  0.97858  0.21090  0.49207  1.0000
  C   C1075     1.0  0.76446  0.00554  0.49863  1.0000
  C   C1076     1.0  0.56241  0.11290  0.54796  1.0000
  H   H1089     1.0  0.89885  0.10086  0.50560  1.0000
  H   H1090     1.0  0.87452  0.01159  0.66306  1.0000
  H   H1091     1.0  0.58543  0.09353  0.52121  1.0000
  H   H1092     1.0  0.95927  0.07580  0.58974  1.0000
  C   C1077     1.0  0.58543  0.08115  0.67341  1.0000
  S   S369      1.0  0.62287  0.29269  0.50040  1.0000
  S   S370      1.0  0.50571  0.09664  0.61112  1.0000
  C   C1078     1.0  0.64313  0.30685  0.49435  1.0000
  C   C1079     1.0  0.73795  0.12568  0.51782  1.0000
  H   H1093     1.0  0.53335  0.30367  0.71826  1.0000
  H   H1094     1.0  0.53768  0.28578  0.64964  1.0000
  H   H1095     1.0  0.96598  0.06469  0.61413  1.0000
  C   C1080     1.0  0.54172  0.30010  0.49903  1.0000
  H   H1096     1.0  0.58605  0.11733  0.50528  1.0000
  C   C1081     1.0  0.63800  0.01737  0.50004  1.0000
  C   C1082     1.0  0.90075  0.00061  0.67765  1.0000
  H   H1097     1.0  0.55221  0.14771  0.58050  1.0000
  H   H1098     1.0  0.98301  0.31796  0.56193  1.0000
  H   H1099     1.0  0.60590  0.10757  0.52032  1.0000
  C   C1083     1.0  0.89630  0.06195  0.50347  1.0000
  H   H1100     1.0  0.72437  0.30361  0.58744  1.0000
  C   C1084     1.0  0.51091  0.28592  0.49938  1.0000
  C   C1085     1.0  0.58941  0.10900  0.51993  1.0000
  S   S371      1.0  0.97291  0.10258  0.72135  1.0000
  C   C1086     1.0  0.52377  0.23845  0.51921  1.0000
  C   C1087     1.0  0.79203  0.10905  0.54408  1.0000
  C   C1088     1.0  0.97963  0.98767  0.70324  1.0000
  H   H1101     1.0  0.50199  0.27742  0.49259  1.0000
  C   C1089     1.0  0.53438  0.29959  0.70322  1.0000
  C   C1090     1.0  0.94515  0.13228  0.62558  1.0000
  H   H1102     1.0  0.77366  0.09493  0.56921  1.0000
  C   C1091     1.0  0.77392  0.10370  0.55454  1.0000
  C   C1092     1.0  0.90632  0.09515  0.49147  1.0000
  H   H1103     1.0  0.50757  0.24311  0.52408  1.0000
  C   C1093     1.0  0.89228  0.03577  0.69526  1.0000
  C   C1094     1.0  0.84319  0.00117  0.49917  1.0000
  C   C1095     1.0  0.57588  0.14740  0.55550  1.0000
  C   C1096     1.0  0.56838  0.09446  0.66947  1.0000
  H   H1104     1.0  0.53623  0.27394  0.56811  1.0000
  Fe  Fe187     1.0  0.91669  0.31903  0.49145  1.0000
  C   C1097     1.0  0.88828  0.04477  0.50088  1.0000
  H   H1105     1.0  0.92445  0.20692  0.49104  1.0000
  H   H1106     1.0  0.83771  0.08739  0.50001  1.0000
  H   H1107     1.0  0.82385  0.02924  0.49717  1.0000
  H   H1108     1.0  0.52733  0.22215  0.52385  1.0000
  C   C1098     1.0  0.79231  0.11958  0.52493  1.0000
  C   C1099     1.0  0.86159  0.12824  0.49926  1.0000
  H   H1109     1.0  0.79523  0.02335  0.53723  1.0000
  C   C1100     1.0  0.91317  0.00439  0.69099  1.0000
  H   H1110     1.0  0.63431  0.02637  0.51285  1.0000
  N   N89       1.0  0.53657  0.24961  0.52795  1.0000
  H   H1111     1.0  0.53485  0.11369  0.71823  1.0000
  N   N90       1.0  0.88016  0.03196  0.68217  1.0000
  C   C1101     1.0  0.93452  0.24086  0.49694  1.0000
  H   H1112     1.0  0.56372  0.09680  0.65461  1.0000
  C   C1102     1.0  0.56778  0.26308  0.52636  1.0000
  N   N91       1.0  0.52171  0.28351  0.67921  1.0000
  C   C1103     1.0  0.57986  0.08863  0.70760  1.0000
  H   H1113     1.0  0.97060  0.14402  0.60714  1.0000
  Fe  Fe188     1.0  0.49829  0.06981  0.63335  1.0000
  C   C1104     1.0  0.54193  0.26756  0.55433  1.0000
  H   H1114     1.0  0.80586  0.10501  0.55076  1.0000
  S   S372      1.0  0.96050  0.00509  0.71359  1.0000
  H   H1115     1.0  0.78733  0.00198  0.55370  1.0000
  H   H1116     1.0  0.57019  0.27963  0.55048  1.0000
  H   H1117     1.0  0.86505  0.06181  0.67865  1.0000
  C   C1105     1.0  0.52996  0.25666  0.54594  1.0000
  H   H1118     1.0  0.93970  0.14609  0.63201  1.0000
  H   H1119     1.0  0.81219  0.00070  0.53941  1.0000
  H   H1120     1.0  0.94791  0.19256  0.49622  1.0000
  C   C1106     1.0  0.50310  0.29357  0.51744  1.0000
  H   H1121     1.0  0.96664  0.27168  0.50587  1.0000
  C   C1107     1.0  0.96793  0.22415  0.49467  1.0000
  H   H1122     1.0  0.92156  0.11613  0.64218  1.0000
  C   C1108     1.0  0.60844  0.03836  0.48789  1.0000
  H   H1123     1.0  0.63856  0.00132  0.50626  1.0000
  C   C1109     1.0  0.54981  0.30551  0.68868  1.0000
  C   C1110     1.0  0.86232  0.04614  0.67813  1.0000
  H   H1124     1.0  0.50146  0.30380  0.60991  1.0000
  H   H1125     1.0  0.57305  0.03718  0.71763  1.0000
  C   C1111     1.0  0.55098  0.30054  0.66930  1.0000
  H   H1126     1.0  0.73966  0.12061  0.50274  1.0000
  C   C1112     1.0  0.88407  0.01455  0.67355  1.0000
  H   H1127     1.0  0.91845  0.02488  0.71042  1.0000
  H   H1128     1.0  0.98178  0.11144  0.50731  1.0000
  S   S373      1.0  0.49243  0.27252  0.59223  1.0000
  H   H1129     1.0  0.58427  0.08593  0.72257  1.0000
  H   H1130     1.0  0.77466  0.13295  0.50157  1.0000
  S   S374      1.0  0.62095  0.14099  0.48842  1.0000
  H   H1131     1.0  0.98293  0.11236  0.59306  1.0000
  C   C1113     1.0  0.84561  0.10009  0.49409  1.0000
  H   H1132     1.0  0.92615  0.99375  0.69445  1.0000
  S   S375      1.0  0.94557  0.31449  0.50612  1.0000
  H   H1133     1.0  0.88930  0.04964  0.70198  1.0000
  H   H1134     1.0  0.73409  0.14222  0.51642  1.0000
  C   C1114     1.0  0.50706  0.27150  0.67455  1.0000
  H   H1135     1.0  0.93044  0.27139  0.50396  1.0000
  C   C1115     1.0  0.77269  0.98745  0.49150  1.0000
  C   C1116     1.0  0.96145  0.25827  0.50250  1.0000
  C   C1117     1.0  0.90888  0.02199  0.69994  1.0000
  C   C1118     1.0  0.97499  0.24114  0.49921  1.0000
  N   N92       1.0  0.78795  0.00003  0.52274  1.0000
  Fe  Fe189     1.0  0.49168  0.11490  0.63599  1.0000
  C   C1119     1.0  0.65091  0.31397  0.50959  1.0000
  S   S376      1.0  0.50571  0.31312  0.54963  1.0000
  N   N93       1.0  0.89772  0.07742  0.48831  1.0000
  S   S377      1.0  0.98609  0.05433  0.69570  1.0000
  H   H1136     1.0  0.54266  0.31665  0.52362  1.0000
  H   H1137     1.0  0.55570  0.12771  0.71807  1.0000
  N   N94       1.0  0.62323  0.02253  0.48579  1.0000
  H   H1138     1.0  0.70517  0.31424  0.57160  1.0000
  H   H1139     1.0  0.49147  0.27831  0.67935  1.0000
  C   C1120     1.0  0.97075  0.13324  0.48389  1.0000
  H   H1140     1.0  0.90403  0.98700  0.67052  1.0000
  C   C1121     1.0  0.71867  0.31716  0.57776  1.0000
  H   H1141     1.0  0.79593  0.31901  0.53819  1.0000
  Fe  Fe190     1.0  0.88017  0.10325  0.96245  1.0000
  S   S378      1.0  0.86163  0.13295  0.95639  1.0000
  S   S379      1.0  0.89809  0.09263  0.93434  1.0000
  C   C1122     1.0  0.51021  0.98664  0.75815  1.0000
  C   C1123     1.0  0.51154  0.13341  0.97659  1.0000
  C   C1124     1.0  0.52714  0.07279  0.73792  1.0000
  C   C1125     1.0  0.97694  0.15862  0.91208  1.0000
  H   H1142     1.0  0.55338  0.10456  0.73458  1.0000
  S   S380      1.0  0.85364  0.08817  0.97787  1.0000
  H   H1143     1.0  0.92519  0.15729  0.96427  1.0000
  Fe  Fe191     1.0  0.55692  0.06438  0.82753  1.0000
  S   S381      1.0  0.58769  0.05588  0.81150  1.0000
  S   S382      1.0  0.55065  0.09429  0.83912  1.0000
  Fe  Fe192     1.0  0.54429  0.02278  0.82834  1.0000
  S   S383      1.0  0.57450  0.01096  0.81335  1.0000
  S   S384      1.0  0.51705  0.00604  0.83735  1.0000
  Fe  Fe193     1.0  0.58781  0.02796  0.83362  1.0000
  S   S385      1.0  0.61105  0.01610  0.85530  1.0000
  Fe  Fe194     1.0  0.57128  0.04017  0.79282  1.0000
  S   S386      1.0  0.55754  0.03724  0.85025  1.0000
  S   S387      1.0  0.54057  0.05121  0.80722  1.0000
  Fe  Fe195     1.0  0.72687  0.05705  0.93502  1.0000
  S   S388      1.0  0.70309  0.06437  0.96047  1.0000
  S   S389      1.0  0.76032  0.05504  0.93836  1.0000
  Fe  Fe196     1.0  0.69527  0.05105  0.90830  1.0000
  S   S390      1.0  0.66973  0.05781  0.93186  1.0000
  S   S391      1.0  0.68857  0.04567  0.87772  1.0000
  Fe  Fe197     1.0  0.68618  0.08263  0.93671  1.0000
  S   S392      1.0  0.67115  0.11376  0.94071  1.0000
  Fe  Fe198     1.0  0.68876  0.03880  0.95350  1.0000
  S   S393      1.0  0.71089  0.07737  0.91154  1.0000
  S   S394      1.0  0.71355  0.02980  0.92949  1.0000
  C   C1126     1.0  0.49311  0.19228  0.92811  1.0000
  H   H1144     1.0  0.53952  0.06697  0.76591  1.0000
  C   C1127     1.0  0.63014  0.02904  0.86086  1.0000
  C   C1128     1.0  0.63170  0.03075  0.88095  1.0000
  C   C1129     1.0  0.64904  0.03687  0.88632  1.0000
  C   C1130     1.0  0.66516  0.04101  0.87164  1.0000
  C   C1131     1.0  0.66323  0.04007  0.85151  1.0000
  C   C1132     1.0  0.64582  0.03422  0.84612  1.0000
  H   H1145     1.0  0.61980  0.02648  0.89251  1.0000
  H   H1146     1.0  0.65025  0.03754  0.90188  1.0000
  H   H1147     1.0  0.67561  0.04320  0.84003  1.0000
  H   H1148     1.0  0.64506  0.03257  0.83066  1.0000
  H   H1149     1.0  0.97562  0.24457  0.98125  1.0000
  H   H1150     1.0  0.60798  0.08649  0.96584  1.0000
  C   C1133     1.0  0.52504  0.10326  0.84443  1.0000
  C   C1134     1.0  0.98122  0.25011  0.96598  1.0000
  C   C1135     1.0  0.49912  0.99941  0.77133  1.0000
  C   C1136     1.0  0.51934  0.11794  0.85739  1.0000
  C   C1137     1.0  0.50248  0.20361  0.95706  1.0000
  C   C1138     1.0  0.54132  0.06368  0.75064  1.0000
  H   H1151     1.0  0.53065  0.12345  0.86411  1.0000
  C   C1139     1.0  0.64627  0.11500  0.95244  1.0000
  C   C1140     1.0  0.91693  0.15060  0.93680  1.0000
  H   H1152     1.0  0.51224  0.16708  0.91715  1.0000
  C   C1141     1.0  0.63551  0.09867  0.95401  1.0000
  C   C1142     1.0  0.65244  0.98723  0.90931  1.0000
  C   C1143     1.0  0.51035  0.09624  0.83571  1.0000
  H   H1153     1.0  0.64211  0.08544  0.94747  1.0000
  H   H1154     1.0  0.66376  0.98669  0.85901  1.0000
  H   H1155     1.0  0.54416  0.26073  0.96340  1.0000
  H   H1156     1.0  0.55245  0.16570  0.93139  1.0000
  S   S395      1.0  0.98395  0.13976  0.85654  1.0000
  C   C1144     1.0  0.96189  0.09309  0.78259  1.0000
  H   H1157     1.0  0.69513  0.99751  0.86658  1.0000
  H   H1158     1.0  0.98775  0.14963  0.92173  1.0000
  S   S396      1.0  0.57658  0.03976  0.75891  1.0000
  N   N95       1.0  0.95625  0.15560  0.92053  1.0000
  C   C1145     1.0  0.58320  0.31689  0.92755  1.0000
  S   S397      1.0  0.80397  0.12221  0.96528  1.0000
  C   C1146     1.0  0.79180  0.10283  0.95918  1.0000
  C   C1147     1.0  0.77130  0.10677  0.95667  1.0000
  C   C1148     1.0  0.76132  0.09219  0.95070  1.0000
  C   C1149     1.0  0.77182  0.07353  0.94697  1.0000
  C   C1150     1.0  0.79225  0.06948  0.94978  1.0000
  C   C1151     1.0  0.80216  0.08396  0.95600  1.0000
  C   C1152     1.0  0.55801  0.05088  0.74343  1.0000
  H   H1159     1.0  0.74559  0.09553  0.94862  1.0000
  H   H1160     1.0  0.80048  0.05505  0.94706  1.0000
  H   H1161     1.0  0.81792  0.08066  0.95787  1.0000
  C   C1153     1.0  0.92331  0.09728  0.92753  1.0000
  C   C1154     1.0  0.93490  0.10099  0.94170  1.0000
  C   C1155     1.0  0.95508  0.10425  0.93585  1.0000
  C   C1156     1.0  0.96366  0.10422  0.91577  1.0000
  C   C1157     1.0  0.95197  0.10083  0.90155  1.0000
  C   C1158     1.0  0.93193  0.09714  0.90747  1.0000
  H   H1162     1.0  0.92846  0.10099  0.95721  1.0000
  H   H1163     1.0  0.96407  0.10682  0.94693  1.0000
  H   H1164     1.0  0.95846  0.10076  0.88604  1.0000
  H   H1165     1.0  0.92308  0.09420  0.89644  1.0000
  H   H1166     1.0  0.97889  0.17472  0.91058  1.0000
  H   H1167     1.0  0.49959  0.21341  0.96871  1.0000
  H   H1168     1.0  0.64557  0.14496  0.95975  1.0000
  H   H1169     1.0  0.50551  0.03173  0.80163  1.0000
  C   C1159     1.0  0.52769  0.01588  0.77148  1.0000
  C   C1160     1.0  0.68507  0.99654  0.89827  1.0000
  H   H1170     1.0  0.59027  0.30210  0.92456  1.0000
  S   S398      1.0  0.97268  0.10776  0.81465  1.0000
  C   C1161     1.0  0.98452  0.11826  0.77390  1.0000
  H   H1171     1.0  0.95299  0.08399  0.79384  1.0000
  C   C1162     1.0  0.68273  0.27767  0.97433  1.0000
  H   H1172     1.0  0.52212  0.12070  0.97239  1.0000
  C   C1163     1.0  0.53992  0.16031  0.94224  1.0000
  S   S399      1.0  0.49797  0.30979  0.89688  1.0000
  C   C1164     1.0  0.53039  0.98869  0.75160  1.0000
  H   H1173     1.0  0.90155  0.20536  0.97526  1.0000
  H   H1174     1.0  0.91345  0.14368  0.90764  1.0000
  S   S400      1.0  0.63797  0.31903  0.97364  1.0000
  H   H1175     1.0  0.95305  0.08108  0.75777  1.0000
  C   C1165     1.0  0.49603  0.02720  0.79144  1.0000
  C   C1166     1.0  0.97286  0.10346  0.74740  1.0000
  C   C1167     1.0  0.50973  0.17744  0.92830  1.0000
  C   C1168     1.0  0.92347  0.14819  0.91676  1.0000
  N   N96       1.0  0.66981  0.99302  0.91336  1.0000
  H   H1176     1.0  0.95613  0.27326  0.96258  1.0000
  C   C1169     1.0  0.53920  0.00344  0.75826  1.0000
  H   H1177     1.0  0.86114  0.24149  0.96812  1.0000
  C   C1170     1.0  0.61793  0.13283  0.97162  1.0000
  S   S401      1.0  0.53212  0.30648  0.85740  1.0000
  H   H1178     1.0  0.53473  0.02717  0.77666  1.0000
  H   H1179     1.0  0.70991  0.99630  0.96664  1.0000
  H   H1180     1.0  0.55490  0.00522  0.75336  1.0000
  H   H1181     1.0  0.98264  0.31499  0.95981  1.0000
  C   C1171     1.0  0.98410  0.11694  0.75343  1.0000
  N   N97       1.0  0.81473  0.10144  0.91048  1.0000
  C   C1172     1.0  0.81970  0.08201  0.90656  1.0000
  C   C1173     1.0  0.82852  0.11132  0.91663  1.0000
  C   C1174     1.0  0.83882  0.07182  0.90918  1.0000
  C   C1175     1.0  0.84781  0.10164  0.91919  1.0000
  C   C1176     1.0  0.85294  0.08176  0.91553  1.0000
  C   C1177     1.0  0.79481  0.11202  0.90720  1.0000
  H   H1182     1.0  0.80873  0.07415  0.90176  1.0000
  H   H1183     1.0  0.82457  0.12666  0.91994  1.0000
  H   H1184     1.0  0.84265  0.05633  0.90634  1.0000
  H   H1185     1.0  0.85875  0.10945  0.92403  1.0000
  H   H1186     1.0  0.86788  0.07414  0.91764  1.0000
  H   H1187     1.0  0.78323  0.10153  0.91025  1.0000
  H   H1188     1.0  0.78997  0.12363  0.91752  1.0000
  H   H1189     1.0  0.79512  0.11930  0.89151  1.0000
  N   N98       1.0  0.60694  0.08217  0.87634  1.0000
  C   C1178     1.0  0.60067  0.08781  0.89502  1.0000
  C   C1179     1.0  0.62670  0.08187  0.86835  1.0000
  C   C1180     1.0  0.61428  0.09369  0.90605  1.0000
  C   C1181     1.0  0.64074  0.08753  0.87901  1.0000
  C   C1182     1.0  0.63445  0.09352  0.89796  1.0000
  C   C1183     1.0  0.59271  0.07540  0.86522  1.0000
  H   H1190     1.0  0.58506  0.08780  0.90149  1.0000
  H   H1191     1.0  0.63178  0.07690  0.85377  1.0000
  H   H1192     1.0  0.60927  0.09828  0.92081  1.0000
  H   H1193     1.0  0.65649  0.08688  0.87277  1.0000
  H   H1194     1.0  0.64520  0.09794  0.90640  1.0000
  H   H1195     1.0  0.59541  0.08094  0.84898  1.0000
  H   H1196     1.0  0.59418  0.05876  0.86703  1.0000
  H   H1197     1.0  0.57687  0.08118  0.87039  1.0000
  Fe  Fe199     1.0  0.50063  0.29871  0.86700  1.0000
  S   S402      1.0  0.55531  0.31083  0.90425  1.0000
  H   H1198     1.0  0.64697  0.23534  0.97314  1.0000
  C   C1184     1.0  0.97823  0.27390  0.93636  1.0000
  N   N99       1.0  0.50797  0.01366  0.77798  1.0000
  C   C1185     1.0  0.63734  0.13223  0.96100  1.0000
  H   H1199     1.0  0.60471  0.24836  0.97446  1.0000
  C   C1186     1.0  0.54946  0.27149  0.97109  1.0000
  C   C1187     1.0  0.70255  0.98863  0.98012  1.0000
  C   C1188     1.0  0.51250  0.98662  0.82448  1.0000
  S   S403      1.0  0.98880  0.10909  0.90894  1.0000
  C   C1189     1.0  0.67146  0.99699  0.93367  1.0000
  H   H1200     1.0  0.51467  0.08500  0.82561  1.0000
  C   C1190     1.0  0.93020  0.15555  0.94862  1.0000
  C   C1191     1.0  0.66573  0.98786  0.87435  1.0000
  H   H1201     1.0  0.53611  0.14622  0.93799  1.0000
  C   C1192     1.0  0.67347  0.26110  0.97217  1.0000
  Fe  Fe200     1.0  0.83579  0.11835  0.97386  1.0000
  C   C1193     1.0  0.94995  0.15798  0.94020  1.0000
  H   H1202     1.0  0.54511  0.15641  0.95727  1.0000
  C   C1194     1.0  0.96189  0.09139  0.76214  1.0000
  H   H1203     1.0  0.54294  0.29649  0.94863  1.0000
  H   H1204     1.0  0.51444  0.08291  0.74363  1.0000
  N   N100      1.0  0.52236  0.17572  0.94259  1.0000
  H   H1205     1.0  0.54939  0.30785  0.76573  1.0000
  C   C1195     1.0  0.97327  0.10644  0.78862  1.0000
  C   C1196     1.0  0.60742  0.11627  0.97341  1.0000
  H   H1206     1.0  0.76311  0.12130  0.95910  1.0000
  C   C1197     1.0  0.49496  0.13990  0.96616  1.0000
  C   C1198     1.0  0.94328  0.15086  0.90878  1.0000
  S   S404      1.0  0.49243  0.26912  0.86059  1.0000
  H   H1207     1.0  0.94837  0.14847  0.89332  1.0000
  H   H1208     1.0  0.98908  0.06658  0.82594  1.0000
  C   C1199     1.0  0.51909  0.18875  0.95668  1.0000
  H   H1209     1.0  0.96027  0.16158  0.94954  1.0000
  H   H1210     1.0  0.52896  0.18734  0.96814  1.0000
  S   S405      1.0  0.49177  0.12702  0.94636  1.0000
  C   C1200     1.0  0.97031  0.26622  0.95554  1.0000
  H   H1211     1.0  0.58736  0.31078  0.82512  1.0000
  C   C1201     1.0  0.49903  0.12548  0.86176  1.0000
  C   C1202     1.0  0.61610  0.09932  0.96439  1.0000
  H   H1212     1.0  0.69841  0.00218  0.90121  1.0000
  H   H1213     1.0  0.67329  0.25727  0.95725  1.0000
  C   C1203     1.0  0.54882  0.29153  0.96279  1.0000
  C   C1204     1.0  0.55617  0.30511  0.97269  1.0000
  S   S406      1.0  0.67149  0.01967  0.97804  1.0000
  C   C1205     1.0  0.68333  0.99387  0.87859  1.0000
  H   H1214     1.0  0.68948  0.28675  0.96132  1.0000
  H   H1215     1.0  0.90171  0.14833  0.94330  1.0000
  H   H1216     1.0  0.66571  0.01288  0.93544  1.0000
  S   S407      1.0  0.88183  0.17001  0.98149  1.0000
  H   H1217     1.0  0.98102  0.15343  0.89706  1.0000
  H   H1218     1.0  0.49481  0.13680  0.87174  1.0000
  H   H1219     1.0  0.61115  0.14606  0.97842  1.0000
  H   H1220     1.0  0.97031  0.28697  0.92845  1.0000
  H   H1221     1.0  0.66274  0.98727  0.94524  1.0000
  H   H1222     1.0  0.68731  0.99408  0.93690  1.0000
  H   H1223     1.0  0.53576  0.31668  0.79978  1.0000
  H   H1224     1.0  0.56112  0.31825  0.82220  1.0000
  H   H1225     1.0  0.57713  0.31918  0.86017  1.0000
  Fe  Fe201     1.0  0.64864  0.45954  0.13703  1.0000
  S   S408      1.0  0.62209  0.47425  0.12185  1.0000
  S   S409      1.0  0.64855  0.43612  0.16441  1.0000
  Fe  Fe202     1.0  0.67900  0.47960  0.10515  1.0000
  S   S410      1.0  0.65470  0.49601  0.08735  1.0000
  S   S411      1.0  0.71319  0.47703  0.09774  1.0000
  Fe  Fe203     1.0  0.63747  0.50197  0.11731  1.0000
  S   S412      1.0  0.62125  0.53211  0.12493  1.0000
  Fe  Fe204     1.0  0.64114  0.46695  0.09309  1.0000
  S   S413      1.0  0.62578  0.45595  0.06978  1.0000
  S   S414      1.0  0.66287  0.48772  0.13477  1.0000
  S   S415      1.0  0.66651  0.45007  0.10865  1.0000
  H   H1226     1.0  0.77856  0.48074  0.98626  1.0000
  H   H1227     1.0  0.58963  0.46692  0.20588  1.0000
  H   H1228     1.0  0.90414  0.37620  0.21341  1.0000
  S   S416      1.0  0.50675  0.61755  0.08209  1.0000
  Fe  Fe205     1.0  0.51881  0.59477  0.10614  1.0000
  S   S417      1.0  0.53552  0.56511  0.09795  1.0000
  S   S418      1.0  0.53245  0.61718  0.11927  1.0000
  Fe  Fe206     1.0  0.63838  0.35619  0.01327  1.0000
  S   S419      1.0  0.65811  0.32677  0.01204  1.0000
  S   S420      1.0  0.64848  0.37104  0.03760  1.0000
  S   S421      1.0  0.61087  0.34185  0.01108  1.0000
  Fe  Fe207     1.0  0.93529  0.40276  0.18546  1.0000
  S   S422      1.0  0.91884  0.43206  0.17407  1.0000
  Fe  Fe208     1.0  0.94372  0.38875  0.14315  1.0000
  S   S423      1.0  0.92842  0.41793  0.12924  1.0000
  S   S424      1.0  0.95794  0.36547  0.12221  1.0000
  Fe  Fe209     1.0  0.94412  0.43281  0.14895  1.0000
  Fe  Fe210     1.0  0.90512  0.41411  0.15590  1.0000
  S   S425      1.0  0.87237  0.41914  0.15275  1.0000
  S   S426      1.0  0.96152  0.40408  0.16101  1.0000
  S   S427      1.0  0.91939  0.38429  0.16910  1.0000
  Fe  Fe211     1.0  0.80677  0.53494  0.06852  1.0000
  S   S428      1.0  0.81999  0.50347  0.07817  1.0000
  S   S429      1.0  0.77284  0.54291  0.06948  1.0000
  Fe  Fe212     1.0  0.84855  0.55065  0.05982  1.0000
  S   S430      1.0  0.86421  0.51987  0.06828  1.0000
  S   S431      1.0  0.86848  0.57547  0.04812  1.0000
  Fe  Fe213     1.0  0.84305  0.50844  0.05129  1.0000
  S   S432      1.0  0.85518  0.48603  0.02941  1.0000
  Fe  Fe214     1.0  0.83959  0.51823  0.09395  1.0000
  S   S433      1.0  0.84608  0.51045  0.12567  1.0000
  S   S434      1.0  0.82894  0.53934  0.04061  1.0000
  S   S435      1.0  0.82474  0.54951  0.08652  1.0000
  H   H1229     1.0  0.53434  0.56114  0.20754  1.0000
  C   C1206     1.0  0.67190  0.40687  0.99793  1.0000
  C   C1207     1.0  0.91647  0.51950  0.07367  1.0000
  C   C1208     1.0  0.91043  0.47808  0.11591  1.0000
  C   C1209     1.0  0.88184  0.58962  0.06074  1.0000
  C   C1210     1.0  0.89564  0.60175  0.04936  1.0000
  C   C1211     1.0  0.90651  0.61333  0.05860  1.0000
  C   C1212     1.0  0.90360  0.61306  0.07942  1.0000
  C   C1213     1.0  0.88982  0.60090  0.09083  1.0000
  C   C1214     1.0  0.87907  0.58920  0.08159  1.0000
  H   H1230     1.0  0.89793  0.60223  0.03322  1.0000
  C   C1215     1.0  0.64469  0.38784  0.11593  1.0000
  H   H1231     1.0  0.88733  0.60063  0.10693  1.0000
  H   H1232     1.0  0.86837  0.58015  0.09056  1.0000
  C   C1216     1.0  0.80671  0.45905  0.02452  1.0000
  C   C1217     1.0  0.81952  0.47026  0.03153  1.0000
  C   C1218     1.0  0.83922  0.47082  0.02215  1.0000
  H   H1233     1.0  0.79137  0.45895  0.03166  1.0000
  H   H1234     1.0  0.81403  0.47871  0.04398  1.0000
  H   H1235     1.0  0.74220  0.54584  0.12003  1.0000
  C   C1219     1.0  0.90465  0.53564  0.08190  1.0000
  H   H1236     1.0  0.87838  0.33419  0.02730  1.0000
  C   C1220     1.0  0.75321  0.53286  0.12289  1.0000
  H   H1237     1.0  0.52747  0.57890  0.17438  1.0000
  S   S436      1.0  0.93946  0.39681  0.21855  1.0000
  C   C1221     1.0  0.85408  0.48509  0.13238  1.0000
  C   C1222     1.0  0.85053  0.47053  0.12116  1.0000
  C   C1223     1.0  0.85595  0.45018  0.12756  1.0000
  C   C1224     1.0  0.86569  0.44449  0.14466  1.0000
  C   C1225     1.0  0.86993  0.45913  0.15541  1.0000
  C   C1226     1.0  0.86375  0.47939  0.14950  1.0000
  H   H1238     1.0  0.84328  0.47489  0.10778  1.0000
  H   H1239     1.0  0.85287  0.43885  0.11913  1.0000
  H   H1240     1.0  0.87754  0.45482  0.16856  1.0000
  H   H1241     1.0  0.86650  0.49065  0.15818  1.0000
  C   C1227     1.0  0.94398  0.35187  0.10976  1.0000
  H   H1242     1.0  0.97244  0.56168  0.13600  1.0000
  C   C1228     1.0  0.92565  0.34565  0.11885  1.0000
  H   H1243     1.0  0.59746  0.44670  0.10886  1.0000
  H   H1244     1.0  0.91886  0.35061  0.13301  1.0000
  H   H1245     1.0  0.63069  0.58677  0.08132  1.0000
  C   C1229     1.0  0.89706  0.51374  0.11244  1.0000
  H   H1246     1.0  0.90263  0.55020  0.07296  1.0000
  C   C1230     1.0  0.77359  0.53504  0.12086  1.0000
  C   C1231     1.0  0.61621  0.40092  0.09835  1.0000
  C   C1232     1.0  0.72908  0.49571  0.08854  1.0000
  C   C1233     1.0  0.72180  0.51610  0.08544  1.0000
  C   C1234     1.0  0.73533  0.53040  0.07916  1.0000
  C   C1235     1.0  0.75620  0.52446  0.07613  1.0000
  C   C1236     1.0  0.76338  0.50404  0.07881  1.0000
  C   C1237     1.0  0.74989  0.48978  0.08493  1.0000
  H   H1247     1.0  0.70580  0.52085  0.08806  1.0000
  H   H1248     1.0  0.72961  0.54616  0.07696  1.0000
  H   H1249     1.0  0.77929  0.49916  0.07618  1.0000
  H   H1250     1.0  0.75563  0.47403  0.08711  1.0000
  C   C1238     1.0  0.63329  0.43309  0.05952  1.0000
  C   C1239     1.0  0.65039  0.42027  0.06448  1.0000
  C   C1240     1.0  0.65504  0.40156  0.05716  1.0000
  C   C1241     1.0  0.64272  0.39547  0.04480  1.0000
  C   C1242     1.0  0.62596  0.40852  0.03932  1.0000
  C   C1243     1.0  0.62126  0.42723  0.04671  1.0000
  H   H1251     1.0  0.65981  0.42462  0.07425  1.0000
  H   H1252     1.0  0.66811  0.39159  0.06139  1.0000
  H   H1253     1.0  0.61637  0.40403  0.02980  1.0000
  H   H1254     1.0  0.60806  0.43711  0.04271  1.0000
  C   C1244     1.0  0.59658  0.53991  0.11891  1.0000
  C   C1245     1.0  0.58820  0.53002  0.10609  1.0000
  C   C1246     1.0  0.56919  0.53759  0.10026  1.0000
  C   C1247     1.0  0.55845  0.55510  0.10714  1.0000
  C   C1248     1.0  0.56667  0.56477  0.12027  1.0000
  C   C1249     1.0  0.58565  0.55718  0.12614  1.0000
  H   H1255     1.0  0.59652  0.51675  0.10037  1.0000
  H   H1256     1.0  0.56292  0.53002  0.09010  1.0000
  H   H1257     1.0  0.55853  0.57821  0.12572  1.0000
  H   H1258     1.0  0.59201  0.56486  0.13612  1.0000
  H   H1259     1.0  0.97073  0.49874  0.14706  1.0000
  H   H1260     1.0  0.55830  0.58746  0.06154  1.0000
  C   C1250     1.0  0.63525  0.42549  0.20401  1.0000
  C   C1251     1.0  0.63165  0.43853  0.18657  1.0000
  C   C1252     1.0  0.61508  0.45338  0.18729  1.0000
  C   C1253     1.0  0.60239  0.45533  0.20541  1.0000
  H   H1261     1.0  0.66324  0.47208  0.18468  1.0000
  H   H1262     1.0  0.64793  0.41382  0.20351  1.0000
  H   H1263     1.0  0.61209  0.46343  0.17393  1.0000
  H   H1264     1.0  0.58109  0.42736  0.11643  1.0000
  H   H1265     1.0  0.52110  0.55543  0.16873  1.0000
  C   C1254     1.0  0.95258  0.34514  0.09138  1.0000
  H   H1266     1.0  0.95266  0.43571  0.19811  1.0000
  H   H1267     1.0  0.61983  0.43015  0.13330  1.0000
  H   H1268     1.0  0.90995  0.47907  0.13216  1.0000
  C   C1255     1.0  0.88293  0.34951  0.02371  1.0000
  H   H1269     1.0  0.81992  0.40638  0.02129  1.0000
  H   H1270     1.0  0.55035  0.62329  0.06717  1.0000
  H   H1271     1.0  0.64924  0.40507  0.13888  1.0000
  C   C1256     1.0  0.87487  0.40584  0.20836  1.0000
  H   H1272     1.0  0.88902  0.51155  0.12742  1.0000
  Fe  Fe215     1.0  0.50254  0.62082  0.13885  1.0000
  N   N101      1.0  0.69237  0.39623  0.99721  1.0000
  C   C1257     1.0  0.49475  0.61211  0.21172  1.0000
  H   H1273     1.0  0.95039  0.32648  0.06865  1.0000
  C   C1258     1.0  0.92555  0.32484  0.09218  1.0000
  C   C1259     1.0  0.59452  0.43167  0.10624  1.0000
  S   S437      1.0  0.95513  0.46318  0.14082  1.0000
  C   C1260     1.0  0.62339  0.41796  0.12414  1.0000
  C   C1261     1.0  0.86284  0.42440  0.20684  1.0000
  H   H1274     1.0  0.92730  0.48812  0.07855  1.0000
  H   H1275     1.0  0.65770  0.37683  0.11820  1.0000
  H   H1276     1.0  0.84869  0.44920  0.22254  1.0000
  H   H1277     1.0  0.70592  0.42274  0.98605  1.0000
  H   H1278     1.0  0.60724  0.39990  0.08663  1.0000
  H   H1279     1.0  0.86151  0.45988  0.99890  1.0000
  C   C1262     1.0  0.98652  0.41811  0.21156  1.0000
  C   C1263     1.0  0.62559  0.49177  0.21771  1.0000
  C   C1264     1.0  0.65411  0.47443  0.19886  1.0000
  C   C1265     1.0  0.80043  0.51279  0.00687  1.0000
  H   H1280     1.0  0.60417  0.61828  0.09476  1.0000
  C   C1266     1.0  0.97696  0.46651  0.15073  1.0000
  C   C1267     1.0  0.76759  0.50866  0.02493  1.0000
  C   C1268     1.0  0.94338  0.33181  0.08255  1.0000
  C   C1269     1.0  0.72805  0.39713  0.99037  1.0000
  H   H1281     1.0  0.92494  0.46895  0.11134  1.0000
  C   C1270     1.0  0.95439  0.46672  0.19968  1.0000
  H   H1282     1.0  0.90276  0.32693  0.11772  1.0000
  H   H1283     1.0  0.81432  0.51941  0.00529  1.0000
  H   H1284     1.0  0.87879  0.39805  0.19518  1.0000
  C   C1271     1.0  0.56860  0.59451  0.06830  1.0000
  C   C1272     1.0  0.69547  0.37604  0.00317  1.0000
  N   N102      1.0  0.86546  0.36503  0.02355  1.0000
  C   C1273     1.0  0.86809  0.38458  0.02383  1.0000
  C   C1274     1.0  0.84683  0.36010  0.02233  1.0000
  C   C1275     1.0  0.85174  0.39973  0.02322  1.0000
  C   C1276     1.0  0.83022  0.37489  0.02141  1.0000
  C   C1277     1.0  0.83271  0.39480  0.02198  1.0000
  H   H1285     1.0  0.75582  0.51203  0.03706  1.0000
  H   H1286     1.0  0.89241  0.35135  0.03521  1.0000
  H   H1287     1.0  0.84465  0.34470  0.02194  1.0000
  H   H1288     1.0  0.85381  0.41523  0.02355  1.0000
  H   H1289     1.0  0.88289  0.38854  0.02454  1.0000
  H   H1290     1.0  0.89211  0.35038  0.00874  1.0000
  H   H1291     1.0  0.68286  0.36757  0.00797  1.0000
  H   H1292     1.0  0.92374  0.52151  0.05835  1.0000
  H   H1293     1.0  0.98763  0.43508  0.15593  1.0000
  N   N103      1.0  0.78168  0.49940  0.12831  1.0000
  C   C1278     1.0  0.76174  0.49708  0.12997  1.0000
  C   C1279     1.0  0.78771  0.51806  0.12365  1.0000
  C   C1280     1.0  0.74720  0.51377  0.12754  1.0000
  C   C1281     1.0  0.79681  0.48175  0.13030  1.0000
  H   H1294     1.0  0.75697  0.48226  0.13269  1.0000
  H   H1295     1.0  0.73146  0.51182  0.12831  1.0000
  H   H1296     1.0  0.79057  0.46908  0.14024  1.0000
  H   H1297     1.0  0.80234  0.47690  0.11532  1.0000
  H   H1298     1.0  0.80980  0.48517  0.13694  1.0000
  Fe  Fe216     1.0  0.51804  0.64043  0.09708  1.0000
  C   C1282     1.0  0.51007  0.55602  0.23095  1.0000
  H   H1299     1.0  0.74067  0.40541  0.98465  1.0000
  H   H1300     1.0  0.89784  0.47011  0.11374  1.0000
  N   N104      1.0  0.50616  0.56496  0.19612  1.0000
  C   C1283     1.0  0.98401  0.47349  0.21207  1.0000
  C   C1284     1.0  0.76512  0.49547  0.01177  1.0000
  C   C1285     1.0  0.63263  0.38631  0.10139  1.0000
  N   N105      1.0  0.90889  0.49805  0.10436  1.0000
  S   S438      1.0  0.82085  0.34111  0.98784  1.0000
  C   C1286     1.0  0.65778  0.46155  0.21628  1.0000
  C   C1287     1.0  0.70834  0.40679  0.99097  1.0000
  C   C1288     1.0  0.83333  0.44852  0.99898  1.0000
  H   H1301     1.0  0.74657  0.36877  0.99524  1.0000
  C   C1289     1.0  0.78045  0.49130  0.99622  1.0000
  H   H1302     1.0  0.96082  0.49635  0.20222  1.0000
  H   H1303     1.0  0.97908  0.41095  0.22590  1.0000
  C   C1290     1.0  0.81340  0.44859  0.00793  1.0000
  H   H1304     1.0  0.96174  0.57960  0.11741  1.0000
  H   H1305     1.0  0.58946  0.56777  0.07186  1.0000
  C   C1291     1.0  0.89480  0.53276  0.10138  1.0000
  C   C1292     1.0  0.84622  0.45955  0.00615  1.0000
  H   H1306     1.0  0.80354  0.51987  0.12176  1.0000
  S   S439      1.0  0.91625  0.62800  0.09189  1.0000
  C   C1293     1.0  0.60634  0.44271  0.22300  1.0000
  H   H1307     1.0  0.94042  0.47190  0.19347  1.0000
  C   C1294     1.0  0.51827  0.56070  0.21101  1.0000
  H   H1308     1.0  0.81559  0.37092  0.01995  1.0000
  H   H1309     1.0  0.51019  0.61332  0.21324  1.0000
  C   C1295     1.0  0.91835  0.50067  0.08515  1.0000
  C   C1296     1.0  0.78532  0.51742  0.02246  1.0000
  N   N106      1.0  0.97950  0.43965  0.20912  1.0000
  S   S440      1.0  0.79594  0.43719  0.99797  1.0000
  C   C1297     1.0  0.62273  0.42764  0.22221  1.0000
  N   N107      1.0  0.79792  0.49976  0.99409  1.0000
  H   H1310     1.0  0.88505  0.54505  0.10769  1.0000
  H   H1311     1.0  0.96673  0.34990  0.08420  1.0000
  C   C1298     1.0  0.56399  0.61451  0.07170  1.0000
  C   C1299     1.0  0.57686  0.62312  0.08125  1.0000
  H   H1312     1.0  0.61256  0.50310  0.21835  1.0000
  H   H1313     1.0  0.63627  0.37421  0.09208  1.0000
  H   H1314     1.0  0.97337  0.62514  0.12172  1.0000
  H   H1315     1.0  0.59139  0.43338  0.09043  1.0000
  C   C1300     1.0  0.89393  0.37811  0.22754  1.0000
  C   C1301     1.0  0.58622  0.58341  0.07430  1.0000
  C   C1302     1.0  0.71499  0.36590  0.00274  1.0000
  N   N108      1.0  0.59880  0.59195  0.08366  1.0000
  C   C1303     1.0  0.91658  0.33214  0.11016  1.0000
  S   S441      1.0  0.50630  0.62091  0.17153  1.0000
  Fe  Fe217     1.0  0.94146  0.64736  0.07938  1.0000
  C   C1304     1.0  0.73136  0.37654  0.99630  1.0000
  C   C1305     1.0  0.97285  0.56596  0.11954  1.0000
  S   S442      1.0  0.97143  0.63412  0.06484  1.0000
  C   C1306     1.0  0.59430  0.61153  0.08721  1.0000
  H   H1316     1.0  0.50396  0.57836  0.16602  1.0000
  C   C1307     1.0  0.98534  0.61621  0.12902  1.0000
  H   H1317     1.0  0.66997  0.44936  0.21533  1.0000
  N   N109      1.0  0.61197  0.41666  0.10945  1.0000
  C   C1308     1.0  0.96580  0.48040  0.20461  1.0000
  H   H1318     1.0  0.75153  0.48831  0.01375  1.0000
  H   H1319     1.0  0.77849  0.54973  0.11641  1.0000
  H   H1320     1.0  0.85760  0.43076  0.19267  1.0000
  H   H1321     1.0  0.91516  0.43606  0.21415  1.0000
  H   H1322     1.0  0.66873  0.41587  0.01072  1.0000
  C   C1309     1.0  0.91605  0.43138  0.22979  1.0000
  H   H1323     1.0  0.63455  0.49931  0.18607  1.0000
  H   H1324     1.0  0.96520  0.60003  0.15076  1.0000
  C   C1310     1.0  0.64001  0.40370  0.12747  1.0000
  H   H1325     1.0  0.66044  0.39636  0.99994  1.0000
  H   H1326     1.0  0.91699  0.62259  0.04956  1.0000
  C   C1311     1.0  0.51514  0.56949  0.17530  1.0000
  H   H1327     1.0  0.61865  0.56435  0.08713  1.0000
  C   C1312     1.0  0.63791  0.48963  0.19962  1.0000
  C   C1313     1.0  0.96145  0.44626  0.20219  1.0000
  C   C1314     1.0  0.61736  0.58031  0.08978  1.0000
  H   H1328     1.0  0.61763  0.58024  0.10610  1.0000
  H   H1329     1.0  0.67002  0.41687  0.98374  1.0000
  H   H1330     1.0  0.71735  0.34979  0.00679  1.0000
  H   H1331     1.0  0.83863  0.44047  0.98619  1.0000
  H   H1332     1.0  0.78740  0.52766  0.03264  1.0000
  H   H1333     1.0  0.96819  0.55368  0.11281  1.0000
  H   H1334     1.0  0.56077  0.32063  0.01015  1.0000
  H   H1335     1.0  0.57928  0.32474  0.98850  1.0000
  C   C1315     1.0  0.85771  0.43464  0.22362  1.0000
  H   H1336     1.0  0.57316  0.63865  0.08415  1.0000
  Fe  Fe218     1.0  0.98442  0.64977  0.08590  1.0000
  N   N110      1.0  0.88168  0.39776  0.22612  1.0000
  H   H1337     1.0  0.98273  0.41090  0.19913  1.0000
  C   C1316     1.0  0.98090  0.48593  0.15228  1.0000
  H   H1338     1.0  0.98247  0.59308  0.08842  1.0000
  C   C1317     1.0  0.98073  0.60193  0.14542  1.0000
  C   C1318     1.0  0.84643  0.33203  0.98453  1.0000
  H   H1339     1.0  0.88410  0.36602  0.23069  1.0000
  H   H1340     1.0  0.98733  0.32088  0.12012  1.0000
  C   C1319     1.0  0.99025  0.45005  0.15744  1.0000
  S   S443      1.0  0.99022  0.57010  0.17307  1.0000
  C   C1320     1.0  0.88782  0.31977  0.98297  1.0000
  Fe  Fe219     1.0  0.67563  0.53442  0.40095  1.0000
  S   S444      1.0  0.69560  0.54217  0.37238  1.0000
  S   S445      1.0  0.64747  0.55297  0.41410  1.0000
  Fe  Fe220     1.0  0.69274  0.48987  0.40353  1.0000
  S   S446      1.0  0.71327  0.49404  0.37461  1.0000
  S   S447      1.0  0.69163  0.45807  0.41834  1.0000
  Fe  Fe221     1.0  0.72004  0.52106  0.38659  1.0000
  S   S448      1.0  0.75230  0.52787  0.38372  1.0000
  Fe  Fe222     1.0  0.68732  0.51441  0.36306  1.0000
  S   S449      1.0  0.67528  0.51624  0.33373  1.0000
  S   S450      1.0  0.70078  0.51583  0.41639  1.0000
  S   S451      1.0  0.66618  0.50768  0.39066  1.0000
  C   C1321     1.0  0.55213  0.62150  0.45831  1.0000
  H   H1341     1.0  0.86196  0.36456  0.43428  1.0000
  H   H1342     1.0  0.84048  0.38589  0.41120  1.0000
  C   C1322     1.0  0.50416  0.62450  0.35392  1.0000
  H   H1343     1.0  0.51959  0.55286  0.24286  1.0000
  Fe  Fe223     1.0  0.59771  0.43478  0.27714  1.0000
  S   S452      1.0  0.57242  0.42810  0.30154  1.0000
  C   C1323     1.0  0.74404  0.42280  0.45789  1.0000
  Fe  Fe224     1.0  0.62757  0.43139  0.30697  1.0000
  S   S453      1.0  0.60486  0.42470  0.33369  1.0000
  S   S454      1.0  0.65946  0.43304  0.31163  1.0000
  Fe  Fe225     1.0  0.59492  0.40416  0.31519  1.0000
  S   S455      1.0  0.58514  0.37412  0.32933  1.0000
  Fe  Fe226     1.0  0.58446  0.44895  0.31815  1.0000
  S   S456      1.0  0.56552  0.47252  0.33525  1.0000
  S   S457      1.0  0.61929  0.40900  0.28916  1.0000
  S   S458      1.0  0.60804  0.45745  0.29308  1.0000
  H   H1344     1.0  0.52888  0.44213  0.29664  1.0000
  H   H1345     1.0  0.69097  0.42090  0.44379  1.0000
  C   C1324     1.0  0.74818  0.44675  0.47949  1.0000
  S   S459      1.0  0.95722  0.56058  0.38024  1.0000
  C   C1325     1.0  0.87633  0.40748  0.24277  1.0000
  S   S460      1.0  0.90159  0.34135  0.41740  1.0000
  Fe  Fe227     1.0  0.85857  0.46710  0.34993  1.0000
  S   S461      1.0  0.88198  0.47575  0.36626  1.0000
  S   S462      1.0  0.82628  0.46231  0.36216  1.0000
  Fe  Fe228     1.0  0.88943  0.45610  0.31378  1.0000
  S   S463      1.0  0.91528  0.46328  0.32774  1.0000
  S   S464      1.0  0.88839  0.45132  0.28137  1.0000
  Fe  Fe229     1.0  0.90064  0.44777  0.35661  1.0000
  S   S465      1.0  0.91787  0.42986  0.38081  1.0000
  Fe  Fe230     1.0  0.89488  0.49064  0.33641  1.0000
  S   S466      1.0  0.90686  0.52076  0.32789  1.0000
  S   S467      1.0  0.87658  0.43816  0.34197  1.0000
  S   S468      1.0  0.86963  0.48445  0.32086  1.0000
  C   C1326     1.0  0.90559  0.36624  0.40787  1.0000
  C   C1327     1.0  0.91593  0.37744  0.41774  1.0000
  C   C1328     1.0  0.91975  0.39685  0.40918  1.0000
  C   C1329     1.0  0.91279  0.40542  0.39101  1.0000
  C   C1330     1.0  0.90195  0.39442  0.38145  1.0000
  C   C1331     1.0  0.89859  0.37482  0.38973  1.0000
  H   H1346     1.0  0.92151  0.37093  0.43165  1.0000
  H   H1347     1.0  0.92817  0.40526  0.41665  1.0000
  H   H1348     1.0  0.89659  0.40082  0.36742  1.0000
  H   H1349     1.0  0.89065  0.36623  0.38197  1.0000
  C   C1332     1.0  0.94217  0.55078  0.36569  1.0000
  C   C1333     1.0  0.93140  0.53490  0.37461  1.0000
  C   C1334     1.0  0.92037  0.52566  0.36330  1.0000
  C   C1335     1.0  0.91983  0.53239  0.34297  1.0000
  C   C1336     1.0  0.93022  0.54857  0.33414  1.0000
  C   C1337     1.0  0.94142  0.55769  0.34541  1.0000
  H   H1350     1.0  0.93179  0.52956  0.39032  1.0000
  H   H1351     1.0  0.91230  0.51335  0.37031  1.0000
  H   H1352     1.0  0.92971  0.55398  0.31845  1.0000
  H   H1353     1.0  0.94947  0.57003  0.33844  1.0000
  C   C1338     1.0  0.62967  0.47860  0.23483  1.0000
  C   C1339     1.0  0.92813  0.40761  0.25661  1.0000
  C   C1340     1.0  0.91727  0.41967  0.27087  1.0000
  C   C1341     1.0  0.90549  0.43749  0.26456  1.0000
  C   C1342     1.0  0.63151  0.36159  0.44568  1.0000
  H   H1354     1.0  0.54202  0.61040  0.45875  1.0000
  H   H1355     1.0  0.93682  0.39363  0.26163  1.0000
  H   H1356     1.0  0.91745  0.41485  0.28671  1.0000
  C   C1343     1.0  0.84912  0.39792  0.41206  1.0000
  S   S469      1.0  0.59075  0.44685  0.24564  1.0000
  C   C1344     1.0  0.60719  0.33948  0.38703  1.0000
  C   C1345     1.0  0.59364  0.36126  0.35174  1.0000
  C   C1346     1.0  0.60984  0.36673  0.35943  1.0000
  C   C1347     1.0  0.61664  0.35581  0.37690  1.0000
  H   H1357     1.0  0.61732  0.37919  0.35173  1.0000
  H   H1358     1.0  0.62934  0.36005  0.38254  1.0000
  C   C1348     1.0  0.52380  0.51770  0.31682  1.0000
  C   C1349     1.0  0.53707  0.50495  0.32850  1.0000
  C   C1350     1.0  0.55058  0.48981  0.32007  1.0000
  C   C1351     1.0  0.55124  0.48786  0.29979  1.0000
  C   C1352     1.0  0.53797  0.50054  0.28816  1.0000
  H   H1359     1.0  0.51318  0.52915  0.32346  1.0000
  H   H1360     1.0  0.53660  0.50657  0.34416  1.0000
  H   H1361     1.0  0.56162  0.47625  0.29315  1.0000
  H   H1362     1.0  0.94233  0.47123  0.35950  1.0000
  C   C1353     1.0  0.53069  0.62579  0.31839  1.0000
  C   C1354     1.0  0.51736  0.45698  0.32269  1.0000
  C   C1355     1.0  0.69444  0.46691  0.45622  1.0000
  H   H1363     1.0  0.97036  0.51660  0.31917  1.0000
  C   C1356     1.0  0.87114  0.42879  0.41396  1.0000
  H   H1364     1.0  0.54077  0.62663  0.30450  1.0000
  N   N111      1.0  0.54744  0.63637  0.47046  1.0000
  H   H1365     1.0  0.50587  0.46397  0.27502  1.0000
  H   H1366     1.0  0.52784  0.44797  0.33206  1.0000
  H   H1367     1.0  0.67131  0.32927  0.45410  1.0000
  C   C1357     1.0  0.77295  0.50906  0.37976  1.0000
  C   C1358     1.0  0.77010  0.48939  0.37823  1.0000
  C   C1359     1.0  0.78669  0.47516  0.37340  1.0000
  C   C1360     1.0  0.80630  0.48045  0.36989  1.0000
  C   C1361     1.0  0.80927  0.49995  0.37198  1.0000
  C   C1362     1.0  0.79263  0.51417  0.37700  1.0000
  H   H1368     1.0  0.75511  0.48517  0.38049  1.0000
  H   H1369     1.0  0.78428  0.46006  0.37195  1.0000
  H   H1370     1.0  0.82432  0.50415  0.36950  1.0000
  H   H1371     1.0  0.79500  0.52932  0.37831  1.0000
  C   C1363     1.0  0.67096  0.49306  0.32775  1.0000
  C   C1364     1.0  0.65773  0.49258  0.31385  1.0000
  C   C1365     1.0  0.65405  0.47420  0.30889  1.0000
  C   C1366     1.0  0.66401  0.45626  0.31742  1.0000
  C   C1367     1.0  0.67754  0.45676  0.33103  1.0000
  C   C1368     1.0  0.68071  0.47510  0.33651  1.0000
  H   H1372     1.0  0.65022  0.50645  0.30700  1.0000
  H   H1373     1.0  0.64380  0.47400  0.29820  1.0000
  H   H1374     1.0  0.68534  0.44291  0.33761  1.0000
  H   H1375     1.0  0.69098  0.47536  0.34721  1.0000
  C   C1369     1.0  0.63995  0.57869  0.40705  1.0000
  C   C1370     1.0  0.61931  0.58564  0.40816  1.0000
  C   C1371     1.0  0.61261  0.60611  0.40350  1.0000
  C   C1372     1.0  0.62648  0.61993  0.39844  1.0000
  C   C1373     1.0  0.64713  0.61299  0.39722  1.0000
  C   C1374     1.0  0.65388  0.59239  0.40119  1.0000
  H   H1376     1.0  0.60846  0.57511  0.41267  1.0000
  H   H1377     1.0  0.59672  0.61122  0.40413  1.0000
  H   H1378     1.0  0.65797  0.62360  0.39330  1.0000
  H   H1379     1.0  0.66981  0.58721  0.40049  1.0000
  C   C1375     1.0  0.69255  0.45229  0.44429  1.0000
  C   C1376     1.0  0.87237  0.41141  0.42772  1.0000
  S   S470      1.0  0.51932  0.64208  0.42729  1.0000
  H   H1380     1.0  0.69432  0.48239  0.44977  1.0000
  C   C1377     1.0  0.92725  0.41322  0.23600  1.0000
  H   H1381     1.0  0.62816  0.48581  0.38187  1.0000
  C   C1378     1.0  0.53446  0.63507  0.33437  1.0000
  C   C1379     1.0  0.84743  0.41517  0.39814  1.0000
  H   H1382     1.0  0.86086  0.43407  0.25486  1.0000
  H   H1383     1.0  0.62078  0.48726  0.34644  1.0000
  C   C1380     1.0  0.63507  0.47059  0.38034  1.0000
  H   H1384     1.0  0.66716  0.43392  0.40262  1.0000
  C   C1381     1.0  0.65699  0.44143  0.39217  1.0000
  H   H1385     1.0  0.94851  0.48968  0.32530  1.0000
  C   C1382     1.0  0.49165  0.48139  0.29864  1.0000
  C   C1383     1.0  0.58422  0.34487  0.36185  1.0000
  N   N112      1.0  0.62436  0.58503  0.35657  1.0000
  C   C1384     1.0  0.63391  0.60180  0.35428  1.0000
  C   C1385     1.0  0.60449  0.58666  0.35404  1.0000
  C   C1386     1.0  0.62340  0.62084  0.34978  1.0000
  C   C1387     1.0  0.59358  0.60548  0.34933  1.0000
  C   C1388     1.0  0.60314  0.62264  0.34726  1.0000
  C   C1389     1.0  0.63545  0.56512  0.36140  1.0000
  H   H1386     1.0  0.64959  0.60061  0.35649  1.0000
  H   H1387     1.0  0.59693  0.57338  0.35576  1.0000
  H   H1388     1.0  0.69499  0.41130  0.47962  1.0000
  H   H1389     1.0  0.57776  0.60687  0.34743  1.0000
  H   H1390     1.0  0.74752  0.47723  0.46576  1.0000
  H   H1391     1.0  0.62697  0.55647  0.37416  1.0000
  H   H1392     1.0  0.63811  0.55673  0.34816  1.0000
  H   H1393     1.0  0.65029  0.56604  0.36615  1.0000
  H   H1394     1.0  0.63077  0.63417  0.34883  1.0000
  N   N113      1.0  0.77494  0.51398  0.33024  1.0000
  C   C1390     1.0  0.78064  0.53215  0.33183  1.0000
  C   C1391     1.0  0.78906  0.49840  0.32509  1.0000
  C   C1392     1.0  0.80099  0.53496  0.32855  1.0000
  C   C1393     1.0  0.80953  0.50067  0.32176  1.0000
  C   C1394     1.0  0.81549  0.51908  0.32353  1.0000
  C   C1395     1.0  0.75354  0.51137  0.33336  1.0000
  H   H1395     1.0  0.76949  0.54438  0.33632  1.0000
  H   H1396     1.0  0.78461  0.48390  0.32411  1.0000
  H   H1397     1.0  0.80549  0.54921  0.33040  1.0000
  H   H1398     1.0  0.82074  0.48803  0.31851  1.0000
  H   H1399     1.0  0.83137  0.52087  0.32146  1.0000
  H   H1400     1.0  0.74728  0.51442  0.31887  1.0000
  H   H1401     1.0  0.75129  0.49591  0.34032  1.0000
  H   H1402     1.0  0.74479  0.52165  0.34377  1.0000
  N   N114      1.0  0.64562  0.46377  0.23396  1.0000
  H   H1403     1.0  0.74234  0.40763  0.45579  1.0000
  H   H1404     1.0  0.73251  0.47063  0.41771  1.0000
  C   C1396     1.0  0.96078  0.48821  0.37221  1.0000
  H   H1405     1.0  0.63587  0.44166  0.25708  1.0000
  C   C1397     1.0  0.64775  0.46086  0.39421  1.0000
  H   H1406     1.0  0.88236  0.41000  0.43908  1.0000
  C   C1398     1.0  0.59083  0.33412  0.37952  1.0000
  H   H1407     1.0  0.57308  0.60920  0.43475  1.0000
  S   S471      1.0  0.97664  0.60938  0.34377  1.0000
  H   H1408     1.0  0.97918  0.50807  0.38066  1.0000
  C   C1399     1.0  0.50511  0.46604  0.29065  1.0000
  H   H1409     1.0  0.66042  0.41676  0.37466  1.0000
  H   H1410     1.0  0.88029  0.44053  0.41446  1.0000
  H   H1411     1.0  0.66247  0.43855  0.24949  1.0000
  C   C1400     1.0  0.52153  0.63383  0.35235  1.0000
  C   C1401     1.0  0.49979  0.61611  0.33767  1.0000
  H   H1412     1.0  0.62569  0.41759  0.23557  1.0000
  C   C1402     1.0  0.98062  0.58610  0.27915  1.0000
  H   H1413     1.0  0.85018  0.37972  0.45370  1.0000
  N   N115      1.0  0.86160  0.39616  0.42650  1.0000
  H   H1414     1.0  0.73577  0.48829  0.43362  1.0000
  S   S472      1.0  0.50598  0.52894  0.28225  1.0000
  H   H1415     1.0  0.75763  0.47538  0.42014  1.0000
  H   H1416     1.0  0.96401  0.58989  0.28109  1.0000
  H   H1417     1.0  0.57164  0.34057  0.35603  1.0000
  N   N116      1.0  0.63157  0.46111  0.36497  1.0000
  C   C1403     1.0  0.64022  0.44185  0.36317  1.0000
  C   C1404     1.0  0.61786  0.47146  0.35091  1.0000
  C   C1405     1.0  0.64910  0.44988  0.25206  1.0000
  H   H1418     1.0  0.89621  0.45714  0.23892  1.0000
  C   C1406     1.0  0.52400  0.51524  0.29671  1.0000
  Fe  Fe231     1.0  0.97768  0.58493  0.36978  1.0000
  C   C1407     1.0  0.85856  0.43064  0.39913  1.0000
  H   H1419     1.0  0.85748  0.44400  0.38834  1.0000
  C   C1408     1.0  0.57764  0.65040  0.45596  1.0000
  C   C1409     1.0  0.74252  0.43838  0.44212  1.0000
  S   S473      1.0  0.61701  0.32594  0.40852  1.0000
  C   C1410     1.0  0.69244  0.43230  0.45291  1.0000
  C   C1411     1.0  0.95211  0.48295  0.35662  1.0000
  H   H1420     1.0  0.51013  0.60960  0.30752  1.0000
  C   C1412     1.0  0.97292  0.50370  0.36836  1.0000
  H   H1421     1.0  0.53822  0.49859  0.27261  1.0000
  C   C1413     1.0  0.74673  0.46194  0.46337  1.0000
  C   C1414     1.0  0.64223  0.37087  0.45699  1.0000
  H   H1422     1.0  0.63756  0.43427  0.35102  1.0000
  S   S474      1.0  0.56387  0.63816  0.38565  1.0000
  H   H1423     1.0  0.83766  0.41661  0.38656  1.0000
  C   C1415     1.0  0.74684  0.42708  0.47668  1.0000
  H   H1424     1.0  0.73974  0.43505  0.42771  1.0000
  C   C1416     1.0  0.74241  0.47375  0.42829  1.0000
  H   H1425     1.0  0.52441  0.64077  0.36482  1.0000
  C   C1417     1.0  0.65320  0.43181  0.37656  1.0000
  H   H1426     1.0  0.61955  0.47982  0.24865  1.0000
  C   C1418     1.0  0.56967  0.62079  0.44461  1.0000
  H   H1427     1.0  0.59478  0.63733  0.34389  1.0000
  C   C1419     1.0  0.66578  0.32488  0.46961  1.0000
  Fe  Fe232     1.0  0.98404  0.62954  0.36475  1.0000
  H   H1428     1.0  0.65063  0.46839  0.40636  1.0000
  H   H1429     1.0  0.65455  0.37897  0.44982  1.0000
  C   C1420     1.0  0.51338  0.61617  0.32007  1.0000
  C   C1421     1.0  0.86437  0.42609  0.24176  1.0000
  H   H1430     1.0  0.87714  0.37570  0.44771  1.0000
  H   H1431     1.0  0.63516  0.36258  0.42952  1.0000
  C   C1422     1.0  0.69681  0.46141  0.47655  1.0000
  S   S475      1.0  0.98198  0.60594  0.39127  1.0000
  C   C1423     1.0  0.90530  0.44341  0.24395  1.0000
  N   N117      1.0  0.98845  0.58824  0.25779  1.0000
  C   C1424     1.0  0.86270  0.37822  0.44127  1.0000
  N   N118      1.0  0.74369  0.45767  0.44506  1.0000
  H   H1432     1.0  0.61988  0.46434  0.33690  1.0000
  C   C1425     1.0  0.96796  0.50852  0.33407  1.0000
  S   S476      1.0  0.61855  0.64592  0.39363  1.0000
  N   N119      1.0  0.49122  0.48456  0.31813  1.0000
  H   H1433     1.0  0.60198  0.47115  0.35782  1.0000
  H   H1434     1.0  0.60800  0.34322  0.44657  1.0000
  C   C1426     1.0  0.69474  0.42682  0.47322  1.0000
  H   H1435     1.0  0.88184  0.40120  0.25684  1.0000
  N   N120      1.0  0.97627  0.51369  0.34948  1.0000
  C   C1427     1.0  0.61215  0.34869  0.47620  1.0000
  C   C1428     1.0  0.51805  0.45380  0.30278  1.0000
  H   H1436     1.0  0.59614  0.63501  0.43288  1.0000
  S   S477      1.0  0.55415  0.64985  0.33129  1.0000
  C   C1429     1.0  0.98813  0.57297  0.24676  1.0000
  Fe  Fe233     1.0  0.90098  0.33023  0.45049  1.0000
  S   S478      1.0  0.68940  0.35091  0.47826  1.0000
  C   C1430     1.0  0.95569  0.49317  0.33741  1.0000
  C   C1431     1.0  0.61627  0.35058  0.45529  1.0000
  H   H1437     1.0  0.98318  0.54227  0.33507  1.0000
  H   H1438     1.0  0.95776  0.48061  0.38726  1.0000
  H   H1439     1.0  0.49373  0.62440  0.36758  1.0000
  C   C1432     1.0  0.63755  0.36889  0.47785  1.0000
  H   H1440     1.0  0.65145  0.45818  0.26431  1.0000
  C   C1433     1.0  0.58254  0.63528  0.44354  1.0000
  H   H1441     1.0  0.90385  0.37652  0.23950  1.0000
  S   S479      1.0  0.90082  0.34744  0.47631  1.0000
  C   C1434     1.0  0.50368  0.47245  0.33021  1.0000
  H   H1442     1.0  0.98718  0.59608  0.28740  1.0000
  H   H1443     1.0  0.58327  0.32172  0.38723  1.0000
  H   H1444     1.0  0.98319  0.55889  0.25388  1.0000
  H   H1445     1.0  0.50360  0.47512  0.34557  1.0000
  C   C1435     1.0  0.98941  0.52955  0.34549  1.0000
  H   H1446     1.0  0.98460  0.57053  0.28622  1.0000
  C   C1436     1.0  0.55992  0.65072  0.46942  1.0000
  H   H1447     1.0  0.51794  0.62858  0.48093  1.0000
  Fe  Fe234     1.0  0.58387  0.38077  0.66624  1.0000
  S   S480      1.0  0.55587  0.39229  0.65208  1.0000
  S   S481      1.0  0.61265  0.39274  0.65092  1.0000
  Fe  Fe235     1.0  0.56084  0.35500  0.70079  1.0000
  S   S482      1.0  0.53152  0.36405  0.68831  1.0000
  Fe  Fe236     1.0  0.54963  0.36035  0.65849  1.0000
  C   C1437     1.0  0.72340  0.36332  0.60011  1.0000
  Fe  Fe237     1.0  0.54073  0.39497  0.68329  1.0000
  H   H1448     1.0  0.83001  0.32358  0.52037  1.0000
  S   S483      1.0  0.57843  0.34859  0.67100  1.0000
  S   S484      1.0  0.56923  0.38622  0.69738  1.0000
  Fe  Fe238     1.0  0.69698  0.36311  0.50486  1.0000
  S   S485      1.0  0.67536  0.38617  0.51989  1.0000
  H   H1449     1.0  0.63168  0.35682  0.51628  1.0000
  Fe  Fe239     1.0  0.72897  0.36266  0.53218  1.0000
  S   S486      1.0  0.70983  0.38569  0.55002  1.0000
  S   S487      1.0  0.75823  0.34463  0.54033  1.0000
  Fe  Fe240     1.0  0.68376  0.36889  0.54883  1.0000
  S   S488      1.0  0.65981  0.35707  0.57294  1.0000
  Fe  Fe241     1.0  0.70284  0.40114  0.51967  1.0000
  S   S489      1.0  0.70249  0.43429  0.50987  1.0000
  S   S490      1.0  0.70351  0.34453  0.53349  1.0000
  S   S491      1.0  0.72392  0.37942  0.50214  1.0000
  C   C1438     1.0  0.69080  0.35297  0.61226  1.0000
  C   C1439     1.0  0.50645  0.43671  0.65856  1.0000
  C   C1440     1.0  0.93125  0.33049  0.54164  1.0000
  C   C1441     1.0  0.49460  0.45098  0.64668  1.0000
  C   C1442     1.0  0.82090  0.35324  0.50630  1.0000
  N   N121      1.0  0.62292  0.35761  0.48720  1.0000
  S   S492      1.0  0.54284  0.34614  0.63285  1.0000
  C   C1443     1.0  0.61823  0.35565  0.50907  1.0000
  C   C1444     1.0  0.72783  0.34697  0.58912  1.0000
  H   H1450     1.0  0.68437  0.32709  0.60082  1.0000
  H   H1451     1.0  0.52789  0.46161  0.69755  1.0000
  N   N122      1.0  0.54735  0.45859  0.67030  1.0000
  S   S493      1.0  0.56067  0.33162  0.72829  1.0000
  C   C1445     1.0  0.70470  0.36637  0.61167  1.0000
  C   C1446     1.0  0.96155  0.37845  0.54830  1.0000
  C   C1447     1.0  0.67297  0.33264  0.48479  1.0000
  H   H1452     1.0  0.69861  0.47269  0.48568  1.0000
  H   H1453     1.0  0.51080  0.33951  0.66589  1.0000
  C   C1448     1.0  0.56180  0.44508  0.67857  1.0000
  H   H1454     1.0  0.60070  0.33956  0.48359  1.0000
  C   C1449     1.0  0.96565  0.38448  0.70191  1.0000
  H   H1455     1.0  0.53950  0.48367  0.68646  1.0000
  H   H1456     1.0  0.97232  0.37995  0.58427  1.0000
  C   C1450     1.0  0.97358  0.36147  0.51919  1.0000
  C   C1451     1.0  0.80459  0.36838  0.50400  1.0000
  C   C1452     1.0  0.78197  0.34793  0.52626  1.0000
  C   C1453     1.0  0.78517  0.36567  0.51374  1.0000
  H   H1457     1.0  0.51909  0.35619  0.56953  1.0000
  S   S494      1.0  0.51958  0.42076  0.69475  1.0000
  H   H1458     1.0  0.74245  0.34464  0.58029  1.0000
  C   C1454     1.0  0.56171  0.45085  0.63741  1.0000
  H   H1459     1.0  0.77282  0.37751  0.51204  1.0000
  C   C1455     1.0  0.57662  0.43720  0.64571  1.0000
  N   N123      1.0  0.71382  0.33430  0.58925  1.0000
  H   H1460     1.0  0.58801  0.42870  0.63617  1.0000
  H   H1461     1.0  0.95831  0.39893  0.69618  1.0000
  C   C1456     1.0  0.50345  0.43631  0.67940  1.0000
  H   H1462     1.0  0.58810  0.42348  0.67298  1.0000
  H   H1463     1.0  0.67091  0.33313  0.51663  1.0000
  H   H1464     1.0  0.49710  0.45155  0.63054  1.0000
  C   C1457     1.0  0.50596  0.38570  0.62815  1.0000
  C   C1458     1.0  0.50863  0.35939  0.58271  1.0000
  C   C1459     1.0  0.79825  0.33275  0.52849  1.0000
  H   H1465     1.0  0.92128  0.34439  0.56862  1.0000
  H   H1466     1.0  0.73437  0.37363  0.59946  1.0000
  C   C1460     1.0  0.69559  0.33698  0.60082  1.0000
  C   C1461     1.0  0.97610  0.36118  0.72985  1.0000
  C   C1462     1.0  0.98412  0.38358  0.57160  1.0000
  C   C1463     1.0  0.53273  0.47074  0.68321  1.0000
  H   H1467     1.0  0.56171  0.44241  0.69469  1.0000
  C   C1464     1.0  0.95250  0.33196  0.56751  1.0000
  H   H1468     1.0  0.97257  0.37403  0.67276  1.0000
  H   H1469     1.0  0.51889  0.47641  0.67609  1.0000
  H   H1470     1.0  0.61347  0.34070  0.51499  1.0000
  S   S495      1.0  0.84524  0.35794  0.49469  1.0000
  H   H1471     1.0  0.52836  0.37569  0.59424  1.0000
  H   H1472     1.0  0.56144  0.45307  0.62133  1.0000
  H   H1473     1.0  0.91687  0.33421  0.53600  1.0000
  H   H1474     1.0  0.51820  0.42643  0.65163  1.0000
  C   C1465     1.0  0.93380  0.33625  0.56014  1.0000
  H   H1475     1.0  0.70091  0.37913  0.62007  1.0000
  C   C1466     1.0  0.62500  0.38350  0.62857  1.0000
  C   C1467     1.0  0.61983  0.36637  0.62237  1.0000
  C   C1468     1.0  0.63043  0.35879  0.60509  1.0000
  C   C1469     1.0  0.64605  0.36840  0.59357  1.0000
  C   C1470     1.0  0.65095  0.38583  0.59947  1.0000
  C   C1471     1.0  0.64059  0.39321  0.61702  1.0000
  H   H1476     1.0  0.60789  0.35874  0.63108  1.0000
  H   H1477     1.0  0.62655  0.34529  0.60069  1.0000
  H   H1478     1.0  0.66297  0.39336  0.59075  1.0000
  H   H1479     1.0  0.64468  0.40649  0.62168  1.0000
  C   C1472     1.0  0.50878  0.33166  0.65372  1.0000
  C   C1473     1.0  0.97378  0.37040  0.68857  1.0000
  C   C1474     1.0  0.95780  0.37149  0.53097  1.0000
  H   H1480     1.0  0.53560  0.47217  0.64344  1.0000
  H   H1481     1.0  0.94907  0.38556  0.55779  1.0000
  C   C1475     1.0  0.66564  0.32704  0.50482  1.0000
  H   H1482     1.0  0.80705  0.38236  0.49481  1.0000
  C   C1476     1.0  0.96672  0.37997  0.72261  1.0000
  N   N124      1.0  0.50073  0.37390  0.61362  1.0000
  C   C1477     1.0  0.57667  0.43426  0.66641  1.0000
  C   C1478     1.0  0.54717  0.46159  0.64999  1.0000
  C   C1479     1.0  0.81758  0.33528  0.51837  1.0000
  C   C1480     1.0  0.51372  0.37044  0.59670  1.0000
  H   H1483     1.0  0.74961  0.45025  0.49426  1.0000
  H   H1484     1.0  0.94260  0.37312  0.52713  1.0000
  H   H1485     1.0  0.52197  0.38844  0.62502  1.0000
  C   C1481     1.0  0.96855  0.32134  0.55645  1.0000
  H   H1486     1.0  0.97066  0.35532  0.50615  1.0000
  S   S496      1.0  0.95546  0.34150  0.58973  1.0000
  H   H1487     1.0  0.64636  0.37570  0.48654  1.0000
  H   H1488     1.0  0.67614  0.35524  0.62109  1.0000
  Fe  Fe242     1.0  0.98399  0.33624  0.60475  1.0000
  H   H1489     1.0  0.60605  0.36755  0.51353  1.0000
  Fe  Fe243     1.0  0.87211  0.33433  0.48879  1.0000
  H   H1490     1.0  0.53385  0.62843  0.50010  1.0000
  C   C1482     1.0  0.69726  0.44131  0.48503  1.0000
  C   C1483     1.0  0.52241  0.33243  0.63615  1.0000
  N   N125      1.0  0.98054  0.37559  0.55369  1.0000
  C   C1484     1.0  0.98430  0.34712  0.71651  1.0000
  H   H1491     1.0  0.74726  0.41532  0.48926  1.0000
  H   H1492     1.0  0.50401  0.37742  0.64349  1.0000
  C   C1485     1.0  0.94742  0.32035  0.53033  1.0000
  C   C1486     1.0  0.51969  0.32227  0.62048  1.0000
  H   H1493     1.0  0.49630  0.40038  0.62788  1.0000
  C   C1487     1.0  0.52963  0.63624  0.48556  1.0000
  C   C1488     1.0  0.49261  0.32039  0.65560  1.0000
  H   H1494     1.0  0.98393  0.40008  0.56855  1.0000
  C   C1489     1.0  0.98324  0.35164  0.69581  1.0000
  H   H1495     1.0  0.53015  0.32291  0.60682  1.0000
  H   H1496     1.0  0.73030  0.32004  0.56471  1.0000
  H   H1497     1.0  0.52258  0.65175  0.48761  1.0000
  Fe  Fe244     1.0  0.81476  0.37124  0.97001  1.0000
  C   C1490     1.0  0.56553  0.32514  0.91926  1.0000
  S   S497      1.0  0.59264  0.36046  0.95953  1.0000
  C   C1491     1.0  0.57392  0.34977  0.86593  1.0000
  C   C1492     1.0  0.59179  0.32757  0.93974  1.0000
  H   H1498     1.0  0.87635  0.36124  0.86177  1.0000
  H   H1499     1.0  0.73895  0.32938  0.96216  1.0000
  C   C1493     1.0  0.87870  0.35979  0.89308  1.0000
  Fe  Fe245     1.0  0.51767  0.33637  0.84442  1.0000
  S   S498      1.0  0.52768  0.35565  0.81551  1.0000
  H   H1500     1.0  0.87803  0.45530  0.86592  1.0000
  Fe  Fe246     1.0  0.82878  0.40178  0.93577  1.0000
  H   H1501     1.0  0.93113  0.46382  0.80847  1.0000
  S   S499      1.0  0.85866  0.40686  0.91642  1.0000
  Fe  Fe247     1.0  0.78387  0.39662  0.94635  1.0000
  C   C1494     1.0  0.85995  0.34284  0.97131  1.0000
  S   S500      1.0  0.75201  0.39897  0.93849  1.0000
  H   H1502     1.0  0.68700  0.37243  0.95351  1.0000
  C   C1495     1.0  0.57214  0.35921  0.82520  1.0000
  S   S501      1.0  0.95640  0.39849  0.73856  1.0000
  H   H1503     1.0  0.90296  0.36438  0.83586  1.0000
  S   S502      1.0  0.80075  0.42370  0.94191  1.0000
  S   S503      1.0  0.81152  0.37541  0.93729  1.0000
  Fe  Fe248     1.0  0.95394  0.39804  0.77254  1.0000
  S   S504      1.0  0.98022  0.39916  0.78915  1.0000
  H   H1504     1.0  0.92417  0.37405  0.84184  1.0000
  Fe  Fe249     1.0  0.92272  0.40728  0.80971  1.0000
  S   S505      1.0  0.94675  0.41018  0.82798  1.0000
  S   S506      1.0  0.88966  0.40965  0.82295  1.0000
  Fe  Fe250     1.0  0.96212  0.42660  0.80043  1.0000
  C   C1496     1.0  0.88530  0.45691  0.83388  1.0000
  Fe  Fe251     1.0  0.96224  0.38247  0.81517  1.0000
  S   S507      1.0  0.96970  0.35813  0.83989  1.0000
  S   S508      1.0  0.93650  0.42639  0.78294  1.0000
  S   S509      1.0  0.93756  0.37890  0.79771  1.0000
  H   H1505     1.0  0.56732  0.39012  0.83078  1.0000
  C   C1497     1.0  0.90882  0.46077  0.85608  1.0000
  N   N126      1.0  0.90679  0.36037  0.86706  1.0000
  H   H1506     1.0  0.76111  0.35615  0.95169  1.0000
  C   C1498     1.0  0.91962  0.35966  0.88100  1.0000
  C   C1499     1.0  0.86658  0.40796  0.89029  1.0000
  C   C1500     1.0  0.85343  0.40721  0.87643  1.0000
  C   C1501     1.0  0.86071  0.40774  0.85585  1.0000
  C   C1502     1.0  0.88120  0.40872  0.84898  1.0000
  C   C1503     1.0  0.89434  0.40935  0.86288  1.0000
  C   C1504     1.0  0.88702  0.40915  0.88337  1.0000
  H   H1507     1.0  0.83766  0.40630  0.88153  1.0000
  H   H1508     1.0  0.85039  0.40733  0.84521  1.0000
  H   H1509     1.0  0.91010  0.41019  0.85787  1.0000
  H   H1510     1.0  0.89732  0.40967  0.89399  1.0000
  S   S510      1.0  0.83369  0.39595  0.96841  1.0000
  S   S511      1.0  0.97315  0.45677  0.79887  1.0000
  C   C1505     1.0  0.57605  0.32358  0.82071  1.0000
  H   H1511     1.0  0.93565  0.35974  0.87629  1.0000
  H   H1512     1.0  0.86259  0.36057  0.89759  1.0000
  S   S512      1.0  0.69611  0.32947  0.96614  1.0000
  C   C1506     1.0  0.90038  0.45909  0.81773  1.0000
  C   C1507     1.0  0.70310  0.36882  0.95326  1.0000
  H   H1513     1.0  0.87065  0.45367  0.83150  1.0000
  H   H1514     1.0  0.54971  0.37021  0.74365  1.0000
  C   C1508     1.0  0.57107  0.36982  0.85776  1.0000
  C   C1509     1.0  0.74498  0.35976  0.95211  1.0000
  C   C1510     1.0  0.73673  0.37946  0.94629  1.0000
  C   C1511     1.0  0.71574  0.38387  0.94681  1.0000
  H   H1515     1.0  0.58029  0.32893  0.80463  1.0000
  H   H1516     1.0  0.89745  0.45764  0.80275  1.0000
  C   C1512     1.0  0.88066  0.33666  0.97049  1.0000
  C   C1513     1.0  0.54658  0.32341  0.76832  1.0000
  H   H1517     1.0  0.85448  0.35612  0.96193  1.0000
  C   C1514     1.0  0.58282  0.34671  0.94370  1.0000
  C   C1515     1.0  0.56523  0.35502  0.93529  1.0000
  C   C1516     1.0  0.55657  0.34429  0.92317  1.0000
  S   S513      1.0  0.64449  0.36535  0.98003  1.0000
  C   C1517     1.0  0.88949  0.45775  0.85320  1.0000
  H   H1518     1.0  0.89114  0.34530  0.96062  1.0000
  H   H1519     1.0  0.55817  0.36981  0.93830  1.0000
  H   H1520     1.0  0.54295  0.35082  0.91692  1.0000
  H   H1521     1.0  0.70924  0.39902  0.94223  1.0000
  C   C1518     1.0  0.55053  0.33844  0.75230  1.0000
  C   C1519     1.0  0.54678  0.35850  0.75582  1.0000
  C   C1520     1.0  0.53954  0.36343  0.77522  1.0000
  C   C1521     1.0  0.53561  0.34845  0.79124  1.0000
  H   H1522     1.0  0.92234  0.35913  0.91237  1.0000
  H   H1523     1.0  0.97700  0.35748  0.74572  1.0000
  S   S514      1.0  0.51627  0.35039  0.87288  1.0000
  H   H1524     1.0  0.53695  0.37900  0.77780  1.0000
  H   H1525     1.0  0.56936  0.38157  0.86737  1.0000
  C   C1522     1.0  0.89159  0.35949  0.90737  1.0000
  N   N127      1.0  0.92343  0.46329  0.84009  1.0000
  H   H1526     1.0  0.88549  0.35988  0.92301  1.0000
  Fe  Fe252     1.0  0.80473  0.41584  0.97443  1.0000
  C   C1523     1.0  0.94378  0.46595  0.84328  1.0000
  C   C1524     1.0  0.53893  0.32838  0.78766  1.0000
  Fe  Fe253     1.0  0.61859  0.34838  0.97756  1.0000
  H   H1527     1.0  0.95391  0.45163  0.84218  1.0000
  H   H1528     1.0  0.94995  0.47752  0.83168  1.0000
  H   H1529     1.0  0.94408  0.47088  0.85810  1.0000
  C   C1525     1.0  0.91945  0.46234  0.82111  1.0000
  C   C1526     1.0  0.71138  0.34907  0.95875  1.0000
  H   H1530     1.0  0.60534  0.32100  0.94604  1.0000
  C   C1527     1.0  0.91222  0.35927  0.90136  1.0000
  H   H1531     1.0  0.92472  0.34738  0.84272  1.0000
  C   C1528     1.0  0.91496  0.36148  0.84584  1.0000
  C   C1529     1.0  0.88659  0.36024  0.87285  1.0000
  H   H1532     1.0  0.81206  0.50721  0.96461  1.0000
  H   H1533     1.0  0.91208  0.46085  0.87121  1.0000
  C   C1530     1.0  0.57007  0.37462  0.83727  1.0000
  C   C1531     1.0  0.73238  0.34462  0.95806  1.0000
  Fe  Fe254     1.0  0.52854  0.31976  0.88650  1.0000
  N   N128      1.0  0.57494  0.33957  0.83336  1.0000
  H   H1534     1.0  0.57070  0.36306  0.80938  1.0000
  C   C1532     1.0  0.57557  0.33473  0.85351  1.0000
  Fe  Fe255     1.0  0.66320  0.33539  0.97892  1.0000
  H   H1535     1.0  0.57455  0.34587  0.88185  1.0000
  C   C1533     1.0  0.81375  0.49548  0.97758  1.0000
  S   S515      1.0  0.78621  0.39038  0.97909  1.0000
  H   H1536     1.0  0.81315  0.48060  0.97281  1.0000
  H   H1537     1.0  0.55554  0.32067  0.96620  1.0000
  H   H1538     1.0  0.82889  0.49498  0.98230  1.0000
  Fe  Fe256     1.0  0.87818  0.94364  0.13398  1.0000
  S   S516      1.0  0.84824  0.95170  0.15208  1.0000
  S   S517      1.0  0.89216  0.91166  0.14199  1.0000
  Fe  Fe257     1.0  0.83821  0.96661  0.12284  1.0000
  H   H1539     1.0  0.51421  0.74243  0.11265  1.0000
  H   H1540     1.0  0.71503  0.97476  0.14779  1.0000
  S   S518      1.0  0.86755  0.95679  0.10460  1.0000
  S   S519      1.0  0.97649  0.87271  0.10137  1.0000
  C   C1534     1.0  0.97574  0.72423  0.11106  1.0000
  H   H1541     1.0  0.71571  0.89557  0.01305  1.0000
  C   C1535     1.0  0.51374  0.97043  0.11960  1.0000
  Fe  Fe258     1.0  0.86058  0.98024  0.15468  1.0000
  H   H1542     1.0  0.88128  0.89214  0.11147  1.0000
  C   C1536     1.0  0.96981  0.76632  0.10667  1.0000
  H   H1543     1.0  0.94826  0.85805  0.13493  1.0000
  Fe  Fe259     1.0  0.95666  0.68868  0.07945  1.0000
  C   C1537     1.0  0.93656  0.92111  0.16015  1.0000
  S   S520      1.0  0.94869  0.72155  0.08470  1.0000
  H   H1544     1.0  0.70449  0.92011  0.12885  1.0000
  N   N129      1.0  0.49917  0.73371  0.06972  1.0000
  H   H1545     1.0  0.67625  0.92082  0.01132  1.0000
  C   C1538     1.0  0.98542  0.73495  0.12233  1.0000
  S   S521      1.0  0.94055  0.67608  0.05811  1.0000
  Fe  Fe260     1.0  0.57935  0.80886  0.05507  1.0000
  S   S522      1.0  0.55131  0.81707  0.03968  1.0000
  S   S523      1.0  0.59726  0.83577  0.05161  1.0000
  Fe  Fe261     1.0  0.56683  0.76740  0.07238  1.0000
  S   S524      1.0  0.53840  0.77296  0.05851  1.0000
  S   S525      1.0  0.57022  0.73868  0.09380  1.0000
  Fe  Fe262     1.0  0.55676  0.78594  0.03117  1.0000
  C   C1539     1.0  0.69900  0.93333  0.13623  1.0000
  Fe  Fe263     1.0  0.53503  0.80347  0.06812  1.0000
  S   S526      1.0  0.50389  0.81653  0.07999  1.0000
  S   S527      1.0  0.58623  0.77829  0.04406  1.0000
  S   S528      1.0  0.56216  0.79727  0.08440  1.0000
  Fe  Fe264     1.0  0.71854  0.91065  0.08816  1.0000
  S   S529      1.0  0.70199  0.93968  0.07543  1.0000
  S   S530      1.0  0.74333  0.90807  0.10840  1.0000
  Fe  Fe265     1.0  0.69087  0.88509  0.07175  1.0000
  S   S531      1.0  0.67359  0.91234  0.05709  1.0000
  S   S532      1.0  0.68146  0.85398  0.07245  1.0000
  Fe  Fe266     1.0  0.70333  0.92408  0.04807  1.0000
  S   S533      1.0  0.71416  0.93679  0.01646  1.0000
  Fe  Fe267     1.0  0.67389  0.92495  0.08574  1.0000
  S   S534      1.0  0.64369  0.93431  0.10237  1.0000
  S   S535      1.0  0.72114  0.89549  0.06031  1.0000
  S   S536      1.0  0.69009  0.89724  0.10084  1.0000
  N   N130      1.0  0.85343  0.90926  0.10509  1.0000
  C   C1540     1.0  0.70249  0.96020  0.00644  1.0000
  H   H1546     1.0  0.69463  0.91739  0.98981  1.0000
  H   H1547     1.0  0.57340  0.86120  0.08941  1.0000
  N   N131      1.0  0.96483  0.89532  0.15915  1.0000
  C   C1541     1.0  0.62121  0.84004  0.05675  1.0000
  C   C1542     1.0  0.62618  0.85976  0.05320  1.0000
  C   C1543     1.0  0.64444  0.86428  0.05804  1.0000
  C   C1544     1.0  0.65815  0.84905  0.06627  1.0000
  C   C1545     1.0  0.65335  0.82927  0.06952  1.0000
  C   C1546     1.0  0.63495  0.82478  0.06491  1.0000
  H   H1548     1.0  0.61564  0.87169  0.04698  1.0000
  H   H1549     1.0  0.64787  0.87954  0.05537  1.0000
  H   H1550     1.0  0.66386  0.81733  0.07580  1.0000
  H   H1551     1.0  0.63137  0.80954  0.06773  1.0000
  C   C1547     1.0  0.87335  0.91993  0.06720  1.0000
  H   H1552     1.0  0.51979  0.87416  0.17387  1.0000
  C   C1548     1.0  0.95588  0.88472  0.17584  1.0000
  H   H1553     1.0  0.92210  0.70453  0.11705  1.0000
  H   H1554     1.0  0.51786  0.84479  0.15580  1.0000
  H   H1555     1.0  0.91535  0.87361  0.15033  1.0000
  H   H1556     1.0  0.82759  0.92722  0.09474  1.0000
  H   H1557     1.0  0.52694  0.85469  0.19364  1.0000
  C   C1549     1.0  0.50422  0.83608  0.09416  1.0000
  C   C1550     1.0  0.52246  0.84172  0.09726  1.0000
  C   C1551     1.0  0.52256  0.85684  0.10927  1.0000
  S   S537      1.0  0.98242  0.82777  0.14544  1.0000
  H   H1558     1.0  0.53649  0.83443  0.09044  1.0000
  H   H1559     1.0  0.53670  0.86098  0.11187  1.0000
  C   C1552     1.0  0.50444  0.86650  0.11798  1.0000
  C   C1553     1.0  0.62474  0.96121  0.12712  1.0000
  C   C1554     1.0  0.64158  0.95650  0.11329  1.0000
  H   H1560     1.0  0.92880  0.93499  0.15347  1.0000
  C   C1555     1.0  0.71208  0.94702  0.13753  1.0000
  H   H1561     1.0  0.61312  0.95142  0.13063  1.0000
  H   H1562     1.0  0.63942  0.88878  0.11994  1.0000
  H   H1563     1.0  0.65825  0.88171  0.00508  1.0000
  H   H1564     1.0  0.63091  0.84331  0.11000  1.0000
  C   C1556     1.0  0.50070  0.71776  0.05693  1.0000
  C   C1557     1.0  0.54382  0.68401  0.08053  1.0000
  C   C1558     1.0  0.54694  0.68576  0.10007  1.0000
  C   C1559     1.0  0.55530  0.70245  0.10395  1.0000
  C   C1560     1.0  0.56016  0.71768  0.08846  1.0000
  C   C1561     1.0  0.55696  0.71590  0.06897  1.0000
  C   C1562     1.0  0.54915  0.69899  0.06500  1.0000
  H   H1565     1.0  0.55783  0.70367  0.11906  1.0000
  H   H1566     1.0  0.56087  0.72739  0.05688  1.0000
  H   H1567     1.0  0.54708  0.69761  0.04980  1.0000
  C   C1563     1.0  0.88352  0.90726  0.08151  1.0000
  H   H1568     1.0  0.50696  0.87470  0.19870  1.0000
  C   C1564     1.0  0.95976  0.75558  0.09572  1.0000
  C   C1565     1.0  0.96261  0.73447  0.09787  1.0000
  C   C1566     1.0  0.58701  0.86512  0.09373  1.0000
  C   C1567     1.0  0.84296  0.90448  0.12526  1.0000
  C   C1568     1.0  0.88868  0.67364  0.08056  1.0000
  H   H1569     1.0  0.94960  0.76367  0.08561  1.0000
  C   C1569     1.0  0.84325  0.92137  0.09104  1.0000
  C   C1570     1.0  0.60147  0.85007  0.10078  1.0000
  C   C1571     1.0  0.79128  0.95008  0.10886  1.0000
  C   C1572     1.0  0.77739  0.95457  0.09485  1.0000
  C   C1573     1.0  0.76274  0.94186  0.09438  1.0000
  C   C1574     1.0  0.76179  0.92443  0.10797  1.0000
  C   C1575     1.0  0.77560  0.91999  0.12208  1.0000
  C   C1576     1.0  0.79024  0.93271  0.12256  1.0000
  H   H1570     1.0  0.89658  0.66284  0.10993  1.0000
  H   H1571     1.0  0.75221  0.94557  0.08348  1.0000
  H   H1572     1.0  0.77486  0.90666  0.13282  1.0000
  H   H1573     1.0  0.80045  0.92924  0.13373  1.0000
  C   C1577     1.0  0.91526  0.90096  0.12994  1.0000
  C   C1578     1.0  0.92576  0.91126  0.11336  1.0000
  C   C1579     1.0  0.94440  0.90232  0.10456  1.0000
  C   C1580     1.0  0.95276  0.88317  0.11241  1.0000
  C   C1581     1.0  0.94215  0.87288  0.12891  1.0000
  C   C1582     1.0  0.92343  0.88170  0.13755  1.0000
  H   H1574     1.0  0.91958  0.92612  0.10736  1.0000
  H   H1575     1.0  0.95251  0.91034  0.09174  1.0000
  C   C1583     1.0  0.85304  0.92694  0.07192  1.0000
  H   H1576     1.0  0.77798  0.96797  0.08421  1.0000
  C   C1584     1.0  0.71171  0.97016  0.98874  1.0000
  H   H1577     1.0  0.98965  0.89625  0.13556  1.0000
  H   H1578     1.0  0.49823  0.77679  0.10148  1.0000
  H   H1579     1.0  0.72772  0.94447  0.13106  1.0000
  C   C1585     1.0  0.90134  0.70916  0.08636  1.0000
  C   C1586     1.0  0.93686  0.89198  0.18497  1.0000
  C   C1587     1.0  0.51887  0.77040  0.98362  1.0000
  S   S538      1.0  0.54999  0.77911  0.00140  1.0000
  C   C1588     1.0  0.51047  0.83182  0.99629  1.0000
  S   S539      1.0  0.80963  0.96660  0.10833  1.0000
  C   C1589     1.0  0.71027  0.86519  0.02290  1.0000
  H   H1580     1.0  0.96232  0.92142  0.13771  1.0000
  N   N132      1.0  0.68675  0.89050  0.00751  1.0000
  H   H1581     1.0  0.96333  0.87035  0.18190  1.0000
  H   H1582     1.0  0.51358  0.78962  0.02787  1.0000
  H   H1583     1.0  0.49697  0.93746  0.16213  1.0000
  C   C1590     1.0  0.50725  0.72997  0.08738  1.0000
  S   S540      1.0  0.53277  0.66385  0.07471  1.0000
  H   H1584     1.0  0.89728  0.70172  0.13019  1.0000
  H   H1585     1.0  0.66960  0.96564  0.09815  1.0000
  H   H1586     1.0  0.59915  0.83445  0.10181  1.0000
  H   H1587     1.0  0.83671  0.91855  0.13170  1.0000
  C   C1591     1.0  0.87321  0.90191  0.10043  1.0000
  C   C1592     1.0  0.61944  0.85519  0.10528  1.0000
  H   H1588     1.0  0.89936  0.90183  0.07813  1.0000
  H   H1589     1.0  0.92956  0.88331  0.19789  1.0000
  C   C1593     1.0  0.52721  0.96993  0.17169  1.0000
  Fe  Fe268     1.0  0.97152  0.66360  0.04521  1.0000
  H   H1590     1.0  0.85325  0.89578  0.13563  1.0000
  H   H1591     1.0  0.84498  0.93700  0.06106  1.0000
  H   H1592     1.0  0.83047  0.89571  0.12468  1.0000
  H   H1593     1.0  0.88124  0.92445  0.05256  1.0000
  H   H1594     1.0  0.53275  0.94026  0.16277  1.0000
  N   N133      1.0  0.62286  0.87482  0.10284  1.0000
  C   C1594     1.0  0.59047  0.88512  0.09167  1.0000
  C   C1595     1.0  0.70481  0.96406  0.14704  1.0000
  C   C1596     1.0  0.67214  0.95390  0.15390  1.0000
  C   C1597     1.0  0.88804  0.68977  0.06540  1.0000
  H   H1595     1.0  0.90635  0.72310  0.08846  1.0000
  S   S541      1.0  0.89098  0.97121  0.13830  1.0000
  C   C1598     1.0  0.52140  0.95241  0.16690  1.0000
  H   H1596     1.0  0.61136  0.90529  0.09458  1.0000
  S   S542      1.0  0.55310  0.97174  0.16981  1.0000
  H   H1597     1.0  0.67669  0.96111  0.02903  1.0000
  N   N134      1.0  0.68511  0.96722  0.15522  1.0000
  H   H1598     1.0  0.54295  0.67429  0.11216  1.0000
  H   H1599     1.0  0.51604  0.83613  0.00905  1.0000
  C   C1599     1.0  0.64194  0.88014  0.10690  1.0000
  H   H1600     1.0  0.98285  0.87202  0.14513  1.0000
  H   H1601     1.0  0.89419  0.72028  0.05655  1.0000
  C   C1600     1.0  0.60858  0.88973  0.09640  1.0000
  H   H1602     1.0  0.57933  0.89691  0.08614  1.0000
  C   C1601     1.0  0.92714  0.91026  0.17698  1.0000
  C   C1602     1.0  0.98246  0.75604  0.12030  1.0000
  C   C1603     1.0  0.90972  0.69495  0.11977  1.0000
  C   C1604     1.0  0.89587  0.67560  0.09837  1.0000
  C   C1605     1.0  0.67887  0.93681  0.14431  1.0000
  C   C1606     1.0  0.98430  0.88681  0.14949  1.0000
  H   H1603     1.0  0.65636  0.95671  0.15979  1.0000
  C   C1607     1.0  0.68139  0.91134  0.99905  1.0000
  H   H1604     1.0  0.51423  0.71511  0.09239  1.0000
  C   C1608     1.0  0.49810  0.76459  0.09280  1.0000
  C   C1609     1.0  0.51410  0.86449  0.18754  1.0000
  H   H1605     1.0  0.65313  0.86673  0.10985  1.0000
  S   S543      1.0  0.98128  0.66774  0.01197  1.0000
  C   C1610     1.0  0.50405  0.84291  0.16579  1.0000
  C   C1611     1.0  0.67308  0.87710  0.00964  1.0000
  C   C1612     1.0  0.95549  0.91331  0.15129  1.0000
  H   H1606     1.0  0.66689  0.84676  0.02011  1.0000
  H   H1607     1.0  0.70015  0.83626  0.03212  1.0000
  C   C1613     1.0  0.67788  0.85728  0.01805  1.0000
  S   S544      1.0  0.50501  0.88431  0.13409  1.0000
  H   H1608     1.0  0.64873  0.88958  0.09367  1.0000
  C   C1614     1.0  0.70507  0.88483  0.01419  1.0000
  N   N135      1.0  0.90241  0.69309  0.10094  1.0000
  C   C1615     1.0  0.68391  0.96868  0.01539  1.0000
  H   H1609     1.0  0.97807  0.70802  0.11296  1.0000
  H   H1610     1.0  0.51344  0.71944  0.04477  1.0000
  H   H1611     1.0  0.88299  0.68824  0.05133  1.0000
  H   H1612     1.0  0.96733  0.78253  0.10495  1.0000
  C   C1616     1.0  0.65661  0.96916  0.10889  1.0000
  C   C1617     1.0  0.89433  0.70770  0.06832  1.0000
  H   H1613     1.0  0.72457  0.86089  0.02870  1.0000
  H   H1614     1.0  0.91601  0.68013  0.12703  1.0000
  N   N136      1.0  0.49975  0.85223  0.18274  1.0000
  C   C1618     1.0  0.69660  0.85134  0.02472  1.0000
  C   C1619     1.0  0.53365  0.97357  0.11954  1.0000
  C   C1620     1.0  0.50105  0.95071  0.16672  1.0000
  S   S545      1.0  0.95466  0.66128  0.10209  1.0000
  C   C1621     1.0  0.52447  0.77723  0.00031  1.0000
  H   H1615     1.0  0.66843  0.92658  0.14278  1.0000
  C   C1622     1.0  0.50951  0.78386  0.01521  1.0000
  H   H1616     1.0  0.91210  0.91579  0.18343  1.0000
  H   H1617     1.0  0.51028  0.95602  0.11686  1.0000
  H   H1618     1.0  0.50342  0.70262  0.06553  1.0000
  H   H1619     1.0  0.54581  0.96162  0.11687  1.0000
  C   C1623     1.0  0.50702  0.74536  0.09908  1.0000
  H   H1620     1.0  0.88417  0.65948  0.07836  1.0000
  H   H1621     1.0  0.66934  0.91277  0.98930  1.0000
  C   C1624     1.0  0.62298  0.97840  0.13673  1.0000
  H   H1622     1.0  0.61011  0.98165  0.14769  1.0000
  Fe  Fe269     1.0  0.87730  0.98538  0.11047  1.0000
  S   S546      1.0  0.98736  0.67802  0.06491  1.0000
  H   H1623     1.0  0.49363  0.82478  0.14676  1.0000
  C   C1625     1.0  0.49198  0.98382  0.17697  1.0000
  C   C1626     1.0  0.49067  0.75259  0.06327  1.0000
  H   H1624     1.0  0.66223  0.98529  0.17244  1.0000
  C   C1627     1.0  0.67791  0.98539  0.16481  1.0000
  C   C1628     1.0  0.51246  0.98564  0.17688  1.0000
  C   C1629     1.0  0.49821  0.98556  0.12424  1.0000
  Fe  Fe270     1.0  0.55608  0.69630  0.38371  1.0000
  H   H1625     1.0  0.96019  0.67623  0.43406  1.0000
  S   S547      1.0  0.55068  0.72935  0.38786  1.0000
  H   H1626     1.0  0.63496  0.98457  0.25186  1.0000
  Fe  Fe271     1.0  0.55624  0.66134  0.36024  1.0000
  H   H1627     1.0  0.77816  0.90007  0.39314  1.0000
  S   S548      1.0  0.97212  0.66286  0.36335  1.0000
  H   H1628     1.0  0.91561  0.72126  0.38863  1.0000
  S   S549      1.0  0.64086  0.97150  0.38487  1.0000
  H   H1629     1.0  0.90412  0.75687  0.45725  1.0000
  Fe  Fe272     1.0  0.62296  0.95761  0.36598  1.0000
  S   S550      1.0  0.60082  0.93554  0.37916  1.0000
  S   S551      1.0  0.64899  0.95299  0.34182  1.0000
  Fe  Fe273     1.0  0.51526  0.83284  0.33041  1.0000
  S   S552      1.0  0.52565  0.84493  0.35551  1.0000
  S   S553      1.0  0.52484  0.80123  0.32255  1.0000
  Fe  Fe274     1.0  0.58614  0.65797  0.38977  1.0000
  C   C1630     1.0  0.51071  0.67434  0.44890  1.0000
  Fe  Fe275     1.0  0.97492  0.78765  0.43859  1.0000
  Fe  Fe276     1.0  0.53254  0.87171  0.33350  1.0000
  S   S554      1.0  0.56265  0.88415  0.32632  1.0000
  H   H1630     1.0  0.90952  0.83305  0.44705  1.0000
  S   S555      1.0  0.52462  0.85826  0.30777  1.0000
  H   H1631     1.0  0.84276  0.96380  0.47036  1.0000
  Fe  Fe277     1.0  0.97703  0.78269  0.39464  1.0000
  S   S556      1.0  0.94736  0.77097  0.39858  1.0000
  H   H1632     1.0  0.91693  0.97463  0.34587  1.0000
  Fe  Fe278     1.0  0.63620  0.98322  0.32743  1.0000
  S   S557      1.0  0.94472  0.77604  0.44653  1.0000
  Fe  Fe279     1.0  0.95792  0.75261  0.42595  1.0000
  S   S558      1.0  0.95573  0.71918  0.43305  1.0000
  Fe  Fe280     1.0  0.93627  0.79545  0.41839  1.0000
  S   S559      1.0  0.90619  0.81355  0.41188  1.0000
  C   C1631     1.0  0.89613  0.76449  0.42039  1.0000
  S   S560      1.0  0.96539  0.80852  0.41195  1.0000
  Fe  Fe281     1.0  0.78809  0.92837  0.42525  1.0000
  S   S561      1.0  0.79768  0.95743  0.41005  1.0000
  S   S562      1.0  0.75577  0.92231  0.42553  1.0000
  Fe  Fe282     1.0  0.83095  0.91236  0.43611  1.0000
  S   S563      1.0  0.84289  0.94097  0.42197  1.0000
  S   S564      1.0  0.85425  0.88868  0.44983  1.0000
  Fe  Fe283     1.0  0.81432  0.95691  0.43658  1.0000
  Fe  Fe284     1.0  0.82504  0.93855  0.39734  1.0000
  S   S565      1.0  0.83773  0.93968  0.36496  1.0000
  S   S566      1.0  0.80323  0.92858  0.45274  1.0000
  S   S567      1.0  0.81458  0.90923  0.41057  1.0000
  H   H1633     1.0  0.50487  0.69806  0.46779  1.0000
  C   C1632     1.0  0.95952  0.70359  0.41364  1.0000
  H   H1634     1.0  0.97956  0.93863  0.32411  1.0000
  H   H1635     1.0  0.90330  0.75496  0.37196  1.0000
  H   H1636     1.0  0.73946  0.94840  0.33581  1.0000
  H   H1637     1.0  0.77011  0.96585  0.32855  1.0000
  C   C1633     1.0  0.96078  0.71169  0.39348  1.0000
  H   H1638     1.0  0.89077  0.78280  0.39260  1.0000
  C   C1634     1.0  0.58354  0.96328  0.31779  1.0000
  H   H1639     1.0  0.95937  0.72775  0.38948  1.0000
  H   H1640     1.0  0.91531  0.71588  0.42535  1.0000
  C   C1635     1.0  0.89296  0.83528  0.42195  1.0000
  C   C1636     1.0  0.87696  0.84627  0.41245  1.0000
  C   C1637     1.0  0.86533  0.86296  0.42044  1.0000
  C   C1638     1.0  0.86934  0.86867  0.43829  1.0000
  C   C1639     1.0  0.88548  0.85783  0.44767  1.0000
  C   C1640     1.0  0.89733  0.84134  0.43950  1.0000
  H   H1641     1.0  0.87338  0.84170  0.39892  1.0000
  H   H1642     1.0  0.85292  0.87104  0.41310  1.0000
  C   C1641     1.0  0.55208  0.94041  0.32208  1.0000
  S   S568      1.0  0.98849  0.76271  0.42062  1.0000
  C   C1642     1.0  0.96502  0.66989  0.40335  1.0000
  H   H1643     1.0  0.56359  0.93369  0.29241  1.0000
  C   C1643     1.0  0.85543  0.96559  0.33574  1.0000
  C   C1644     1.0  0.84335  0.96349  0.35424  1.0000
  H   H1644     1.0  0.79870  0.92199  0.37069  1.0000
  H   H1645     1.0  0.86066  0.95266  0.32789  1.0000
  C   C1645     1.0  0.71341  0.95634  0.38128  1.0000
  C   C1646     1.0  0.73211  0.96270  0.38198  1.0000
  C   C1647     1.0  0.74494  0.95283  0.39582  1.0000
  C   C1648     1.0  0.73920  0.93645  0.40923  1.0000
  C   C1649     1.0  0.72018  0.93052  0.40901  1.0000
  C   C1650     1.0  0.70731  0.94042  0.39513  1.0000
  C   C1651     1.0  0.98904  0.98293  0.29671  1.0000
  H   H1646     1.0  0.75946  0.95761  0.39574  1.0000
  H   H1647     1.0  0.71554  0.91790  0.41936  1.0000
  H   H1648     1.0  0.69298  0.93530  0.39474  1.0000
  C   C1652     1.0  0.59073  0.92077  0.36452  1.0000
  C   C1653     1.0  0.59972  0.91761  0.34518  1.0000
  C   C1654     1.0  0.59119  0.90592  0.33393  1.0000
  C   C1655     1.0  0.57339  0.89761  0.34170  1.0000
  C   C1656     1.0  0.56442  0.90072  0.36105  1.0000
  C   C1657     1.0  0.57318  0.91209  0.37246  1.0000
  H   H1649     1.0  0.61330  0.92407  0.33896  1.0000
  H   H1650     1.0  0.59828  0.90355  0.31900  1.0000
  H   H1651     1.0  0.55073  0.89441  0.36722  1.0000
  H   H1652     1.0  0.56618  0.91440  0.38744  1.0000
  H   H1653     1.0  0.96647  0.65380  0.40728  1.0000
  C   C1658     1.0  0.54153  0.74856  0.36985  1.0000
  C   C1659     1.0  0.54230  0.74559  0.34981  1.0000
  C   C1660     1.0  0.53660  0.76177  0.33555  1.0000
  C   C1661     1.0  0.52994  0.78096  0.34123  1.0000
  C   C1662     1.0  0.52866  0.78381  0.36136  1.0000
  C   C1663     1.0  0.53454  0.76768  0.37558  1.0000
  H   H1654     1.0  0.54778  0.73097  0.34523  1.0000
  H   H1655     1.0  0.53764  0.75947  0.32000  1.0000
  H   H1656     1.0  0.52361  0.79851  0.36590  1.0000
  H   H1657     1.0  0.53396  0.77007  0.39105  1.0000
  H   H1658     1.0  0.73887  0.91807  0.36050  1.0000
  H   H1659     1.0  0.51100  0.68546  0.33709  1.0000
  C   C1664     1.0  0.95645  0.97410  0.26111  1.0000
  H   H1660     1.0  0.75285  0.89924  0.38971  1.0000
  N   N137      1.0  0.89358  0.93026  0.37842  1.0000
  C   C1665     1.0  0.88348  0.94922  0.37806  1.0000
  C   C1666     1.0  0.91220  0.92696  0.36762  1.0000
  C   C1667     1.0  0.89172  0.96542  0.36639  1.0000
  C   C1668     1.0  0.92091  0.94287  0.35577  1.0000
  C   C1669     1.0  0.91050  0.96218  0.35512  1.0000
  C   C1670     1.0  0.88442  0.91361  0.39084  1.0000
  H   H1661     1.0  0.86872  0.95189  0.38648  1.0000
  H   H1662     1.0  0.92038  0.91200  0.36802  1.0000
  H   H1663     1.0  0.58740  0.66195  0.45489  1.0000
  H   H1664     1.0  0.52270  0.67896  0.30208  1.0000
  H   H1665     1.0  0.93894  0.95321  0.28041  1.0000
  H   H1666     1.0  0.88414  0.91492  0.40700  1.0000
  H   H1667     1.0  0.86871  0.91379  0.38775  1.0000
  H   H1668     1.0  0.89267  0.89876  0.38784  1.0000
  H   H1669     1.0  0.91700  0.73229  0.45505  1.0000
  C   C1671     1.0  0.90298  0.75235  0.38811  1.0000
  N   N138      1.0  0.76870  0.91829  0.36709  1.0000
  C   C1672     1.0  0.78566  0.92767  0.36306  1.0000
  C   C1673     1.0  0.75244  0.92531  0.35713  1.0000
  C   C1674     1.0  0.78644  0.94490  0.34916  1.0000
  C   C1675     1.0  0.75272  0.94246  0.34308  1.0000
  C   C1676     1.0  0.96136  0.68265  0.41850  1.0000
  C   C1677     1.0  0.95354  0.95554  0.27217  1.0000
  H   H1670     1.0  0.55612  0.66260  0.47894  1.0000
  C   C1678     1.0  0.50851  0.67438  0.30952  1.0000
  C   C1679     1.0  0.90989  0.73349  0.39743  1.0000
  H   H1671     1.0  0.61056  0.95479  0.28701  1.0000
  C   C1680     1.0  0.76821  0.90010  0.38149  1.0000
  C   C1681     1.0  0.50195  0.67801  0.32924  1.0000
  S   S569      1.0  0.69956  0.96731  0.36138  1.0000
  H   H1672     1.0  0.97067  0.81989  0.36930  1.0000
  C   C1682     1.0  0.83868  0.97811  0.47608  1.0000
  H   H1673     1.0  0.96518  0.70538  0.36282  1.0000
  C   C1683     1.0  0.59489  0.95484  0.28384  1.0000
  C   C1684     1.0  0.98777  0.94952  0.31433  1.0000
  C   C1685     1.0  0.56549  0.94193  0.30439  1.0000
  S   S570      1.0  0.50175  0.88873  0.33954  1.0000
  Fe  Fe285     1.0  0.66581  0.96962  0.35922  1.0000
  S   S571      1.0  0.56437  0.67557  0.41105  1.0000
  H   H1674     1.0  0.73704  0.97494  0.37128  1.0000
  H   H1675     1.0  0.89084  0.77681  0.42919  1.0000
  H   H1676     1.0  0.88871  0.86208  0.46149  1.0000
  H   H1677     1.0  0.59506  0.94211  0.27519  1.0000
  Fe  Fe286     1.0  0.54141  0.65757  0.40450  1.0000
  H   H1678     1.0  0.52330  0.68046  0.43962  1.0000
  C   C1686     1.0  0.98607  0.84371  0.35253  1.0000
  S   S572      1.0  0.58003  0.68029  0.36293  1.0000
  H   H1679     1.0  0.54498  0.94866  0.35200  1.0000
  S   S573      1.0  0.53160  0.67919  0.37858  1.0000
  H   H1680     1.0  0.54026  0.93084  0.32383  1.0000
  C   C1687     1.0  0.57049  0.96195  0.33575  1.0000
  H   H1681     1.0  0.82738  0.97863  0.37874  1.0000
  N   N139      1.0  0.57431  0.81795  0.33261  1.0000
  C   C1688     1.0  0.57653  0.82855  0.34766  1.0000
  C   C1689     1.0  0.57458  0.79759  0.33609  1.0000
  C   C1690     1.0  0.57850  0.81879  0.36695  1.0000
  C   C1691     1.0  0.57688  0.78732  0.35511  1.0000
  C   C1692     1.0  0.57861  0.79804  0.37067  1.0000
  C   C1693     1.0  0.57223  0.82819  0.31242  1.0000
  H   H1682     1.0  0.57643  0.84469  0.34492  1.0000
  H   H1683     1.0  0.57248  0.78924  0.32424  1.0000
  H   H1684     1.0  0.57975  0.82734  0.37894  1.0000
  H   H1685     1.0  0.57666  0.77120  0.35790  1.0000
  H   H1686     1.0  0.57984  0.79026  0.38561  1.0000
  H   H1687     1.0  0.58630  0.82478  0.30224  1.0000
  H   H1688     1.0  0.55951  0.82323  0.30655  1.0000
  H   H1689     1.0  0.56902  0.84472  0.31227  1.0000
  H   H1690     1.0  0.93561  0.94033  0.34706  1.0000
  C   C1694     1.0  0.83664  0.98019  0.36439  1.0000
  S   S574      1.0  0.95279  0.97470  0.31857  1.0000
  N   N140      1.0  0.90337  0.74608  0.42935  1.0000
  C   C1695     1.0  0.96409  0.69896  0.37837  1.0000
  H   H1691     1.0  0.59041  0.96911  0.27446  1.0000
  H   H1692     1.0  0.77307  0.88663  0.37366  1.0000
  C   C1696     1.0  0.96658  0.67801  0.38317  1.0000
  H   H1693     1.0  0.79986  0.95243  0.34628  1.0000
  H   H1694     1.0  0.59589  0.97218  0.31623  1.0000
  Fe  Fe287     1.0  0.49339  0.87351  0.31493  1.0000
  H   H1695     1.0  0.88976  0.73615  0.45844  1.0000
  C   C1697     1.0  0.90978  0.73056  0.41822  1.0000
  N   N141      1.0  0.58109  0.95309  0.30253  1.0000
  C   C1698     1.0  0.98421  0.82368  0.35992  1.0000
  C   C1699     1.0  0.55473  0.95038  0.33789  1.0000
  C   C1700     1.0  0.97828  0.96891  0.30930  1.0000
  H   H1696     1.0  0.97404  0.85534  0.35648  1.0000
  C   C1701     1.0  0.76981  0.95235  0.33917  1.0000
  C   C1702     1.0  0.90349  0.74268  0.45111  1.0000
  C   C1703     1.0  0.89591  0.76794  0.39965  1.0000
  C   C1704     1.0  0.96976  0.94040  0.27320  1.0000
  S   S575      1.0  0.63553  0.98458  0.29373  1.0000
  H   H1697     1.0  0.96788  0.92616  0.28228  1.0000
  N   N142      1.0  0.97501  0.97748  0.25135  1.0000
  Fe  Fe288     1.0  0.49397  0.86087  0.35979  1.0000
  C   C1705     1.0  0.49723  0.66384  0.29991  1.0000
  C   C1706     1.0  0.50511  0.65626  0.44534  1.0000
  H   H1698     1.0  0.88339  0.98034  0.36583  1.0000
  C   C1707     1.0  0.50029  0.68427  0.46485  1.0000
  C   C1708     1.0  0.86111  0.98436  0.32753  1.0000
  H   H1699     1.0  0.57294  0.96930  0.34820  1.0000
  C   C1709     1.0  0.98862  0.94396  0.26317  1.0000
  H   H1700     1.0  0.50273  0.66056  0.28479  1.0000
  H   H1701     1.0  0.76739  0.98288  0.47872  1.0000
  H   H1702     1.0  0.94386  0.98589  0.26067  1.0000
  H   H1703     1.0  0.87042  0.98591  0.31324  1.0000
  C   C1710     1.0  0.84857  0.98280  0.49133  1.0000
  C   C1711     1.0  0.78824  0.97548  0.50048  1.0000
  H   H1704     1.0  0.98039  0.83390  0.54937  1.0000
  H   H1705     1.0  0.86035  0.97205  0.49720  1.0000
  H   H1706     1.0  0.98417  0.80722  0.54909  1.0000
  H   H1707     1.0  0.79507  0.96167  0.49463  1.0000
  C   C1712     1.0  0.97430  0.97322  0.69299  1.0000
  H   H1708     1.0  0.95877  0.97319  0.69104  1.0000
  H   H1709     1.0  0.98461  0.94748  0.67743  1.0000
  H   H1710     1.0  0.80837  0.97299  0.52257  1.0000
  C   C1713     1.0  0.98895  0.95856  0.68538  1.0000
  H   H1711     1.0  0.98214  0.77066  0.48633  1.0000
  C   C1714     1.0  0.79577  0.98204  0.51617  1.0000
  H   H1712     1.0  0.53451  0.95559  0.79009  1.0000
  C   C1715     1.0  0.51660  0.81806  0.96482  1.0000
  H   H1713     1.0  0.53038  0.76518  0.97209  1.0000
  H   H1714     1.0  0.51707  0.82593  0.83700  1.0000
  C   C1716     1.0  0.50070  0.88520  0.79440  1.0000
  N   N143      1.0  0.50126  0.85300  0.82459  1.0000
  C   C1717     1.0  0.50356  0.95665  0.80349  1.0000
  H   H1715     1.0  0.52725  0.81177  0.95314  1.0000
  H   H1716     1.0  0.51378  0.90027  0.81413  1.0000
  C   C1718     1.0  0.49843  0.77072  0.98159  1.0000
  H   H1717     1.0  0.54004  0.82291  0.98138  1.0000
  C   C1719     1.0  0.50830  0.88651  0.81209  1.0000
  C   C1720     1.0  0.50256  0.83559  0.84000  1.0000
  C   C1721     1.0  0.52295  0.96249  0.80060  1.0000
  H   H1718     1.0  0.50332  0.97483  0.75358  1.0000
  C   C1722     1.0  0.52396  0.82451  0.98069  1.0000
  C   C1723     1.0  0.50856  0.87012  0.82710  1.0000
  H   H1719     1.0  0.50132  0.84027  0.85520  1.0000
  H   H1720     1.0  0.51456  0.87125  0.84077  1.0000
  H   H1721     1.0  0.50041  0.89781  0.78266  1.0000
  S   S576      1.0  0.49799  0.93890  0.78910  1.0000
  C   C1724     1.0  0.52737  0.97757  0.81091  1.0000
  H   H1722     1.0  0.50025  0.80083  0.94044  1.0000
  H   H1723     1.0  0.72611  0.96366  0.98178  1.0000
  H   H1724     1.0  0.49425  0.76569  0.96856  1.0000
  H   H1725     1.0  0.63611  0.98065  0.88639  1.0000
  H   H1726     1.0  0.54226  0.98214  0.80842  1.0000
  N   N144      1.0  0.49635  0.81869  0.96462  1.0000
  C   C1725     1.0  0.49327  0.98043  0.82769  1.0000
  C   C1726     1.0  0.49373  0.85164  0.80729  1.0000
  C   C1727     1.0  0.49322  0.86774  0.79201  1.0000
  H   H1727     1.0  0.53923  0.97874  0.74159  1.0000
  C   C1728     1.0  0.65018  0.98445  0.88978  1.0000
  H   H1728     1.0  0.64001  0.98523  0.92108  1.0000
