data_image0
_chemical_formula_structural       NHC2S2FeS2FeS2FeSFeS3CS2CHCSC6H5C4H2C6H4CHSHC2H3NC6H11CFeHCH3FeC2HCH2CHCH5CSC2H2NHCHCNC5HC3HCH2CSCH2C3FeH4CH2CHFeSHFeS2FeS2FeSFeS3HS2CFeS2FeS2Fe2S3FeSHFeS2C6H5CHN2CHC5H3C4H2C6H4C6H2CH2C6H4NC6H7NHCHC3H5C7H5C2HFeC2SCHNH6CH2CNHSFeS2HCH4C2SFeCHCH2NH6C4HSCFeSHFeS2FeS2FeSFeS3FeS2FeS2FeSFeS3H4C6H4C2H2C7H5C6H4CH4FeH2CNC4HCH2CHCH3SC4H2NHC3NCH3C2HSNH3C4H2C2HCH2C3HCH3CNHC2FeCSH3S2HNCSFeC3HC2HCH3C3H2CHC3H3C2H2SFeS4FeS2C6H2C7H4CNHCHCHC2H4CH2C2HSCH2FeCHCH4C2HSCH2CFeCSFeNH4CHCSCHC3FeCH2FeH2SC2S2HCH2CNFeSHCSCH3NH4CSHC2HSCFeC4HC3H2CHNH2SHC2HCHC2SNSC6H5FeH2SCFeH2C2SC2HSCHFeNH4C3S2H4C2HC5HSCH3C2SHCSHFeS2CHCHSCH3C7H4CH2SCHC5NHCH5CHFeHNFeCHCSCH2NCSHFeHC2HCHCFeHSFeS2FeS2FeS2FeSHCFeS2FeS2FeSFeS4C5H4C6H4CH3CSC2HCH3SFeHC6H4C6HCH2CHSCSCH3NC6HCH3CHCNC6H8NC6H4NH3CHCH2CH3CNHCHFeC3HFeHCSH3FeSFeHSH5C3H2CS2CSHC3HC3H2CFeHC2NH3FeS2FeS2FeSFeS3FeCSH2SFeS2FeS2FeSFeS3HC6NCH2C6H4C6H5C2H5CH2C2HC5HCH2C2H2N2CNH3C3H4CH4C2H2C2HCH2C3NSHC2HCHCHCH3C3HC2HC2HSH3CHC2HCH6SFeS2FeS2FeS2FeSFeS3FeSHFeS2FeS2FeSFeSFeHS2HS2CSHC8SH2C6HCHC7H4CH2C3H4C6H4CH2C3H5CHC2HNC6H3SHSC3HCNH2NH2C3HCH6CHCHCH3CH2C2H2C2NHC2HCH4CNH3C3FeSC4HCNCH2CH2FeCFeHCHCHFeS2H2SFeS2FeS2FeSFeS3FeS2FeSH3C2H2C2H5CHNC6H4C3NH2C8H7C2H3CHC2SH3C3HCHFeCHSH4FeNCNC6H2SH3CHCH2C2HC3
_chemical_formula_sum              "N48 H576 C576 S192 Fe96"
_cell_length_a       56.197
_cell_length_b       55.9235
_cell_length_c       41.6889
_cell_angle_alpha    90.2036
_cell_angle_beta     90.1703
_cell_angle_gamma    120.251

_space_group_name_H-M_alt    "P 1"
_space_group_IT_number       1

loop_
  _space_group_symop_operation_xyz
  'x, y, z'

loop_
  _atom_site_type_symbol
  _atom_site_label
  _atom_site_symmetry_multiplicity
  _atom_site_fract_x
  _atom_site_fract_y
  _atom_site_fract_z
  _atom_site_occupancy
  N   N1        1.0  0.29172  0.03384  0.25836  1.0000
  H   H1        1.0  0.29484  0.28804  0.42546  1.0000
  C   C1        1.0  0.30241  0.28034  0.33084  1.0000
  C   C2        1.0  0.24748  0.02058  0.47985  1.0000
  S   S1        1.0  0.22223  0.05803  0.30004  1.0000
  S   S2        1.0  0.25713  0.03132  0.35182  1.0000
  Fe  Fe1       1.0  0.18062  0.22698  0.34844  1.0000
  S   S3        1.0  0.22594  0.25843  0.35146  1.0000
  S   S4        1.0  0.15211  0.24342  0.35869  1.0000
  Fe  Fe2       1.0  0.19076  0.17900  0.33465  1.0000
  S   S5        1.0  0.23650  0.20715  0.33543  1.0000
  S   S6        1.0  0.16946  0.13205  0.33618  1.0000
  Fe  Fe3       1.0  0.22894  0.22568  0.37938  1.0000
  S   S7        1.0  0.25345  0.22851  0.42384  1.0000
  Fe  Fe4       1.0  0.22881  0.23709  0.30713  1.0000
  S   S8        1.0  0.25502  0.25868  0.26317  1.0000
  S   S9        1.0  0.18367  0.19636  0.37997  1.0000
  S   S10       1.0  0.18312  0.20708  0.30266  1.0000
  C   C3        1.0  0.30670  0.30295  0.31249  1.0000
  S   S11       1.0  0.02426  0.17287  0.33046  1.0000
  S   S12       1.0  0.02554  0.24381  0.34183  1.0000
  C   C4        1.0  0.01967  0.29651  0.24592  1.0000
  H   H2        1.0  0.17800  0.14192  0.40492  1.0000
  C   C5        1.0  0.21408  0.32706  0.12257  1.0000
  S   S13       1.0  0.19359  0.00617  0.37673  1.0000
  C   C6        1.0  0.11629  0.22128  0.35472  1.0000
  C   C7        1.0  0.09884  0.23077  0.36525  1.0000
  C   C8        1.0  0.07046  0.21537  0.35902  1.0000
  C   C9        1.0  0.05931  0.19052  0.34180  1.0000
  C   C10       1.0  0.07659  0.18046  0.33218  1.0000
  C   C11       1.0  0.10508  0.19579  0.33868  1.0000
  H   H3        1.0  0.10737  0.25035  0.37786  1.0000
  H   H4        1.0  0.05728  0.22280  0.36763  1.0000
  H   H5        1.0  0.06806  0.16109  0.31913  1.0000
  H   H6        1.0  0.11844  0.18832  0.33049  1.0000
  H   H7        1.0  0.32952  0.06650  0.27665  1.0000
  C   C12       1.0  0.27769  0.29984  0.21786  1.0000
  C   C13       1.0  0.26414  0.29180  0.24756  1.0000
  C   C14       1.0  0.25993  0.31087  0.26482  1.0000
  C   C15       1.0  0.25190  0.22878  0.48981  1.0000
  H   H8        1.0  0.28114  0.28532  0.20433  1.0000
  H   H9        1.0  0.26859  0.04852  0.28375  1.0000
  C   C16       1.0  0.20800  0.07873  0.31139  1.0000
  C   C17       1.0  0.22091  0.10650  0.30155  1.0000
  C   C18       1.0  0.20974  0.12334  0.30958  1.0000
  C   C19       1.0  0.18511  0.11226  0.32674  1.0000
  C   C20       1.0  0.17213  0.08444  0.33637  1.0000
  C   C21       1.0  0.18369  0.06783  0.32912  1.0000
  H   H10       1.0  0.23957  0.11501  0.28754  1.0000
  H   H11       1.0  0.21975  0.14463  0.30173  1.0000
  H   H12       1.0  0.15292  0.07564  0.34937  1.0000
  H   H13       1.0  0.17336  0.04639  0.33644  1.0000
  C   C22       1.0  0.24962  0.01384  0.21290  1.0000
  H   H14       1.0  0.32419  0.03198  0.28272  1.0000
  S   S14       1.0  0.00894  0.26137  0.42828  1.0000
  H   H15       1.0  0.25461  0.10657  0.36847  1.0000
  C   C23       1.0  0.24199  0.23395  0.46123  1.0000
  C   C24       1.0  0.22407  0.24441  0.46285  1.0000
  H   H16       1.0  0.03738  0.29157  0.20235  1.0000
  H   H17       1.0  0.21618  0.24838  0.44103  1.0000
  H   H18       1.0  0.27042  0.15688  0.36533  1.0000
  N   N2        1.0  0.07146  0.23774  0.27437  1.0000
  C   C25       1.0  0.07817  0.26344  0.28552  1.0000
  C   C26       1.0  0.09068  0.22957  0.27427  1.0000
  C   C27       1.0  0.10426  0.28111  0.29869  1.0000
  C   C28       1.0  0.11717  0.24700  0.28648  1.0000
  C   C29       1.0  0.12378  0.27267  0.29936  1.0000
  C   C30       1.0  0.04390  0.21932  0.26114  1.0000
  H   H19       1.0  0.06312  0.27019  0.28483  1.0000
  H   H20       1.0  0.08535  0.20914  0.26564  1.0000
  H   H21       1.0  0.10913  0.30100  0.30871  1.0000
  H   H22       1.0  0.13209  0.24009  0.28752  1.0000
  H   H23       1.0  0.26365  0.28713  0.41331  1.0000
  H   H24       1.0  0.02831  0.22281  0.27319  1.0000
  H   H25       1.0  0.04352  0.22316  0.23511  1.0000
  H   H26       1.0  0.03748  0.19722  0.26516  1.0000
  H   H27       1.0  0.31101  0.30352  0.28703  1.0000
  H   H28       1.0  0.24950  0.30499  0.28767  1.0000
  H   H29       1.0  0.14381  0.28562  0.31048  1.0000
  C   C31       1.0  0.29348  0.02091  0.23129  1.0000
  Fe  Fe5       1.0  0.23352  0.01284  0.39700  1.0000
  H   H30       1.0  0.19685  0.04927  0.48647  1.0000
  C   C32       1.0  0.24293  0.11483  0.37996  1.0000
  H   H31       1.0  0.18334  0.09368  0.42021  1.0000
  H   H32       1.0  0.20742  0.16878  0.42625  1.0000
  H   H33       1.0  0.20352  0.25923  0.49384  1.0000
  Fe  Fe6       1.0  0.21668  0.02205  0.33056  1.0000
  C   C33       1.0  0.21684  0.25048  0.49283  1.0000
  C   C34       1.0  0.31406  0.04470  0.28215  1.0000
  H   H34       1.0  0.41431  0.00944  0.03261  1.0000
  C   C35       1.0  0.24830  0.02760  0.24022  1.0000
  H   H35       1.0  0.26582  0.22074  0.48878  1.0000
  H   H36       1.0  0.18632  0.13607  0.44504  1.0000
  C   C36       1.0  0.29626  0.27959  0.36345  1.0000
  H   H37       1.0  0.45899  0.07026  0.01851  1.0000
  C   C37       1.0  0.19151  0.03090  0.50031  1.0000
  H   H38       1.0  0.19294  0.31001  0.11687  1.0000
  H   H39       1.0  0.01678  0.31525  0.08286  1.0000
  H   H40       1.0  0.21114  0.07503  0.39640  1.0000
  H   H41       1.0  0.02282  0.27915  0.49413  1.0000
  H   H42       1.0  0.42284  0.05632  0.02788  1.0000
  C   C38       1.0  0.20292  0.10775  0.40918  1.0000
  S   S15       1.0  0.24685  0.03696  0.44390  1.0000
  C   C39       1.0  0.23591  0.15305  0.39232  1.0000
  C   C40       1.0  0.25215  0.03485  0.50912  1.0000
  H   H43       1.0  0.29268  0.26179  0.37746  1.0000
  H   H44       1.0  0.30589  0.04349  0.30674  1.0000
  N   N3        1.0  0.21196  0.13548  0.40782  1.0000
  H   H45       1.0  0.23291  0.00550  0.19552  1.0000
  C   C41       1.0  0.28723  0.32665  0.20564  1.0000
  H   H46       1.0  0.24277  0.17494  0.39065  1.0000
  C   C42       1.0  0.21845  0.09707  0.39570  1.0000
  N   N4        1.0  0.29424  0.30073  0.37731  1.0000
  C   C43       1.0  0.19510  0.14607  0.42170  1.0000
  C   C44       1.0  0.27246  0.01066  0.20819  1.0000
  C   C45       1.0  0.01382  0.31435  0.26332  1.0000
  C   C46       1.0  0.03271  0.30518  0.21599  1.0000
  C   C47       1.0  0.25173  0.14301  0.37813  1.0000
  H   H47       1.0  0.25640  0.05599  0.50919  1.0000
  C   C48       1.0  0.28647  0.29894  0.41115  1.0000
  C   C49       1.0  0.03934  0.33112  0.20321  1.0000
  C   C50       1.0  0.26977  0.03774  0.26269  1.0000
  H   H48       1.0  0.31072  0.01755  0.22792  1.0000
  C   C51       1.0  0.00685  0.31346  0.10579  1.0000
  H   H49       1.0  0.30315  0.26320  0.31958  1.0000
  H   H50       1.0  0.36646  0.03885  0.03523  1.0000
  C   C52       1.0  0.36297  0.02176  0.01983  1.0000
  S   S16       1.0  0.00938  0.26248  0.25903  1.0000
  C   C53       1.0  0.00633  0.25779  0.49423  1.0000
  H   H51       1.0  0.23070  0.03032  0.24421  1.0000
  H   H52       1.0  0.29793  0.33256  0.18294  1.0000
  C   C54       1.0  0.29768  0.32264  0.35924  1.0000
  C   C55       1.0  0.30425  0.32423  0.32667  1.0000
  C   C56       1.0  0.00207  0.33442  0.11593  1.0000
  Fe  Fe7       1.0  0.00316  0.19754  0.33887  1.0000
  H   H53       1.0  0.29448  0.31976  0.42210  1.0000
  H   H54       1.0  0.22609  0.31759  0.13157  1.0000
  H   H55       1.0  0.00267  0.27407  0.11770  1.0000
  H   H56       1.0  0.18392  0.00551  0.45798  1.0000
  C   C57       1.0  0.18402  0.00614  0.48402  1.0000
  H   H57       1.0  0.00378  0.30799  0.28635  1.0000
  H   H58       1.0  0.37753  0.14776  0.81119  1.0000
  C   C58       1.0  0.17184  0.28266  0.72212  1.0000
  H   H59       1.0  0.44580  0.16144  0.94014  1.0000
  Fe  Fe8       1.0  0.01813  0.23253  0.65649  1.0000
  S   S17       1.0  0.06465  0.25016  0.65746  1.0000
  H   H60       1.0  0.11606  0.17720  0.59156  1.0000
  Fe  Fe9       1.0  0.22304  0.19262  0.64606  1.0000
  S   S18       1.0  0.25393  0.23722  0.63536  1.0000
  S   S19       1.0  0.24160  0.16532  0.65279  1.0000
  Fe  Fe10      1.0  0.17599  0.20477  0.65629  1.0000
  S   S20       1.0  0.20387  0.24999  0.64779  1.0000
  S   S21       1.0  0.13043  0.18547  0.66791  1.0000
  Fe  Fe11      1.0  0.21948  0.23603  0.60608  1.0000
  S   S22       1.0  0.21851  0.25508  0.55843  1.0000
  Fe  Fe12      1.0  0.23545  0.24652  0.67785  1.0000
  S   S23       1.0  0.25683  0.27368  0.72165  1.0000
  S   S24       1.0  0.19008  0.19064  0.61347  1.0000
  S   S25       1.0  0.20599  0.20205  0.68970  1.0000
  H   H61       1.0  0.17819  0.30395  0.71638  1.0000
  S   S26       1.0  0.24263  0.03039  0.63990  1.0000
  S   S27       1.0  0.17554  0.03534  0.62964  1.0000
  C   C59       1.0  0.36734  0.02603  0.98660  1.0000
  Fe  Fe13      1.0  0.42519  0.12102  0.87563  1.0000
  S   S28       1.0  0.43523  0.09724  0.83929  1.0000
  S   S29       1.0  0.44046  0.16690  0.86651  1.0000
  Fe  Fe14      1.0  0.39658  0.07101  0.91997  1.0000
  S   S30       1.0  0.40353  0.04387  0.88640  1.0000
  S   S31       1.0  0.37979  0.05972  0.97072  1.0000
  Fe  Fe15      1.0  0.44689  0.07977  0.88120  1.0000
  Fe  Fe16      1.0  0.39137  0.06335  0.84720  1.0000
  S   S32       1.0  0.36679  0.03745  0.80398  1.0000
  S   S33       1.0  0.44034  0.10615  0.91697  1.0000
  S   S34       1.0  0.38083  0.08797  0.88131  1.0000
  Fe  Fe17      1.0  0.39232  0.31875  0.82372  1.0000
  S   S35       1.0  0.36578  0.29492  0.86508  1.0000
  H   H62       1.0  0.09309  0.22212  0.72772  1.0000
  Fe  Fe18      1.0  0.40060  0.28783  0.87925  1.0000
  S   S36       1.0  0.38716  0.24278  0.89224  1.0000
  S   S37       1.0  0.42610  0.30988  0.83638  1.0000
  C   C60       1.0  0.42414  0.18701  0.87080  1.0000
  C   C61       1.0  0.39692  0.17563  0.88126  1.0000
  C   C62       1.0  0.38565  0.19289  0.88658  1.0000
  C   C63       1.0  0.40125  0.22164  0.88119  1.0000
  C   C64       1.0  0.42817  0.23285  0.86984  1.0000
  C   C65       1.0  0.43951  0.21564  0.86479  1.0000
  H   H63       1.0  0.38479  0.15368  0.88603  1.0000
  H   H64       1.0  0.36483  0.18399  0.89547  1.0000
  H   H65       1.0  0.44053  0.25490  0.86580  1.0000
  H   H66       1.0  0.46057  0.22470  0.85667  1.0000
  H   H67       1.0  0.34203  0.13122  0.76764  1.0000
  C   C66       1.0  0.40382  0.14179  0.95677  1.0000
  H   H68       1.0  0.19798  0.24018  0.73281  1.0000
  N   N5        1.0  0.37386  0.09567  0.74726  1.0000
  N   N6        1.0  0.41160  0.19504  0.95856  1.0000
  C   C67       1.0  0.25102  0.02182  0.53836  1.0000
  H   H69       1.0  0.25457  0.03294  0.56077  1.0000
  C   C68       1.0  0.29371  0.03594  0.75219  1.0000
  C   C69       1.0  0.30504  0.05231  0.77990  1.0000
  C   C70       1.0  0.32672  0.05222  0.79686  1.0000
  C   C71       1.0  0.33723  0.03565  0.78624  1.0000
  C   C72       1.0  0.42919  0.16447  0.94837  1.0000
  H   H70       1.0  0.05963  0.21632  0.59197  1.0000
  H   H71       1.0  0.33573  0.06545  0.81765  1.0000
  H   H72       1.0  0.29738  0.06560  0.78793  1.0000
  C   C73       1.0  0.24405  0.23415  0.51986  1.0000
  C   C74       1.0  0.38674  0.17296  0.96718  1.0000
  C   C75       1.0  0.10690  0.21654  0.74077  1.0000
  C   C76       1.0  0.41590  0.22315  0.96032  1.0000
  H   H73       1.0  0.25198  0.23034  0.54174  1.0000
  H   H74       1.0  0.10128  0.19536  0.73256  1.0000
  C   C77       1.0  0.19348  0.07138  0.63686  1.0000
  C   C78       1.0  0.18158  0.08728  0.62806  1.0000
  C   C79       1.0  0.19592  0.11614  0.63309  1.0000
  C   C80       1.0  0.22235  0.12920  0.64666  1.0000
  C   C81       1.0  0.23418  0.11326  0.65539  1.0000
  C   C82       1.0  0.21976  0.08446  0.65071  1.0000
  H   H75       1.0  0.16120  0.07726  0.61744  1.0000
  H   H76       1.0  0.18664  0.12828  0.62630  1.0000
  H   H77       1.0  0.25459  0.12322  0.66592  1.0000
  H   H78       1.0  0.22902  0.07245  0.65791  1.0000
  C   C83       1.0  0.29090  0.28434  0.73478  1.0000
  C   C84       1.0  0.31022  0.28330  0.71461  1.0000
  C   C85       1.0  0.33704  0.29194  0.72602  1.0000
  C   C86       1.0  0.34472  0.30126  0.75782  1.0000
  C   C87       1.0  0.32538  0.30226  0.77800  1.0000
  C   C88       1.0  0.29871  0.29405  0.76643  1.0000
  H   H79       1.0  0.30463  0.27618  0.69010  1.0000
  H   H80       1.0  0.35187  0.29127  0.71013  1.0000
  C   C89       1.0  0.43279  0.19111  0.94954  1.0000
  H   H81       1.0  0.40739  0.09666  0.77260  1.0000
  H   H82       1.0  0.43125  0.23693  0.94234  1.0000
  C   C90       1.0  0.08209  0.23127  0.65864  1.0000
  C   C91       1.0  0.11083  0.24563  0.65483  1.0000
  C   C92       1.0  0.12579  0.23170  0.65656  1.0000
  C   C93       1.0  0.11215  0.20328  0.66261  1.0000
  C   C94       1.0  0.08333  0.18880  0.66585  1.0000
  C   C95       1.0  0.06830  0.20269  0.66368  1.0000
  H   H83       1.0  0.12162  0.26773  0.65068  1.0000
  H   H84       1.0  0.14791  0.24308  0.65387  1.0000
  H   H85       1.0  0.07260  0.16677  0.67044  1.0000
  H   H86       1.0  0.04615  0.19140  0.66655  1.0000
  N   N7        1.0  0.29449  0.22193  0.74246  1.0000
  C   C96       1.0  0.32008  0.22528  0.73777  1.0000
  C   C97       1.0  0.28741  0.22754  0.77175  1.0000
  C   C98       1.0  0.33962  0.23515  0.76260  1.0000
  C   C99       1.0  0.30638  0.23724  0.79717  1.0000
  C   C100      1.0  0.33267  0.24113  0.79246  1.0000
  C   C101      1.0  0.27418  0.21165  0.71631  1.0000
  H   H87       1.0  0.32569  0.22092  0.71452  1.0000
  H   H88       1.0  0.26725  0.22527  0.77527  1.0000
  H   H89       1.0  0.36026  0.23887  0.75855  1.0000
  H   H90       1.0  0.30107  0.24254  0.82007  1.0000
  H   H91       1.0  0.34787  0.24946  0.81166  1.0000
  H   H92       1.0  0.28404  0.21478  0.69240  1.0000
  H   H93       1.0  0.25942  0.18916  0.71922  1.0000
  N   N8        1.0  0.10008  0.22693  0.57612  1.0000
  H   H94       1.0  0.18830  0.01011  0.57631  1.0000
  C   C102      1.0  0.09651  0.20169  0.58454  1.0000
  H   H95       1.0  0.16181  0.21454  0.57306  1.0000
  C   C103      1.0  0.11867  0.19689  0.58378  1.0000
  C   C104      1.0  0.14443  0.21793  0.57379  1.0000
  C   C105      1.0  0.07671  0.23173  0.57678  1.0000
  H   H96       1.0  0.36263  0.12845  0.97275  1.0000
  H   H97       1.0  0.10299  0.21612  0.76689  1.0000
  H   H98       1.0  0.41040  0.13054  0.81317  1.0000
  H   H99       1.0  0.21516  0.06097  0.57068  1.0000
  H   H100      1.0  0.12802  0.26750  0.55900  1.0000
  C   C106      1.0  0.38244  0.14602  0.96629  1.0000
  C   C107      1.0  0.12525  0.24760  0.56603  1.0000
  C   C108      1.0  0.37650  0.13324  0.79309  1.0000
  C   C109      1.0  0.35588  0.10539  0.74559  1.0000
  C   C110      1.0  0.39332  0.10458  0.77110  1.0000
  C   C111      1.0  0.35675  0.12410  0.76864  1.0000
  C   C112      1.0  0.39496  0.12351  0.79429  1.0000
  H   H101      1.0  0.34021  0.09807  0.72690  1.0000
  H   H102      1.0  0.39656  0.22323  0.95466  1.0000
  H   H103      1.0  0.26263  0.22294  0.71588  1.0000
  H   H104      1.0  0.38804  0.08827  0.70333  1.0000
  H   H105      1.0  0.18259  0.05762  0.56003  1.0000
  C   C113      1.0  0.18292  0.24682  0.73122  1.0000
  C   C114      1.0  0.15496  0.22795  0.73600  1.0000
  H   H106      1.0  0.35220  0.06416  0.71188  1.0000
  Fe  Fe19      1.0  0.19716  0.01260  0.64585  1.0000
  C   C115      1.0  0.14405  0.26333  0.72753  1.0000
  C   C116      1.0  0.37314  0.07655  0.72260  1.0000
  S   S38       1.0  0.37848  0.31104  0.77130  1.0000
  C   C117      1.0  0.19137  0.27429  0.72410  1.0000
  H   H107      1.0  0.36998  0.17609  0.97444  1.0000
  N   N9        1.0  0.13593  0.23632  0.73409  1.0000
  H   H108      1.0  0.37834  0.06147  0.73316  1.0000
  H   H109      1.0  0.28402  0.29514  0.78219  1.0000
  H   H110      1.0  0.12893  0.26994  0.72585  1.0000
  H   H111      1.0  0.33102  0.30954  0.80246  1.0000
  H   H112      1.0  0.21305  0.28897  0.71998  1.0000
  H   H113      1.0  0.40064  0.12096  0.95572  1.0000
  C   C118      1.0  0.32517  0.01847  0.75925  1.0000
  H   H114      1.0  0.06868  0.23059  0.55209  1.0000
  H   H115      1.0  0.43679  0.01273  0.91759  1.0000
  C   C119      1.0  0.43193  0.01176  0.94292  1.0000
  N   N10       1.0  0.43132  0.03490  0.99131  1.0000
  H   H116      1.0  0.14853  0.20646  0.74072  1.0000
  S   S39       1.0  0.00393  0.25726  0.62759  1.0000
  Fe  Fe20      1.0  0.24087  0.01215  0.68877  1.0000
  S   S40       1.0  0.26807  0.03867  0.73049  1.0000
  S   S41       1.0  0.47863  0.06585  0.88909  1.0000
  H   H117      1.0  0.16787  0.25984  0.55695  1.0000
  C   C120      1.0  0.30355  0.01864  0.74221  1.0000
  H   H118      1.0  0.07663  0.18529  0.59268  1.0000
  H   H119      1.0  0.45239  0.20851  0.94221  1.0000
  H   H120      1.0  0.08300  0.25238  0.58741  1.0000
  H   H121      1.0  0.42312  0.23201  0.98466  1.0000
  C   C121      1.0  0.22680  0.24542  0.52146  1.0000
  C   C122      1.0  0.14780  0.24344  0.56478  1.0000
  S   S42       1.0  0.42112  0.32624  0.91086  1.0000
  Fe  Fe21      1.0  0.38835  0.33502  0.89298  1.0000
  C   C123      1.0  0.20120  0.05811  0.55017  1.0000
  H   H122      1.0  0.23425  0.01077  0.78714  1.0000
  C   C124      1.0  0.43783  0.03591  0.95958  1.0000
  H   H123      1.0  0.44738  0.05541  0.94682  1.0000
  H   H124      1.0  0.00165  0.25634  0.54587  1.0000
  N   N11       1.0  0.19325  0.03215  0.53310  1.0000
  H   H125      1.0  0.21238  0.07640  0.53441  1.0000
  H   H126      1.0  0.33313  0.00550  0.75093  1.0000
  H   H127      1.0  0.29494  0.00584  0.72100  1.0000
  H   H128      1.0  0.36547  0.00650  0.94135  1.0000
  H   H129      1.0  0.43638  0.07533  0.99189  1.0000
  H   H130      1.0  0.38131  0.33521  0.97692  1.0000
  C   C125      1.0  0.18701  0.00901  0.55039  1.0000
  C   C126      1.0  0.43785  0.06049  0.00834  1.0000
  C   C127      1.0  0.41975  0.01036  0.00752  1.0000
  C   C128      1.0  0.36244  0.00366  0.96696  1.0000
  H   H131      1.0  0.00423  0.60890  0.21706  1.0000
  S   S43       1.0  0.04738  0.63213  0.11835  1.0000
  C   C129      1.0  0.46177  0.63684  0.11500  1.0000
  Fe  Fe22      1.0  0.08803  0.63787  0.13565  1.0000
  S   S44       1.0  0.09265  0.60273  0.15761  1.0000
  H   H132      1.0  0.29509  0.33890  0.36988  1.0000
  Fe  Fe23      1.0  0.06019  0.39987  0.15704  1.0000
  S   S45       1.0  0.07828  0.38134  0.12420  1.0000
  S   S46       1.0  0.03660  0.37939  0.20286  1.0000
  Fe  Fe24      1.0  0.07894  0.45189  0.11486  1.0000
  S   S47       1.0  0.09871  0.43661  0.07948  1.0000
  S   S48       1.0  0.07792  0.49035  0.09737  1.0000
  Fe  Fe25      1.0  0.06028  0.39505  0.08461  1.0000
  S   S49       1.0  0.03970  0.36820  0.04055  1.0000
  Fe  Fe26      1.0  0.11518  0.42444  0.12187  1.0000
  S   S50       1.0  0.16061  0.43784  0.13105  1.0000
  S   S51       1.0  0.03963  0.41065  0.11753  1.0000
  S   S52       1.0  0.09793  0.44260  0.15721  1.0000
  Fe  Fe27      1.0  0.34495  0.44636  0.11499  1.0000
  S   S53       1.0  0.32229  0.42180  0.07074  1.0000
  S   S54       1.0  0.37790  0.49131  0.10325  1.0000
  Fe  Fe28      1.0  0.31033  0.39594  0.15887  1.0000
  S   S55       1.0  0.28687  0.36865  0.11730  1.0000
  S   S56       1.0  0.29750  0.38074  0.21029  1.0000
  Fe  Fe29      1.0  0.32761  0.38790  0.09176  1.0000
  S   S57       1.0  0.34531  0.36355  0.06768  1.0000
  Fe  Fe30      1.0  0.28343  0.40508  0.10026  1.0000
  S   S58       1.0  0.24102  0.39540  0.08147  1.0000
  S   S59       1.0  0.35175  0.41294  0.13497  1.0000
  S   S60       1.0  0.30545  0.43188  0.14283  1.0000
  H   H133      1.0  0.44659  0.56718  0.19111  1.0000
  H   H134      1.0  0.49695  0.65627  0.14649  1.0000
  H   H135      1.0  0.41955  0.57468  0.20056  1.0000
  H   H136      1.0  0.21364  0.40004  0.20480  1.0000
  C   C130      1.0  0.41299  0.51327  0.11481  1.0000
  C   C131      1.0  0.42481  0.50760  0.14116  1.0000
  C   C132      1.0  0.45195  0.52699  0.15105  1.0000
  C   C133      1.0  0.46773  0.55213  0.13463  1.0000
  C   C134      1.0  0.45627  0.55727  0.10753  1.0000
  C   C135      1.0  0.42904  0.53805  0.09787  1.0000
  H   H137      1.0  0.41278  0.48873  0.15457  1.0000
  H   H138      1.0  0.46055  0.52276  0.17207  1.0000
  H   H139      1.0  0.46805  0.57646  0.09463  1.0000
  H   H140      1.0  0.42018  0.54264  0.07739  1.0000
  C   C136      1.0  0.03208  0.58491  0.19606  1.0000
  C   C137      1.0  0.41360  0.42745  0.07516  1.0000
  H   H141      1.0  0.09982  0.65457  0.25810  1.0000
  H   H142      1.0  0.04299  0.57317  0.19998  1.0000
  C   C138      1.0  0.06105  0.65374  0.25948  1.0000
  C   C139      1.0  0.21946  0.40836  0.09472  1.0000
  C   C140      1.0  0.19265  0.39682  0.08187  1.0000
  C   C141      1.0  0.17432  0.40543  0.09267  1.0000
  C   C142      1.0  0.18269  0.42600  0.11629  1.0000
  C   C143      1.0  0.20957  0.43770  0.12896  1.0000
  C   C144      1.0  0.22781  0.42890  0.11839  1.0000
  H   H143      1.0  0.18597  0.38100  0.06347  1.0000
  H   H144      1.0  0.15380  0.39629  0.08254  1.0000
  H   H145      1.0  0.21634  0.45365  0.14720  1.0000
  H   H146      1.0  0.24830  0.43797  0.12856  1.0000
  H   H147      1.0  0.00970  0.57021  0.19906  1.0000
  C   C145      1.0  0.08707  0.57093  0.14068  1.0000
  C   C146      1.0  0.08985  0.55205  0.16041  1.0000
  C   C147      1.0  0.08623  0.52687  0.14796  1.0000
  C   C148      1.0  0.08004  0.52035  0.11544  1.0000
  C   C149      1.0  0.07696  0.53909  0.09582  1.0000
  C   C150      1.0  0.08040  0.56417  0.10829  1.0000
  H   H148      1.0  0.09495  0.55698  0.18552  1.0000
  H   H149      1.0  0.08863  0.51272  0.16343  1.0000
  H   H150      1.0  0.07208  0.53431  0.07064  1.0000
  H   H151      1.0  0.07812  0.57837  0.09277  1.0000
  C   C151      1.0  0.19451  0.35468  0.14239  1.0000
  H   H152      1.0  0.41488  0.55012  0.16931  1.0000
  H   H153      1.0  0.42021  0.39910  0.04663  1.0000
  H   H154      1.0  0.42406  0.61223  0.08850  1.0000
  H   H155      1.0  0.42106  0.42326  0.09724  1.0000
  Fe  Fe31      1.0  0.07265  0.66356  0.08102  1.0000
  H   H156      1.0  0.16554  0.48996  0.15091  1.0000
  H   H157      1.0  0.08248  0.61419  0.22156  1.0000
  C   C152      1.0  0.42581  0.59156  0.13144  1.0000
  N   N12       1.0  0.14735  0.53257  0.09338  1.0000
  C   C153      1.0  0.15272  0.51300  0.08130  1.0000
  C   C154      1.0  0.14840  0.53718  0.12577  1.0000
  C   C155      1.0  0.15969  0.49768  0.10176  1.0000
  C   C156      1.0  0.15487  0.52191  0.14696  1.0000
  H   H158      1.0  0.17945  0.38092  0.16023  1.0000
  C   C157      1.0  0.14040  0.54846  0.07120  1.0000
  H   H159      1.0  0.15134  0.50893  0.05571  1.0000
  H   H160      1.0  0.14376  0.55240  0.13544  1.0000
  C   C158      1.0  0.16068  0.50214  0.13479  1.0000
  H   H161      1.0  0.24783  0.38444  0.21123  1.0000
  C   C159      1.0  0.21327  0.38460  0.18866  1.0000
  H   H162      1.0  0.01167  0.61517  0.05258  1.0000
  H   H163      1.0  0.12156  0.53413  0.05730  1.0000
  H   H164      1.0  0.37257  0.33912  0.03467  1.0000
  S   S61       1.0  0.11326  0.66765  0.09629  1.0000
  C   C160      1.0  0.23246  0.37593  0.19222  1.0000
  C   C161      1.0  0.41328  0.41403  0.04676  1.0000
  C   C162      1.0  0.28387  0.34601  0.22339  1.0000
  C   C163      1.0  0.07855  0.64412  0.24997  1.0000
  H   H165      1.0  0.13593  0.56321  0.08406  1.0000
  H   H166      1.0  0.16384  0.48207  0.09216  1.0000
  N   N13       1.0  0.21333  0.34622  0.14611  1.0000
  H   H167      1.0  0.38401  0.46333  0.04749  1.0000
  C   C164      1.0  0.03264  0.34857  0.22008  1.0000
  C   C165      1.0  0.03402  0.64060  0.24804  1.0000
  C   C166      1.0  0.42993  0.57012  0.18086  1.0000
  N   N14       1.0  0.04198  0.60839  0.21835  1.0000
  C   C167      1.0  0.06861  0.62127  0.22927  1.0000
  H   H168      1.0  0.47007  0.65408  0.09834  1.0000
  H   H169      1.0  0.18039  0.34742  0.12214  1.0000
  H   H170      1.0  0.15509  0.52515  0.17265  1.0000
  C   C168      1.0  0.46647  0.61564  0.16307  1.0000
  C   C169      1.0  0.47701  0.63805  0.14202  1.0000
  H   H171      1.0  0.02042  0.64830  0.25473  1.0000
  S   S62       1.0  0.06112  0.66398  0.02864  1.0000
  N   N15       1.0  0.44118  0.59277  0.15761  1.0000
  H   H172      1.0  0.30674  0.34145  0.31220  1.0000
  H   H173      1.0  0.40580  0.57336  0.12702  1.0000
  H   H174      1.0  0.26724  0.35268  0.26684  1.0000
  C   C170      1.0  0.34893  0.35917  0.02614  1.0000
  C   C171      1.0  0.40354  0.44571  0.07522  1.0000
  C   C172      1.0  0.23216  0.35656  0.17064  1.0000
  C   C173      1.0  0.43601  0.61343  0.10955  1.0000
  H   H175      1.0  0.00813  0.35226  0.10084  1.0000
  H   H176      1.0  0.04888  0.33723  0.17990  1.0000
  C   C174      1.0  0.19399  0.37375  0.16378  1.0000
  C   C175      1.0  0.00762  0.61927  0.02845  1.0000
  H   H177      1.0  0.40352  0.45614  0.09721  1.0000
  C   C176      1.0  0.39257  0.44973  0.04696  1.0000
  H   H178      1.0  0.47882  0.61649  0.18358  1.0000
  H   H179      1.0  0.03601  0.59253  0.17099  1.0000
  C   C177      1.0  0.00755  0.36079  0.02401  1.0000
  C   C178      1.0  0.27002  0.33790  0.25295  1.0000
  C   C179      1.0  0.36428  0.34680  0.01660  1.0000
  H   H180      1.0  0.15768  0.56041  0.05442  1.0000
  C   C180      1.0  0.02492  0.61816  0.22689  1.0000
  H   H181      1.0  0.01174  0.44114  0.03215  1.0000
  H   H182      1.0  0.24734  0.35017  0.17345  1.0000
  H   H183      1.0  0.22388  0.33845  0.10012  1.0000
  C   C181      1.0  0.40250  0.41882  0.01881  1.0000
  N   N16       1.0  0.39197  0.43619  0.01931  1.0000
  H   H184      1.0  0.01491  0.35354  0.26361  1.0000
  C   C182      1.0  0.02017  0.34018  0.25036  1.0000
  C   C183      1.0  0.00130  0.66869  0.08776  1.0000
  Fe  Fe32      1.0  0.05671  0.66873  0.14994  1.0000
  C   C184      1.0  0.02841  0.64124  0.01125  1.0000
  S   S63       1.0  0.02141  0.66886  0.17670  1.0000
  H   H185      1.0  0.40151  0.40754  0.99712  1.0000
  H   H186      1.0  0.48059  0.42400  0.85850  1.0000
  H   H187      1.0  0.43996  0.34336  0.77189  1.0000
  S   S64       1.0  0.36545  0.35354  0.91886  1.0000
  S   S65       1.0  0.41281  0.35964  0.84996  1.0000
  H   H188      1.0  0.01302  0.34234  0.98122  1.0000
  N   N17       1.0  0.47882  0.37890  0.78341  1.0000
  C   C185      1.0  0.33824  0.36892  0.00257  1.0000
  S   S66       1.0  0.49150  0.37793  0.86613  1.0000
  Fe  Fe33      1.0  0.44446  0.34906  0.86638  1.0000
  C   C186      1.0  0.48039  0.42266  0.78337  1.0000
  C   C187      1.0  0.45152  0.36567  0.77511  1.0000
  C   C188      1.0  0.02278  0.64614  0.97980  1.0000
  H   H189      1.0  0.03154  0.40294  0.95528  1.0000
  C   C189      1.0  0.43789  0.38063  0.77116  1.0000
  C   C190      1.0  0.34320  0.36665  0.96986  1.0000
  H   H190      1.0  0.33484  0.37424  0.95178  1.0000
  C   C191      1.0  0.35885  0.35459  0.96033  1.0000
  H   H191      1.0  0.44193  0.42100  0.77314  1.0000
  H   H192      1.0  0.49191  0.44490  0.78720  1.0000
  H   H193      1.0  0.38786  0.46192  0.98500  1.0000
  C   C192      1.0  0.99958  0.34779  0.99379  1.0000
  C   C193      1.0  0.45241  0.40927  0.77557  1.0000
  C   C194      1.0  0.37888  0.43962  0.99059  1.0000
  H   H194      1.0  0.35639  0.43029  0.99475  1.0000
  H   H195      1.0  0.04204  0.42506  0.00919  1.0000
  C   C195      1.0  0.01892  0.41085  0.96500  1.0000
  H   H196      1.0  0.38150  0.42916  0.96925  1.0000
  C   C196      1.0  0.02480  0.42324  0.99531  1.0000
  C   C197      1.0  0.36930  0.34458  0.98390  1.0000
  C   C198      1.0  0.00766  0.43209  0.00826  1.0000
  H   H197      1.0  0.41608  0.36994  0.76518  1.0000
  H   H198      1.0  0.47952  0.34361  0.80095  1.0000
  H   H199      1.0  0.03878  0.66301  0.96623  1.0000
  C   C199      1.0  0.49269  0.36280  0.78719  1.0000
  C   C200      1.0  0.49339  0.40707  0.78701  1.0000
  H   H200      1.0  0.49738  0.35735  0.76335  1.0000
  H   H201      1.0  0.32617  0.37822  0.00955  1.0000
  S   S67       1.0  0.20630  0.97975  0.31191  1.0000
  Fe  Fe34      1.0  0.18691  0.96471  0.36061  1.0000
  S   S68       1.0  0.15081  0.92401  0.37713  1.0000
  S   S69       1.0  0.22578  0.97063  0.38380  1.0000
  S   S70       1.0  0.03389  0.84827  0.31254  1.0000
  S   S71       1.0  0.02544  0.78383  0.36368  1.0000
  Fe  Fe35      1.0  0.11761  0.70160  0.12959  1.0000
  S   S72       1.0  0.15164  0.74625  0.13994  1.0000
  S   S73       1.0  0.07894  0.69960  0.11122  1.0000
  C   C201      1.0  0.24484  0.80246  0.12207  1.0000
  C   C202      1.0  0.23154  0.77429  0.11322  1.0000
  C   C203      1.0  0.20311  0.75658  0.11877  1.0000
  C   C204      1.0  0.18775  0.76686  0.13359  1.0000
  C   C205      1.0  0.20115  0.79495  0.14272  1.0000
  C   C206      1.0  0.22947  0.81267  0.13694  1.0000
  H   H202      1.0  0.19312  0.73504  0.11164  1.0000
  H   H203      1.0  0.18950  0.80311  0.15429  1.0000
  C   C207      1.0  0.02583  0.68976  0.21104  1.0000
  C   C208      1.0  0.11780  0.90497  0.35964  1.0000
  C   C209      1.0  0.09839  0.88043  0.37468  1.0000
  C   C210      1.0  0.07258  0.86314  0.36051  1.0000
  C   C211      1.0  0.06584  0.87035  0.33125  1.0000
  C   C212      1.0  0.08502  0.89516  0.31637  1.0000
  C   C213      1.0  0.11106  0.91243  0.33046  1.0000
  H   H204      1.0  0.10352  0.87457  0.39724  1.0000
  H   H205      1.0  0.05786  0.84433  0.37242  1.0000
  H   H206      1.0  0.07987  0.90091  0.29375  1.0000
  H   H207      1.0  0.12596  0.93128  0.31867  1.0000
  C   C214      1.0  0.11327  0.85187  0.30235  1.0000
  N   N18       1.0  0.09325  0.82498  0.30748  1.0000
  H   H208      1.0  0.11191  0.86317  0.28202  1.0000
  C   C215      1.0  0.13669  0.85160  0.35082  1.0000
  H   H209      1.0  0.15316  0.86245  0.36824  1.0000
  C   C216      1.0  0.13536  0.86551  0.32380  1.0000
  H   H210      1.0  0.15078  0.88714  0.32031  1.0000
  C   C217      1.0  0.09493  0.81080  0.33326  1.0000
  C   C218      1.0  0.11645  0.82400  0.35555  1.0000
  H   H211      1.0  0.11729  0.81297  0.37648  1.0000
  H   H212      1.0  0.07938  0.78924  0.33689  1.0000
  H   H213      1.0  0.06388  0.82536  0.27533  1.0000
  H   H214      1.0  0.07705  0.80274  0.26399  1.0000
  C   C219      1.0  0.07058  0.81097  0.28436  1.0000
  H   H215      1.0  0.05226  0.79340  0.29560  1.0000
  H   H216      1.0  0.23939  0.83424  0.14400  1.0000
  C   C220      1.0  0.03021  0.71859  0.26906  1.0000
  C   C221      1.0  0.05332  0.71875  0.25583  1.0000
  H   H217      1.0  0.07294  0.72970  0.26819  1.0000
  S   S74       1.0  0.03354  0.73490  0.30688  1.0000
  C   C222      1.0  0.05126  0.70476  0.22679  1.0000
  H   H218      1.0  0.47188  0.88619  0.02167  1.0000
  H   H219      1.0  0.49088  0.96971  0.09649  1.0000
  Fe  Fe36      1.0  0.00923  0.80501  0.33250  1.0000
  C   C223      1.0  0.49908  0.95892  0.08287  1.0000
  H   H220      1.0  0.23807  0.95721  0.26270  1.0000
  C   C224      1.0  0.00349  0.75052  0.47917  1.0000
  H   H221      1.0  0.25123  0.80806  0.03458  1.0000
  H   H222      1.0  0.02972  0.69617  0.01752  1.0000
  H   H223      1.0  0.15103  0.77907  0.08529  1.0000
  H   H224      1.0  0.24325  0.76615  0.10175  1.0000
  C   C225      1.0  0.24184  0.98056  0.50914  1.0000
  C   C226      1.0  0.22525  0.84509  0.06902  1.0000
  H   H225      1.0  0.01309  0.74899  0.45741  1.0000
  S   S75       1.0  0.27893  0.98118  0.31467  1.0000
  C   C227      1.0  0.20862  0.79191  0.04767  1.0000
  H   H226      1.0  0.18313  0.82818  0.08326  1.0000
  H   H227      1.0  0.23813  0.95960  0.50903  1.0000
  C   C228      1.0  0.24448  0.83946  0.05518  1.0000
  Fe  Fe37      1.0  0.33414  0.92623  0.08172  1.0000
  C   C229      1.0  0.19786  0.82376  0.07197  1.0000
  S   S76       1.0  0.47893  0.87409  0.12890  1.0000
  Fe  Fe38      1.0  0.36217  0.91766  0.13999  1.0000
  N   N19       1.0  0.49217  0.91727  0.05730  1.0000
  H   H228      1.0  0.26597  0.85558  0.05353  1.0000
  H   H229      1.0  0.15939  0.75508  0.06833  1.0000
  H   H230      1.0  0.23167  0.86572  0.07803  1.0000
  H   H231      1.0  0.48342  0.87570  0.05675  1.0000
  C   C230      1.0  0.38772  0.83658  0.17726  1.0000
  H   H232      1.0  0.06921  0.70500  0.21705  1.0000
  C   C231      1.0  0.45955  0.89081  0.13586  1.0000
  S   S77       1.0  0.32210  0.89307  0.16698  1.0000
  C   C232      1.0  0.16105  0.77553  0.06426  1.0000
  H   H233      1.0  0.35970  0.87460  0.20034  1.0000
  C   C233      1.0  0.30394  0.95635  0.23597  1.0000
  C   C234      1.0  0.23617  0.81274  0.04441  1.0000
  C   C235      1.0  0.00279  0.68981  0.22409  1.0000
  Fe  Fe39      1.0  0.24555  0.98823  0.33616  1.0000
  C   C236      1.0  0.34073  0.84006  0.16771  1.0000
  H   H234      1.0  0.24080  0.94057  0.20817  1.0000
  H   H235      1.0  0.35168  0.99270  0.05906  1.0000
  Fe  Fe40      1.0  0.00480  0.74892  0.32741  1.0000
  H   H236      1.0  0.39490  0.88032  0.12032  1.0000
  H   H237      1.0  0.40269  0.86711  0.23919  1.0000
  S   S78       1.0  0.29198  0.90143  0.10336  1.0000
  C   C237      1.0  0.48177  0.93143  0.07322  1.0000
  C   C238      1.0  0.47006  0.91562  0.15312  1.0000
  S   S79       1.0  0.28373  0.93819  0.17407  1.0000
  S   S80       1.0  0.40470  0.92827  0.15938  1.0000
  H   H238      1.0  0.42733  0.88023  0.20666  1.0000
  C   C239      1.0  0.41584  0.89036  0.12935  1.0000
  H   H239      1.0  0.40763  0.89632  0.21547  1.0000
  H   H240      1.0  0.46009  0.92139  0.07918  1.0000
  C   C240      1.0  0.00500  0.70436  0.25274  1.0000
  N   N20       1.0  0.38503  0.85678  0.19257  1.0000
  Fe  Fe41      1.0  0.31160  0.92478  0.14939  1.0000
  S   S81       1.0  0.35321  0.95158  0.12630  1.0000
  H   H241      1.0  0.46132  0.94592  0.17361  1.0000
  C   C241      1.0  0.25639  0.95690  0.25550  1.0000
  S   S82       1.0  0.34535  0.89394  0.09429  1.0000
  C   C242      1.0  0.25802  0.94749  0.22457  1.0000
  H   H242      1.0  0.14957  0.77445  0.04210  1.0000
  H   H243      1.0  0.42394  0.85911  0.11064  1.0000
  H   H244      1.0  0.32228  0.84138  0.16421  1.0000
  N   N21       1.0  0.18994  0.79752  0.06163  1.0000
  H   H245      1.0  0.40619  0.83524  0.18059  1.0000
  H   H246      1.0  0.36969  0.80246  0.14350  1.0000
  H   H247      1.0  0.32244  0.95647  0.22858  1.0000
  H   H248      1.0  0.32742  0.80580  0.13502  1.0000
  C   C243      1.0  0.45325  0.92723  0.15928  1.0000
  S   S83       1.0  0.34143  0.94047  0.02949  1.0000
  H   H249      1.0  0.31975  0.97322  0.28309  1.0000
  C   C244      1.0  0.36719  0.81802  0.15617  1.0000
  C   C245      1.0  0.42597  0.91458  0.14769  1.0000
  H   H250      1.0  0.06851  0.67169  0.27514  1.0000
  S   S84       1.0  0.28035  0.82426  0.11309  1.0000
  C   C246      1.0  0.27874  0.96653  0.27668  1.0000
  Fe  Fe42      1.0  0.30463  0.87131  0.11984  1.0000
  C   C247      1.0  0.34357  0.81987  0.15139  1.0000
  C   C248      1.0  0.43236  0.87833  0.12399  1.0000
  C   C249      1.0  0.28186  0.94738  0.21449  1.0000
  C   C250      1.0  0.36181  0.85854  0.18826  1.0000
  H   H251      1.0  0.02387  0.71790  0.04505  1.0000
  C   C251      1.0  0.30238  0.96593  0.26684  1.0000
  C   C252      1.0  0.40668  0.87594  0.21468  1.0000
  C   C253      1.0  0.02640  0.69952  0.04306  1.0000
  H   H252      1.0  0.04541  0.70362  0.05605  1.0000
  H   H253      1.0  0.49089  0.92548  0.16249  1.0000
  C   C254      1.0  0.35451  0.99559  0.03341  1.0000
  H   H254      1.0  0.20242  0.77106  0.03978  1.0000
  N   N22       1.0  0.00213  0.67509  0.05596  1.0000
  H   H255      1.0  0.17401  0.96375  0.48902  1.0000
  H   H256      1.0  0.01864  0.68128  0.10351  1.0000
  S   S85       1.0  0.09532  0.67232  0.17026  1.0000
  H   H257      1.0  0.45360  0.87914  0.05925  1.0000
  C   C255      1.0  0.47427  0.88818  0.04814  1.0000
  C   C256      1.0  0.17851  0.98268  0.50146  1.0000
  H   H258      1.0  0.23872  0.98218  0.45758  1.0000
  C   C257      1.0  0.24226  0.99335  0.47996  1.0000
  H   H259      1.0  0.27355  0.99954  0.18735  1.0000
  C   C258      1.0  0.34988  0.97330  0.01375  1.0000
  C   C259      1.0  0.01181  0.74559  0.50926  1.0000
  S   S86       1.0  0.15981  0.91339  0.68883  1.0000
  N   N23       1.0  0.06769  0.84108  0.59407  1.0000
  S   S87       1.0  0.03045  0.84508  0.66423  1.0000
  C   C260      1.0  0.12384  0.89497  0.68218  1.0000
  C   C261      1.0  0.10888  0.86661  0.68935  1.0000
  C   C262      1.0  0.08024  0.85110  0.68409  1.0000
  C   C263      1.0  0.06625  0.86398  0.67218  1.0000
  C   C264      1.0  0.08115  0.89248  0.66556  1.0000
  C   C265      1.0  0.10989  0.90791  0.67028  1.0000
  H   H260      1.0  0.11950  0.85648  0.69872  1.0000
  H   H261      1.0  0.06899  0.82922  0.68943  1.0000
  H   H262      1.0  0.07044  0.90263  0.65652  1.0000
  H   H263      1.0  0.12119  0.92979  0.66488  1.0000
  H   H264      1.0  0.02816  0.83746  0.59170  1.0000
  Fe  Fe43      1.0  0.23071  0.98833  0.62031  1.0000
  H   H265      1.0  0.40312  0.96619  0.00425  1.0000
  H   H266      1.0  0.18438  0.99027  0.77632  1.0000
  S   S88       1.0  0.01027  0.74092  0.57525  1.0000
  C   C266      1.0  0.07458  0.80224  0.59965  1.0000
  Fe  Fe44      1.0  0.18796  0.95747  0.67191  1.0000
  H   H267      1.0  0.25626  0.98221  0.78017  1.0000
  H   H268      1.0  0.13205  0.86223  0.62168  1.0000
  C   C267      1.0  0.05797  0.81330  0.59126  1.0000
  C   C268      1.0  0.10135  0.81986  0.61075  1.0000
  S   S89       1.0  0.18524  0.97166  0.62279  1.0000
  C   C269      1.0  0.14885  0.93892  0.75726  1.0000
  C   C270      1.0  0.04991  0.85215  0.58500  1.0000
  H   H269      1.0  0.41424  0.96757  0.94623  1.0000
  S   S90       1.0  0.23311  0.97144  0.66857  1.0000
  C   C271      1.0  0.09420  0.85862  0.60399  1.0000
  H   H270      1.0  0.05111  0.85588  0.55877  1.0000
  Fe  Fe45      1.0  0.00644  0.79809  0.66492  1.0000
  N   N24       1.0  0.17818  0.95035  0.76455  1.0000
  H   H271      1.0  0.05583  0.87172  0.59817  1.0000
  H   H272      1.0  0.10203  0.88069  0.60602  1.0000
  H   H273      1.0  0.13776  0.91596  0.75503  1.0000
  H   H274      1.0  0.06652  0.78008  0.59781  1.0000
  C   C272      1.0  0.19367  0.97740  0.77411  1.0000
  C   C273      1.0  0.41355  0.98579  0.99162  1.0000
  C   C274      1.0  0.22187  0.98914  0.78025  1.0000
  S   S91       1.0  0.24504  0.97779  0.57459  1.0000
  S   S92       1.0  0.19562  0.99689  0.69571  1.0000
  H   H275      1.0  0.03716  0.79946  0.58275  1.0000
  H   H276      1.0  0.13866  0.94438  0.77637  1.0000
  H   H277      1.0  0.17817  0.91328  0.75200  1.0000
  H   H278      1.0  0.11428  0.81149  0.61784  1.0000
  C   C275      1.0  0.19023  0.93453  0.76037  1.0000
  C   C276      1.0  0.24592  0.99461  0.53845  1.0000
  H   H279      1.0  0.14655  0.94717  0.73393  1.0000
  C   C277      1.0  0.17990  0.98403  0.53488  1.0000
  C   C278      1.0  0.35347  0.97741  0.98044  1.0000
  C   C279      1.0  0.23430  0.97315  0.77608  1.0000
  C   C280      1.0  0.41952  0.98654  0.95904  1.0000
  C   C281      1.0  0.11135  0.84828  0.61277  1.0000
  H   H280      1.0  0.34983  0.96029  0.96499  1.0000
  S   S93       1.0  0.02521  0.77101  0.66324  1.0000
  C   C282      1.0  0.21845  0.94570  0.76594  1.0000
  H   H281      1.0  0.22803  0.93329  0.76187  1.0000
  H   H282      1.0  0.17644  0.96615  0.54866  1.0000
  H   H283      1.0  0.02784  0.74029  0.51041  1.0000
  C   C283      1.0  0.99941  0.74734  0.53778  1.0000
  C   C284      1.0  0.99638  0.24349  0.46498  1.0000
  S   S94       1.0  0.97605  0.19148  0.38081  1.0000
  H   H284      1.0  0.97615  0.29548  0.46548  1.0000
  C   C285      1.0  0.94729  0.25732  0.44168  1.0000
  S   S95       1.0  0.97198  0.19422  0.30275  1.0000
  H   H285      1.0  0.95038  0.12722  0.37314  1.0000
  Fe  Fe46      1.0  0.94664  0.19251  0.34508  1.0000
  S   S96       1.0  0.90192  0.16399  0.35864  1.0000
  S   S97       1.0  0.96512  0.23892  0.34712  1.0000
  C   C286      1.0  0.95872  0.27473  0.46838  1.0000
  H   H286      1.0  0.69591  0.01836  0.40582  1.0000
  C   C287      1.0  0.75321  0.02028  0.50167  1.0000
  H   H287      1.0  0.97159  0.29478  0.21255  1.0000
  S   S98       1.0  0.81645  0.04798  0.29541  1.0000
  C   C288      1.0  0.63004  0.01237  0.02401  1.0000
  H   H288      1.0  0.90098  0.19882  0.47826  1.0000
  H   H289      1.0  0.90191  0.10116  0.39177  1.0000
  H   H290      1.0  0.94490  0.29674  0.19035  1.0000
  C   C289      1.0  0.91611  0.21226  0.41720  1.0000
  C   C290      1.0  0.87843  0.13208  0.34016  1.0000
  C   C291      1.0  0.85416  0.11383  0.35651  1.0000
  C   C292      1.0  0.83499  0.08808  0.34299  1.0000
  C   C293      1.0  0.83973  0.08053  0.31270  1.0000
  C   C294      1.0  0.86386  0.09892  0.29615  1.0000
  C   C295      1.0  0.88329  0.12452  0.30992  1.0000
  H   H291      1.0  0.85017  0.11956  0.37984  1.0000
  H   H292      1.0  0.81647  0.07413  0.35592  1.0000
  H   H293      1.0  0.86758  0.09324  0.27265  1.0000
  H   H294      1.0  0.90173  0.13855  0.29693  1.0000
  C   C296      1.0  0.89793  0.08753  0.37136  1.0000
  H   H295      1.0  0.93029  0.20445  0.41151  1.0000
  H   H296      1.0  0.88089  0.04113  0.29628  1.0000
  S   S99       1.0  0.75180  0.02158  0.43600  1.0000
  C   C297      1.0  0.96742  0.30701  0.19475  1.0000
  H   H297      1.0  0.98012  0.27086  0.16983  1.0000
  C   C298      1.0  0.87315  0.06221  0.36997  1.0000
  C   C299      1.0  0.94185  0.12248  0.34834  1.0000
  C   C300      1.0  0.91063  0.07911  0.32009  1.0000
  C   C301      1.0  0.98615  0.28875  0.15469  1.0000
  C   C302      1.0  0.94878  0.26454  0.49892  1.0000
  N   N25       1.0  0.92637  0.23059  0.44529  1.0000
  H   H298      1.0  0.64304  0.02927  0.04005  1.0000
  C   C303      1.0  0.86721  0.04525  0.34301  1.0000
  H   H299      1.0  0.85814  0.05623  0.38906  1.0000
  H   H300      1.0  0.84762  0.02604  0.34103  1.0000
  H   H301      1.0  0.91466  0.22332  0.39586  1.0000
  H   H302      1.0  0.95824  0.12328  0.33268  1.0000
  H   H303      1.0  0.92480  0.08588  0.30009  1.0000
  C   C304      1.0  0.96296  0.20313  0.49464  1.0000
  H   H304      1.0  0.95617  0.26495  0.41822  1.0000
  Fe  Fe47      1.0  0.78195  0.01522  0.32564  1.0000
  H   H305      1.0  0.93740  0.13883  0.34069  1.0000
  N   N26       1.0  0.91649  0.09544  0.34683  1.0000
  Fe  Fe48      1.0  0.99565  0.23755  0.38120  1.0000
  C   C305      1.0  0.88595  0.05375  0.31781  1.0000
  H   H306      1.0  0.96718  0.20460  0.44332  1.0000
  C   C306      1.0  0.97505  0.21590  0.46546  1.0000
  S   S100      1.0  0.74326  0.01415  0.34222  1.0000
  C   C307      1.0  0.91660  0.22037  0.47518  1.0000
  H   H307      1.0  0.94587  0.18206  0.49458  1.0000
  H   H308      1.0  0.89524  0.19412  0.42119  1.0000
  N   N27       1.0  0.98182  0.30963  0.16454  1.0000
  C   C308      1.0  0.92756  0.23721  0.50242  1.0000
  S   S101      1.0  0.79211  0.00500  0.37370  1.0000
  H   H309      1.0  0.76474  0.04264  0.50032  1.0000
  Fe  Fe49      1.0  0.99340  0.24085  0.30730  1.0000
  H   H310      1.0  0.70710  0.02758  0.46262  1.0000
  C   C309      1.0  0.68809  0.00780  0.46853  1.0000
  C   C310      1.0  0.74547  0.00448  0.47328  1.0000
  H   H311      1.0  0.67103  0.01192  0.47300  1.0000
  C   C311      1.0  0.99893  0.29045  0.12530  1.0000
  H   H312      1.0  0.97465  0.32770  0.20586  1.0000
  C   C312      1.0  0.98960  0.33228  0.14559  1.0000
  Fe  Fe50      1.0  0.97553  0.25045  0.66918  1.0000
  H   H313      1.0  0.88842  0.15800  0.60249  1.0000
  S   S102      1.0  0.96182  0.28022  0.68696  1.0000
  Fe  Fe51      1.0  0.95946  0.19002  0.67546  1.0000
  S   S103      1.0  0.92819  0.15426  0.70517  1.0000
  S   S104      1.0  0.94165  0.21126  0.64748  1.0000
  Fe  Fe52      1.0  0.79888  0.02081  0.64195  1.0000
  S   S105      1.0  0.76310  0.02636  0.63000  1.0000
  S   S106      1.0  0.84122  0.05114  0.62312  1.0000
  Fe  Fe53      1.0  0.91883  0.31708  0.85756  1.0000
  S   S107      1.0  0.89187  0.29235  0.89906  1.0000
  S   S108      1.0  0.94132  0.29717  0.83366  1.0000
  Fe  Fe54      1.0  0.86265  0.30539  0.88037  1.0000
  S   S109      1.0  0.81576  0.27836  0.87733  1.0000
  H   H314      1.0  0.97135  0.27439  0.80403  1.0000
  C   C313      1.0  0.72100  0.06056  0.75834  1.0000
  Fe  Fe55      1.0  0.65939  0.05969  0.85454  1.0000
  S   S110      1.0  0.68845  0.07343  0.89630  1.0000
  S   S111      1.0  0.65654  0.02595  0.82101  1.0000
  Fe  Fe56      1.0  0.63524  0.09548  0.87591  1.0000
  S   S112      1.0  0.66357  0.11222  0.91898  1.0000
  S   S113      1.0  0.60674  0.11202  0.86157  1.0000
  Fe  Fe57      1.0  0.69708  0.11653  0.88590  1.0000
  S   S114      1.0  0.74340  0.14724  0.88957  1.0000
  Fe  Fe58      1.0  0.65300  0.06795  0.92613  1.0000
  S   S115      1.0  0.64918  0.05209  0.97724  1.0000
  S   S116      1.0  0.66982  0.10292  0.84192  1.0000
  S   S117      1.0  0.62269  0.05098  0.88514  1.0000
  S   S118      1.0  0.98684  0.19133  0.63537  1.0000
  C   C314      1.0  0.52693  0.06445  0.89186  1.0000
  C   C315      1.0  0.55518  0.07425  0.88651  1.0000
  C   C316      1.0  0.57139  0.09937  0.87073  1.0000
  C   C317      1.0  0.55893  0.11447  0.86040  1.0000
  C   C318      1.0  0.53070  0.10474  0.86590  1.0000
  H   H315      1.0  0.81191  0.21374  0.96562  1.0000
  H   H316      1.0  0.56437  0.06233  0.89455  1.0000
  H   H317      1.0  0.57122  0.13393  0.84817  1.0000
  H   H318      1.0  0.93638  0.30821  0.71653  1.0000
  C   C319      1.0  0.79637  0.24161  0.87639  1.0000
  C   C320      1.0  0.80859  0.22554  0.88196  1.0000
  C   C321      1.0  0.79205  0.19656  0.88472  1.0000
  C   C322      1.0  0.76319  0.18329  0.88178  1.0000
  C   C323      1.0  0.75105  0.19925  0.87501  1.0000
  C   C324      1.0  0.76759  0.22827  0.87240  1.0000
  H   H319      1.0  0.83069  0.23548  0.88490  1.0000
  H   H320      1.0  0.80164  0.18438  0.88982  1.0000
  H   H321      1.0  0.72890  0.18934  0.87264  1.0000
  H   H322      1.0  0.75796  0.24053  0.86797  1.0000
  C   C325      1.0  0.97225  0.21765  0.52376  1.0000
  H   H323      1.0  0.51464  0.04499  0.90409  1.0000
  H   H324      1.0  0.95384  0.20266  0.75857  1.0000
  H   H325      1.0  0.60034  0.01524  0.81033  1.0000
  C   C326      1.0  0.68059  0.03103  0.79037  1.0000
  S   S119      1.0  0.74270  0.04304  0.71091  1.0000
  C   C327      1.0  0.51447  0.07961  0.88168  1.0000
  C   C328      1.0  0.57466  0.05882  0.80824  1.0000
  H   H326      1.0  0.94478  0.20172  0.79981  1.0000
  C   C329      1.0  0.70223  0.05739  0.78265  1.0000
  H   H327      1.0  0.71571  0.04870  0.84955  1.0000
  H   H328      1.0  0.59030  0.10553  0.75660  1.0000
  H   H329      1.0  0.70451  0.07537  0.79527  1.0000
  S   S120      1.0  0.95329  0.20213  0.55892  1.0000
  Fe  Fe59      1.0  0.97132  0.21584  0.60889  1.0000
  H   H330      1.0  0.73798  0.03513  0.85968  1.0000
  C   C330      1.0  0.90483  0.12471  0.68295  1.0000
  C   C331      1.0  0.90945  0.12215  0.65053  1.0000
  C   C332      1.0  0.89008  0.09908  0.63275  1.0000
  C   C333      1.0  0.86571  0.07871  0.64704  1.0000
  C   C334      1.0  0.86120  0.08102  0.67961  1.0000
  C   C335      1.0  0.88083  0.10392  0.69757  1.0000
  H   H331      1.0  0.92791  0.13800  0.63906  1.0000
  H   H332      1.0  0.89377  0.09733  0.60762  1.0000
  H   H333      1.0  0.84263  0.06526  0.69095  1.0000
  H   H334      1.0  0.87722  0.10572  0.72271  1.0000
  C   C336      1.0  0.95825  0.28681  0.72788  1.0000
  C   C337      1.0  0.94405  0.30080  0.73561  1.0000
  C   C338      1.0  0.93917  0.30478  0.76786  1.0000
  C   C339      1.0  0.94879  0.29508  0.79272  1.0000
  C   C340      1.0  0.96365  0.28178  0.78496  1.0000
  C   C341      1.0  0.96823  0.27751  0.75276  1.0000
  H   H335      1.0  0.92776  0.31510  0.77345  1.0000
  C   C342      1.0  0.85478  0.00590  0.66739  1.0000
  H   H336      1.0  0.72536  0.18196  0.95258  1.0000
  H   H337      1.0  0.56074  0.01916  0.83051  1.0000
  C   C343      1.0  0.71855  0.03748  0.74164  1.0000
  H   H338      1.0  0.52151  0.11666  0.85790  1.0000
  S   S121      1.0  0.99212  0.22903  0.69948  1.0000
  C   C344      1.0  0.71636  0.03449  0.91643  1.0000
  S   S122      1.0  0.88848  0.32840  0.83744  1.0000
  C   C345      1.0  0.70323  0.02729  0.94623  1.0000
  H   H339      1.0  0.92260  0.17343  0.77302  1.0000
  H   H340      1.0  0.73754  0.08107  0.75240  1.0000
  H   H341      1.0  0.88131  0.24762  0.74364  1.0000
  N   N28       1.0  0.80002  0.24377  0.95644  1.0000
  C   C346      1.0  0.77869  0.24842  0.95075  1.0000
  C   C347      1.0  0.79498  0.21748  0.96173  1.0000
  C   C348      1.0  0.75148  0.22635  0.94982  1.0000
  C   C349      1.0  0.76804  0.19492  0.96073  1.0000
  C   C350      1.0  0.74621  0.19943  0.95466  1.0000
  C   C351      1.0  0.82853  0.26691  0.95700  1.0000
  H   H342      1.0  0.78273  0.26914  0.94557  1.0000
  C   C352      1.0  0.62851  0.01779  0.99138  1.0000
  H   H343      1.0  0.73473  0.22998  0.94411  1.0000
  H   H344      1.0  0.83669  0.27127  0.98193  1.0000
  H   H345      1.0  0.92070  0.22871  0.52621  1.0000
  C   C353      1.0  0.74572  0.00738  0.53182  1.0000
  H   H346      1.0  0.97944  0.26700  0.74720  1.0000
  C   C354      1.0  0.67810  0.00793  0.77374  1.0000
  N   N29       1.0  0.82376  0.10957  0.65205  1.0000
  C   C355      1.0  0.84499  0.13266  0.66609  1.0000
  C   C356      1.0  0.82533  0.10341  0.62061  1.0000
  C   C357      1.0  0.86828  0.15063  0.64835  1.0000
  C   C358      1.0  0.84838  0.12090  0.60218  1.0000
  C   C359      1.0  0.86996  0.14472  0.61618  1.0000
  C   C360      1.0  0.79994  0.09036  0.67121  1.0000
  H   H347      1.0  0.84435  0.13690  0.69137  1.0000
  H   H348      1.0  0.80914  0.08438  0.60991  1.0000
  H   H349      1.0  0.88537  0.16838  0.65988  1.0000
  H   H350      1.0  0.84992  0.11542  0.57760  1.0000
  H   H351      1.0  0.83024  0.28610  0.94690  1.0000
  H   H352      1.0  0.78043  0.08298  0.65754  1.0000
  H   H353      1.0  0.80176  0.07216  0.67800  1.0000
  H   H354      1.0  0.79800  0.10008  0.69359  1.0000
  N   N30       1.0  0.92067  0.21001  0.76665  1.0000
  C   C361      1.0  0.91013  0.21909  0.79020  1.0000
  C   C362      1.0  0.91631  0.21308  0.73502  1.0000
  C   C363      1.0  0.89545  0.23237  0.78226  1.0000
  C   C364      1.0  0.90184  0.22637  0.72622  1.0000
  C   C365      1.0  0.89147  0.23616  0.75006  1.0000
  C   C366      1.0  0.93616  0.19625  0.77510  1.0000
  H   H355      1.0  0.91386  0.21708  0.81531  1.0000
  H   H356      1.0  0.92487  0.20606  0.71644  1.0000
  H   H357      1.0  0.88843  0.24088  0.80100  1.0000
  H   H358      1.0  0.89999  0.23034  0.70114  1.0000
  N   N31       1.0  0.70235  0.02131  0.88900  1.0000
  H   H359      1.0  0.63283  0.09458  0.76580  1.0000
  H   H360      1.0  0.57573  0.10450  0.79547  1.0000
  H   H361      1.0  0.61219  0.12332  0.79100  1.0000
  C   C367      1.0  0.59308  0.10442  0.78280  1.0000
  H   H362      1.0  0.73760  0.05117  0.91526  1.0000
  C   C368      1.0  0.61668  0.07783  0.77947  1.0000
  H   H363      1.0  0.70593  0.01360  0.83941  1.0000
  H   H364      1.0  0.63643  0.05316  0.77778  1.0000
  C   C369      1.0  0.59855  0.03318  0.80446  1.0000
  H   H365      1.0  0.84173  0.26195  0.94187  1.0000
  H   H366      1.0  0.75150  0.01977  0.55349  1.0000
  H   H367      1.0  0.86576  0.02836  0.66739  1.0000
  C   C370      1.0  0.71622  0.03011  0.85795  1.0000
  N   N32       1.0  0.59478  0.07974  0.79045  1.0000
  H   H368      1.0  0.76416  0.17393  0.96324  1.0000
  C   C371      1.0  0.61885  0.05451  0.78618  1.0000
  H   H369      1.0  0.55752  0.06051  0.81747  1.0000
  Fe  Fe60      1.0  0.91254  0.33262  0.92653  1.0000
  C   C372      1.0  0.99442  0.24488  0.52358  1.0000
  C   C373      1.0  0.67567  0.00649  0.94783  1.0000
  C   C374      1.0  0.57633  0.03534  0.81569  1.0000
  H   H370      1.0  0.95829  0.27740  0.51997  1.0000
  Fe  Fe61      1.0  0.74941  0.01254  0.68091  1.0000
  H   H371      1.0  0.71411  0.03814  0.96790  1.0000
  C   C375      1.0  0.69703  0.01109  0.74959  1.0000
  S   S123      1.0  0.78696  0.00962  0.69315  1.0000
  H   H372      1.0  0.96856  0.33198  0.95623  1.0000
  H   H373      1.0  0.84829  0.00257  0.61646  1.0000
  H   H374      1.0  0.85666  0.00271  0.71872  1.0000
  Fe  Fe62      1.0  0.53283  0.61835  0.12830  1.0000
  S   S124      1.0  0.52548  0.63533  0.08315  1.0000
  Fe  Fe63      1.0  0.56817  0.64486  0.06954  1.0000
  H   H375      1.0  0.98063  0.66433  0.01112  1.0000
  S   S125      1.0  0.57476  0.62565  0.11332  1.0000
  H   H376      1.0  0.62026  0.65074  0.20440  1.0000
  H   H377      1.0  0.60015  0.60877  0.05319  1.0000
  H   H378      1.0  0.99583  0.37791  0.06312  1.0000
  H   H379      1.0  0.54275  0.57298  0.01050  1.0000
  H   H380      1.0  0.62619  0.58628  0.03415  1.0000
  C   C376      1.0  0.95642  0.63632  0.04836  1.0000
  C   C377      1.0  0.61975  0.59654  0.01718  1.0000
  C   C378      1.0  0.98135  0.60278  0.01454  1.0000
  H   H381      1.0  0.64530  0.64854  0.25267  1.0000
  H   H382      1.0  0.95088  0.36634  0.03882  1.0000
  C   C379      1.0  0.60500  0.60925  0.02802  1.0000
  S   S126      1.0  0.57799  0.63880  0.01820  1.0000
  S   S127      1.0  0.55076  0.65915  0.15525  1.0000
  C   C380      1.0  0.65418  0.66718  0.23840  1.0000
  S   S128      1.0  0.50027  0.57749  0.15080  1.0000
  H   H383      1.0  0.97790  0.64046  0.12563  1.0000
  C   C381      1.0  0.98993  0.36765  0.04004  1.0000
  C   C382      1.0  0.96450  0.36124  0.02610  1.0000
  C   C383      1.0  0.66326  0.66170  0.11568  1.0000
  H   H384      1.0  0.68093  0.64471  0.06530  1.0000
  C   C384      1.0  0.97993  0.65951  0.03641  1.0000
  C   C385      1.0  0.95567  0.62925  0.08056  1.0000
  C   C386      1.0  0.63997  0.66836  0.21103  1.0000
  H   H385      1.0  0.93778  0.61101  0.08994  1.0000
  H   H386      1.0  0.67289  0.64882  0.11970  1.0000
  C   C387      1.0  0.97818  0.64560  0.10048  1.0000
  Fe  Fe64      1.0  0.59183  0.66785  0.13613  1.0000
  H   H387      1.0  0.98655  0.34905  0.15356  1.0000
  C   C388      1.0  0.67173  0.65701  0.05864  1.0000
  C   C389      1.0  0.66995  0.66201  0.02608  1.0000
  N   N33       1.0  0.66157  0.66704  0.08156  1.0000
  H   H388      1.0  0.64227  0.65072  0.12626  1.0000
  H   H389      1.0  0.93936  0.62338  0.03233  1.0000
  H   H390      1.0  0.96528  0.58610  0.02825  1.0000
  Fe  Fe65      1.0  0.91165  0.58624  0.84818  1.0000
  S   S129      1.0  0.90761  0.60785  0.89193  1.0000
  S   S130      1.0  0.92354  0.60179  0.79680  1.0000
  Fe  Fe66      1.0  0.88346  0.52924  0.87988  1.0000
  S   S131      1.0  0.87686  0.54680  0.92515  1.0000
  S   S132      1.0  0.86379  0.48231  0.87413  1.0000
  Fe  Fe67      1.0  0.86426  0.57155  0.89456  1.0000
  S   S133      1.0  0.82916  0.57799  0.91166  1.0000
  Fe  Fe68      1.0  0.92062  0.58160  0.91984  1.0000
  S   S134      1.0  0.94084  0.58940  0.96952  1.0000
  S   S135      1.0  0.86742  0.55140  0.84957  1.0000
  S   S136      1.0  0.92788  0.56242  0.87569  1.0000
  Fe  Fe69      1.0  0.90858  0.36581  0.87058  1.0000
  C   C390      1.0  0.80464  0.49480  0.91472  1.0000
  S   S137      1.0  0.92429  0.41189  0.86148  1.0000
  H   H391      1.0  0.51242  0.47457  0.85111  1.0000
  H   H392      1.0  0.73885  0.48779  0.87630  1.0000
  S   S138      1.0  0.94139  0.35641  0.88680  1.0000
  Fe  Fe70      1.0  0.64964  0.57369  0.91887  1.0000
  S   S139      1.0  0.62620  0.58040  0.87987  1.0000
  S   S140      1.0  0.64447  0.58054  0.97181  1.0000
  Fe  Fe71      1.0  0.67776  0.55342  0.87115  1.0000
  S   S141      1.0  0.65450  0.55754  0.82919  1.0000
  S   S142      1.0  0.70898  0.54040  0.85650  1.0000
  Fe  Fe72      1.0  0.66544  0.59862  0.85115  1.0000
  S   S143      1.0  0.69018  0.64165  0.82883  1.0000
  Fe  Fe73      1.0  0.61715  0.53841  0.86162  1.0000
  S   S144      1.0  0.57146  0.50879  0.84923  1.0000
  S   S145      1.0  0.68974  0.59496  0.89207  1.0000
  S   S146      1.0  0.63949  0.53117  0.90180  1.0000
  H   H393      1.0  0.93013  0.62453  0.73379  1.0000
  C   C391      1.0  0.54959  0.47270  0.85698  1.0000
  C   C392      1.0  0.52078  0.46119  0.85558  1.0000
  C   C393      1.0  0.54655  0.55477  0.93424  1.0000
  C   C394      1.0  0.51310  0.41472  0.86458  1.0000
  C   C395      1.0  0.54189  0.42628  0.86626  1.0000
  C   C396      1.0  0.56001  0.45506  0.86281  1.0000
  N   N34       1.0  0.54844  0.55583  0.96701  1.0000
  C   C397      1.0  0.67620  0.64971  0.73412  1.0000
  H   H394      1.0  0.55030  0.41284  0.86999  1.0000
  H   H395      1.0  0.58206  0.46346  0.86381  1.0000
  C   C398      1.0  0.79687  0.56947  0.89420  1.0000
  C   C399      1.0  0.77933  0.57614  0.91113  1.0000
  C   C400      1.0  0.75272  0.56819  0.89948  1.0000
  C   C401      1.0  0.74319  0.55314  0.87085  1.0000
  C   C402      1.0  0.76089  0.54683  0.85364  1.0000
  C   C403      1.0  0.78764  0.55509  0.86509  1.0000
  H   H396      1.0  0.78624  0.58731  0.93365  1.0000
  H   H397      1.0  0.73938  0.57316  0.91306  1.0000
  H   H398      1.0  0.75374  0.53522  0.83143  1.0000
  H   H399      1.0  0.80085  0.54977  0.85180  1.0000
  C   C404      1.0  0.88130  0.46316  0.87488  1.0000
  C   C405      1.0  0.91001  0.47609  0.87299  1.0000
  C   C406      1.0  0.92286  0.46005  0.86986  1.0000
  C   C407      1.0  0.90728  0.43091  0.86922  1.0000
  C   C408      1.0  0.87864  0.41799  0.87226  1.0000
  C   C409      1.0  0.86576  0.43403  0.87487  1.0000
  H   H400      1.0  0.92228  0.49846  0.87302  1.0000
  H   H401      1.0  0.94502  0.47030  0.86753  1.0000
  H   H402      1.0  0.86634  0.39562  0.87163  1.0000
  H   H403      1.0  0.84354  0.42375  0.87630  1.0000
  H   H404      1.0  0.58494  0.52331  0.97782  1.0000
  C   C410      1.0  0.62611  0.59692  0.98450  1.0000
  C   C411      1.0  0.61761  0.61013  0.96276  1.0000
  H   H405      1.0  0.94264  0.48431  0.79757  1.0000
  H   H406      1.0  0.99117  0.39731  0.92476  1.0000
  H   H407      1.0  0.62247  0.61070  0.93760  1.0000
  H   H408      1.0  0.66195  0.63716  0.71536  1.0000
  H   H409      1.0  0.93732  0.39212  0.94810  1.0000
  C   C412      1.0  0.76754  0.50367  0.91602  1.0000
  H   H410      1.0  0.96318  0.65429  0.82799  1.0000
  H   H411      1.0  0.89857  0.44356  0.80477  1.0000
  C   C413      1.0  0.94889  0.52552  0.79806  1.0000
  C   C414      1.0  0.97543  0.60816  0.98346  1.0000
  H   H412      1.0  0.95005  0.42892  0.94849  1.0000
  C   C415      1.0  0.75723  0.48936  0.88704  1.0000
  C   C416      1.0  0.93264  0.49660  0.79722  1.0000
  C   C417      1.0  0.67364  0.63849  0.76505  1.0000
  C   C418      1.0  0.93617  0.54147  0.79760  1.0000
  C   C419      1.0  0.69179  0.65458  0.78956  1.0000
  H   H413      1.0  0.69779  0.59841  0.72327  1.0000
  C   C420      1.0  0.60302  0.62292  0.97359  1.0000
  H   H414      1.0  0.79517  0.53713  0.96316  1.0000
  H   H415      1.0  0.97118  0.53552  0.79906  1.0000
  C   C421      1.0  0.94440  0.63612  0.78255  1.0000
  C   C422      1.0  0.94321  0.64142  0.74978  1.0000
  H   H416      1.0  0.75579  0.61369  0.82775  1.0000
  H   H417      1.0  0.88314  0.44732  0.76848  1.0000
  N   N35       1.0  0.79121  0.50662  0.92920  1.0000
  N   N36       1.0  0.90450  0.48397  0.79648  1.0000
  C   C423      1.0  0.89312  0.65247  0.76283  1.0000
  N   N37       1.0  0.73440  0.62285  0.79219  1.0000
  H   H418      1.0  0.94842  0.56395  0.79816  1.0000
  H   H419      1.0  0.70111  0.58330  0.77802  1.0000
  H   H420      1.0  0.86960  0.48948  0.79618  1.0000
  C   C424      1.0  0.95845  0.66852  0.73755  1.0000
  C   C425      1.0  0.57360  0.53155  0.96547  1.0000
  C   C426      1.0  0.79505  0.48053  0.88561  1.0000
  H   H421      1.0  0.75688  0.51310  0.92738  1.0000
  H   H422      1.0  0.89752  0.54069  0.79638  1.0000
  H   H423      1.0  0.80618  0.47170  0.87399  1.0000
  H   H424      1.0  0.51503  0.41762  0.79367  1.0000
  C   C427      1.0  0.75210  0.64960  0.78327  1.0000
  H   H425      1.0  0.65758  0.61750  0.76996  1.0000
  H   H426      1.0  0.86812  0.44586  0.80733  1.0000
  H   H427      1.0  0.55673  0.54123  0.89030  1.0000
  H   H428      1.0  0.76370  0.46713  0.84894  1.0000
  C   C428      1.0  0.89189  0.49946  0.79627  1.0000
  C   C429      1.0  0.71347  0.61279  0.73980  1.0000
  H   H429      1.0  0.59667  0.63321  0.95654  1.0000
  H   H430      1.0  0.53618  0.56396  0.92177  1.0000
  C   C430      1.0  0.80157  0.52142  0.95976  1.0000
  C   C431      1.0  0.56159  0.54425  0.98270  1.0000
  H   H431      1.0  0.82303  0.49647  0.92547  1.0000
  C   C432      1.0  0.57168  0.53031  0.93210  1.0000
  H   H432      1.0  0.67730  0.65338  0.00786  1.0000
  H   H433      1.0  0.97126  0.43485  0.00102  1.0000
  C   C433      1.0  0.77124  0.47792  0.87166  1.0000
  C   C434      1.0  0.90751  0.52839  0.79666  1.0000
  C   C435      1.0  0.88777  0.45371  0.79402  1.0000
  N   N38       1.0  0.97955  0.41680  0.96056  1.0000
  S   S147      1.0  0.88072  0.34360  0.91168  1.0000
  H   H434      1.0  0.58091  0.52053  0.91842  1.0000
  C   C436      1.0  0.95531  0.41275  0.94256  1.0000
  C   C437      1.0  0.99598  0.40761  0.94794  1.0000
  H   H435      1.0  0.79388  0.50661  0.97999  1.0000
  C   C438      1.0  0.73634  0.61406  0.82471  1.0000
  H   H436      1.0  0.88471  0.63305  0.77569  1.0000
  C   C439      1.0  0.55809  0.54198  0.91632  1.0000
  H   H437      1.0  0.71899  0.59300  0.83005  1.0000
  C   C440      1.0  0.96173  0.65809  0.80283  1.0000
  H   H438      1.0  0.54052  0.58887  0.97456  1.0000
  H   H439      1.0  0.73553  0.62838  0.84268  1.0000
  H   H440      1.0  0.99216  0.63416  0.94206  1.0000
  C   C441      1.0  0.99641  0.62973  0.96595  1.0000
  C   C442      1.0  0.71532  0.60445  0.77088  1.0000
  C   C443      1.0  0.73141  0.64005  0.73052  1.0000
  H   H441      1.0  0.95898  0.41395  0.91626  1.0000
  C   C444      1.0  0.50264  0.43248  0.85977  1.0000
  C   C445      1.0  0.88757  0.65193  0.72998  1.0000
  H   H442      1.0  0.51212  0.37446  0.80129  1.0000
  C   C446      1.0  0.53537  0.56859  0.98519  1.0000
  C   C447      1.0  0.98484  0.42848  0.99054  1.0000
  H   H443      1.0  0.82448  0.53318  0.96014  1.0000
  S   S148      1.0  0.92438  0.34076  0.97943  1.0000
  H   H444      1.0  0.87498  0.63239  0.71761  1.0000
  H   H445      1.0  0.91231  0.65742  0.82105  1.0000
  H   H446      1.0  0.51267  0.55475  0.98518  1.0000
  C   C448      1.0  0.95668  0.34851  0.99573  1.0000
  H   H447      1.0  0.72963  0.64707  0.70684  1.0000
  C   C449      1.0  0.97442  0.34197  0.97952  1.0000
  C   C450      1.0  0.75098  0.65857  0.75230  1.0000
  H   H448      1.0  0.76679  0.66430  0.80041  1.0000
  C   C451      1.0  0.59670  0.62262  0.00621  1.0000
  H   H449      1.0  0.56347  0.54537  0.00862  1.0000
  H   H450      1.0  0.81901  0.72977  0.42672  1.0000
  H   H451      1.0  0.98299  0.67824  0.21223  1.0000
  H   H452      1.0  0.66727  0.78558  0.19374  1.0000
  H   H453      1.0  0.71606  0.96039  0.23956  1.0000
  H   H454      1.0  0.83753  0.70251  0.37189  1.0000
  S   S149      1.0  0.67847  0.94092  0.30764  1.0000
  Fe  Fe74      1.0  0.95235  0.75313  0.32616  1.0000
  S   S150      1.0  0.90908  0.73479  0.30558  1.0000
  S   S151      1.0  0.96491  0.72745  0.35540  1.0000
  Fe  Fe75      1.0  0.73839  0.75158  0.37870  1.0000
  S   S152      1.0  0.77285  0.79228  0.36201  1.0000
  S   S153      1.0  0.72101  0.74790  0.42855  1.0000
  Fe  Fe76      1.0  0.72786  0.72648  0.31070  1.0000
  S   S154      1.0  0.76256  0.76528  0.28929  1.0000
  S   S155      1.0  0.69620  0.68824  0.28312  1.0000
  Fe  Fe77      1.0  0.78642  0.76674  0.33379  1.0000
  S   S156      1.0  0.83265  0.78465  0.33973  1.0000
  Fe  Fe78      1.0  0.74634  0.78728  0.31945  1.0000
  S   S157      1.0  0.73441  0.81720  0.29914  1.0000
  S   S158      1.0  0.75301  0.72592  0.35314  1.0000
  S   S159      1.0  0.71057  0.74854  0.33834  1.0000
  Fe  Fe79      1.0  0.72152  0.96887  0.32870  1.0000
  S   S160      1.0  0.75952  0.97087  0.30821  1.0000
  H   H455      1.0  0.76592  0.80705  0.43160  1.0000
  Fe  Fe80      1.0  0.76681  0.96070  0.35790  1.0000
  S   S161      1.0  0.78311  0.93243  0.37062  1.0000
  S   S162      1.0  0.72741  0.95535  0.37770  1.0000
  Fe  Fe81      1.0  0.58551  0.92348  0.15344  1.0000
  S   S163      1.0  0.60105  0.90802  0.11351  1.0000
  S   S164      1.0  0.61853  0.95690  0.18584  1.0000
  Fe  Fe82      1.0  0.52545  0.88921  0.12995  1.0000
  S   S165      1.0  0.53778  0.87066  0.08953  1.0000
  Fe  Fe83      1.0  0.56521  0.86577  0.12520  1.0000
  S   S166      1.0  0.57894  0.83370  0.13273  1.0000
  Fe  Fe84      1.0  0.57256  0.91419  0.08139  1.0000
  H   H456      1.0  0.66432  0.95299  0.47389  1.0000
  S   S167      1.0  0.55063  0.88121  0.16665  1.0000
  S   S168      1.0  0.55923  0.93285  0.12015  1.0000
  H   H457      1.0  0.54085  0.99334  0.08288  1.0000
  S   S169      1.0  0.99029  0.77120  0.29549  1.0000
  S   S170      1.0  0.63440  0.69568  0.15826  1.0000
  C   C452      1.0  0.83105  0.74001  0.40486  1.0000
  S   S171      1.0  0.52588  0.70348  0.10556  1.0000
  H   H458      1.0  0.77801  0.83489  0.45998  1.0000
  C   C453      1.0  0.92563  0.83345  0.28981  1.0000
  C   C454      1.0  0.56373  0.79756  0.12424  1.0000
  C   C455      1.0  0.53668  0.78137  0.11290  1.0000
  C   C456      1.0  0.52551  0.75272  0.10724  1.0000
  C   C457      1.0  0.54121  0.73985  0.11260  1.0000
  C   C458      1.0  0.56831  0.75606  0.12378  1.0000
  C   C459      1.0  0.57940  0.78466  0.12964  1.0000
  C   C460      1.0  0.87897  0.71391  0.38455  1.0000
  S   S172      1.0  0.58786  0.68763  0.09088  1.0000
  H   H459      1.0  0.58069  0.74656  0.12799  1.0000
  H   H460      1.0  0.60034  0.79692  0.13833  1.0000
  C   C461      1.0  0.66189  0.94620  0.27427  1.0000
  C   C462      1.0  0.67283  0.97175  0.25887  1.0000
  C   C463      1.0  0.65907  0.97474  0.23217  1.0000
  C   C464      1.0  0.63448  0.95218  0.22023  1.0000
  C   C465      1.0  0.62358  0.92662  0.23564  1.0000
  C   C466      1.0  0.63711  0.92375  0.26264  1.0000
  H   H461      1.0  0.72932  0.93957  0.22263  1.0000
  C   C467      1.0  0.64707  0.68716  0.04060  1.0000
  H   H462      1.0  0.60463  0.90913  0.22685  1.0000
  C   C468      1.0  0.65874  0.92325  0.17058  1.0000
  C   C469      1.0  0.74972  0.85029  0.31693  1.0000
  C   C470      1.0  0.73926  0.86780  0.30997  1.0000
  C   C471      1.0  0.74997  0.89356  0.32556  1.0000
  C   C472      1.0  0.77125  0.90187  0.34806  1.0000
  C   C473      1.0  0.78217  0.88467  0.35435  1.0000
  C   C474      1.0  0.77141  0.85893  0.33887  1.0000
  H   H463      1.0  0.72251  0.86122  0.29296  1.0000
  H   H464      1.0  0.74141  0.90671  0.32069  1.0000
  H   H465      1.0  0.79870  0.89110  0.37167  1.0000
  H   H466      1.0  0.77985  0.84577  0.34405  1.0000
  C   C475      1.0  0.67957  0.69011  0.24778  1.0000
  H   H467      1.0  0.88965  0.76646  0.23913  1.0000
  H   H468      1.0  0.70863  0.92899  0.25860  1.0000
  C   C476      1.0  0.65140  0.69232  0.19238  1.0000
  C   C477      1.0  0.67710  0.71495  0.20133  1.0000
  C   C478      1.0  0.69093  0.71403  0.22909  1.0000
  H   H469      1.0  0.66022  0.71291  0.29741  1.0000
  H   H470      1.0  0.97535  0.81647  0.28909  1.0000
  H   H471      1.0  0.68618  0.73356  0.18701  1.0000
  H   H472      1.0  0.71052  0.73174  0.23590  1.0000
  C   C479      1.0  0.88728  0.74764  0.31685  1.0000
  C   C480      1.0  0.85983  0.73416  0.30589  1.0000
  C   C481      1.0  0.84240  0.74472  0.31333  1.0000
  C   C482      1.0  0.85250  0.76901  0.33150  1.0000
  C   C483      1.0  0.87974  0.78213  0.34293  1.0000
  C   C484      1.0  0.89701  0.77148  0.33574  1.0000
  H   H473      1.0  0.85212  0.71566  0.29126  1.0000
  H   H474      1.0  0.82142  0.73445  0.30442  1.0000
  H   H475      1.0  0.88766  0.80091  0.35706  1.0000
  H   H476      1.0  0.91798  0.78206  0.34434  1.0000
  C   C485      1.0  0.73034  0.97559  0.47526  1.0000
  H   H477      1.0  0.68070  0.98425  0.36114  1.0000
  H   H478      1.0  0.72420  0.96322  0.45356  1.0000
  C   C486      1.0  0.89825  0.82294  0.28009  1.0000
  C   C487      1.0  0.73855  0.74735  0.46354  1.0000
  C   C488      1.0  0.76287  0.74630  0.46207  1.0000
  H   H479      1.0  0.98210  0.85034  0.27810  1.0000
  H   H480      1.0  0.77132  0.74567  0.43902  1.0000
  H   H481      1.0  0.67255  0.88554  0.23901  1.0000
  H   H482      1.0  0.83666  0.76215  0.40502  1.0000
  H   H483      1.0  0.63114  0.71689  0.30764  1.0000
  C   C489      1.0  0.63073  0.72653  0.23665  1.0000
  H   H484      1.0  0.92079  0.76764  0.43346  1.0000
  C   C490      1.0  0.66773  0.95995  0.44917  1.0000
  C   C491      1.0  0.98259  0.75712  0.47740  1.0000
  H   H485      1.0  0.74426  0.89031  0.42045  1.0000
  N   N39       1.0  0.74634  0.83109  0.42786  1.0000
  C   C492      1.0  0.72776  0.81547  0.40447  1.0000
  C   C493      1.0  0.75194  0.85750  0.43406  1.0000
  C   C494      1.0  0.71453  0.82635  0.38625  1.0000
  C   C495      1.0  0.73901  0.86900  0.41636  1.0000
  C   C496      1.0  0.72018  0.85327  0.39235  1.0000
  C   C497      1.0  0.75939  0.81890  0.44712  1.0000
  H   H486      1.0  0.72328  0.79455  0.39955  1.0000
  H   H487      1.0  0.76671  0.86999  0.45248  1.0000
  H   H488      1.0  0.70063  0.81426  0.36692  1.0000
  S   S173      1.0  0.97009  0.78897  0.36017  1.0000
  H   H489      1.0  0.62359  0.74026  0.19113  1.0000
  S   S174      1.0  0.97054  0.76298  0.44050  1.0000
  C   C498      1.0  0.72778  0.74820  0.49359  1.0000
  C   C499      1.0  0.64954  0.68209  0.07292  1.0000
  C   C500      1.0  0.90244  0.75324  0.42006  1.0000
  H   H490      1.0  0.69876  0.79657  0.24080  1.0000
  C   C501      1.0  0.64143  0.71233  0.28784  1.0000
  N   N40       1.0  0.85579  0.73749  0.40344  1.0000
  H   H491      1.0  0.87886  0.77185  0.43486  1.0000
  H   H492      1.0  0.64950  0.91842  0.42990  1.0000
  N   N41       1.0  0.64846  0.73246  0.26196  1.0000
  H   H493      1.0  0.61191  0.70660  0.23491  1.0000
  H   H494      1.0  0.70896  0.74899  0.49489  1.0000
  C   C502      1.0  0.63720  0.74555  0.21179  1.0000
  C   C503      1.0  0.96817  0.83158  0.29211  1.0000
  C   C504      1.0  0.66181  0.77088  0.21315  1.0000
  H   H495      1.0  0.69177  0.98928  0.26763  1.0000
  C   C505      1.0  0.90252  0.73235  0.40178  1.0000
  H   H496      1.0  0.68636  0.76235  0.28389  1.0000
  H   H497      1.0  0.52431  0.79089  0.10866  1.0000
  H   H498      1.0  0.95404  0.76389  0.50483  1.0000
  H   H499      1.0  0.93785  0.78571  0.25691  1.0000
  H   H500      1.0  0.65447  0.93428  0.15216  1.0000
  H   H501      1.0  0.63651  0.69817  0.03380  1.0000
  C   C506      1.0  0.85557  0.71667  0.38581  1.0000
  H   H502      1.0  0.62222  0.88399  0.16063  1.0000
  C   C507      1.0  0.64556  0.88145  0.20014  1.0000
  H   H503      1.0  0.81764  0.73055  0.38341  1.0000
  C   C508      1.0  0.92708  0.79667  0.26296  1.0000
  H   H504      1.0  0.69561  0.95935  0.18687  1.0000
  H   H505      1.0  0.61671  0.98134  0.06117  1.0000
  H   H506      1.0  0.63119  0.85965  0.20419  1.0000
  C   C509      1.0  0.87872  0.75547  0.42071  1.0000
  H   H507      1.0  0.97049  0.83718  0.31801  1.0000
  H   H508      1.0  0.62837  0.90390  0.27442  1.0000
  C   C510      1.0  0.97027  0.75889  0.50594  1.0000
  C   C511      1.0  0.64050  0.89513  0.17552  1.0000
  H   H509      1.0  0.52750  0.91899  0.03645  1.0000
  H   H510      1.0  0.65750  0.93414  0.37311  1.0000
  C   C512      1.0  0.53723  0.95780  0.05812  1.0000
  C   C513      1.0  0.67947  0.77699  0.23938  1.0000
  N   N42       1.0  0.93955  0.82014  0.28150  1.0000
  H   H511      1.0  0.93550  0.85199  0.30460  1.0000
  C   C514      1.0  0.65930  0.94030  0.42443  1.0000
  C   C515      1.0  0.67683  0.97730  0.38588  1.0000
  H   H512      1.0  0.88681  0.83284  0.28779  1.0000
  C   C516      1.0  0.71142  0.93888  0.23474  1.0000
  H   H513      1.0  0.62775  0.69081  0.27907  1.0000
  H   H514      1.0  0.79454  0.74429  0.48940  1.0000
  H   H515      1.0  0.87916  0.69808  0.36958  1.0000
  H   H516      1.0  0.71071  0.86230  0.37779  1.0000
  C   C517      1.0  0.66377  0.94909  0.39261  1.0000
  N   N43       1.0  0.68662  0.92385  0.21475  1.0000
  H   H517      1.0  0.86375  0.78997  0.25483  1.0000
  H   H518      1.0  0.74447  0.80439  0.46495  1.0000
  H   H519      1.0  0.64153  0.69004  0.09109  1.0000
  C   C518      1.0  0.67236  0.75748  0.26378  1.0000
  C   C519      1.0  0.61517  0.98521  0.03604  1.0000
  C   C520      1.0  0.88528  0.79886  0.26150  1.0000
  Fe  Fe85      1.0  0.98441  0.76438  0.38879  1.0000
  S   S175      1.0  0.58002  0.92850  0.02920  1.0000
  C   C521      1.0  0.89979  0.78570  0.25268  1.0000
  C   C522      1.0  0.66892  0.89620  0.21963  1.0000
  C   C523      1.0  0.68189  0.93735  0.19045  1.0000
  C   C524      1.0  0.68522  0.99641  0.41120  1.0000
  H   H520      1.0  0.92090  0.73060  0.40083  1.0000
  C   C525      1.0  0.52704  0.97212  0.07532  1.0000
  N   N44       1.0  0.68061  0.98761  0.44236  1.0000
  C   C526      1.0  0.77598  0.74553  0.49060  1.0000
  H   H521      1.0  0.98700  0.70389  0.26268  1.0000
  H   H522      1.0  0.55893  0.96777  0.05220  1.0000
  C   C527      1.0  0.59878  0.96312  0.01542  1.0000
  H   H523      1.0  0.50455  0.74046  0.09859  1.0000
  H   H524      1.0  0.66759  0.99464  0.22053  1.0000
  Fe  Fe86      1.0  0.54609  0.67676  0.10871  1.0000
  C   C528      1.0  0.51941  0.93020  0.04934  1.0000
  Fe  Fe87      1.0  0.75207  0.00058  0.38957  1.0000
  H   H525      1.0  0.67560  0.68160  0.12889  1.0000
  C   C529      1.0  0.65743  0.67710  0.01708  1.0000
  H   H526      1.0  0.69271  0.00020  0.49102  1.0000
  C   C530      1.0  0.72209  0.96272  0.50539  1.0000
  H   H527      1.0  0.70970  0.94040  0.50676  1.0000
  Fe  Fe88      1.0  0.94798  0.74853  0.65811  1.0000
  S   S176      1.0  0.96277  0.71803  0.65496  1.0000
  S   S177      1.0  0.90176  0.72802  0.65470  1.0000
  H   H528      1.0  0.93431  0.72101  0.77394  1.0000
  H   H529      1.0  0.83256  0.93894  0.60025  1.0000
  S   S178      1.0  0.97397  0.77144  0.70071  1.0000
  Fe  Fe89      1.0  0.79548  0.77374  0.66863  1.0000
  S   S179      1.0  0.77252  0.73109  0.64738  1.0000
  S   S180      1.0  0.83781  0.79072  0.69091  1.0000
  Fe  Fe90      1.0  0.75330  0.78889  0.64480  1.0000
  S   S181      1.0  0.72753  0.74689  0.62167  1.0000
  S   S182      1.0  0.73950  0.81968  0.63246  1.0000
  Fe  Fe91      1.0  0.73494  0.72993  0.66736  1.0000
  S   S183      1.0  0.69963  0.68990  0.68782  1.0000
  Fe  Fe92      1.0  0.76755  0.75202  0.60414  1.0000
  S   S184      1.0  0.78163  0.74457  0.55604  1.0000
  S   S185      1.0  0.75811  0.77167  0.69173  1.0000
  S   S186      1.0  0.79268  0.79484  0.62433  1.0000
  Fe  Fe93      1.0  0.76253  0.96554  0.67521  1.0000
  S   S187      1.0  0.72380  0.96737  0.66676  1.0000
  S   S188      1.0  0.76624  0.93216  0.70200  1.0000
  Fe  Fe94      1.0  0.74098  0.98134  0.61686  1.0000
  S   S189      1.0  0.71693  0.96189  0.57097  1.0000
  H   H530      1.0  0.66366  0.99165  0.86842  1.0000
  H   H531      1.0  0.90548  0.73719  0.57597  1.0000
  H   H532      1.0  0.67026  0.71950  0.67722  1.0000
  C   C531      1.0  0.97862  0.75407  0.53592  1.0000
  C   C532      1.0  0.90585  0.77352  0.59399  1.0000
  H   H533      1.0  0.82631  0.76851  0.61533  1.0000
  H   H534      1.0  0.73141  0.71396  0.74684  1.0000
  C   C533      1.0  0.97745  0.68509  0.79044  1.0000
  C   C534      1.0  0.72970  0.97855  0.53379  1.0000
  H   H535      1.0  0.85616  0.80193  0.61921  1.0000
  H   H536      1.0  0.64866  0.75508  0.63966  1.0000
  H   H537      1.0  0.99096  0.70194  0.80626  1.0000
  H   H538      1.0  0.68321  0.77586  0.62414  1.0000
  H   H539      1.0  0.65494  0.68023  0.99188  1.0000
  C   C535      1.0  0.66139  0.99349  0.91972  1.0000
  H   H540      1.0  0.73247  0.74830  0.54507  1.0000
  N   N45       1.0  0.86207  0.77136  0.59503  1.0000
  C   C536      1.0  0.74823  0.85125  0.65198  1.0000
  C   C537      1.0  0.74167  0.86960  0.63676  1.0000
  C   C538      1.0  0.74714  0.89445  0.65179  1.0000
  C   C539      1.0  0.75878  0.90095  0.68251  1.0000
  C   C540      1.0  0.76533  0.88260  0.69781  1.0000
  C   C541      1.0  0.76027  0.85791  0.68253  1.0000
  H   H541      1.0  0.73219  0.86453  0.61320  1.0000
  H   H542      1.0  0.74194  0.90836  0.63978  1.0000
  H   H543      1.0  0.77443  0.88755  0.72156  1.0000
  H   H544      1.0  0.76537  0.84393  0.69451  1.0000
  C   C542      1.0  0.89871  0.67677  0.71315  1.0000
  C   C543      1.0  0.82629  0.94855  0.66648  1.0000
  C   C544      1.0  0.71527  0.69299  0.75173  1.0000
  N   N46       1.0  0.90976  0.67706  0.77828  1.0000
  H   H545      1.0  0.89471  0.67685  0.68765  1.0000
  H   H546      1.0  0.83101  0.95115  0.71796  1.0000
  C   C545      1.0  0.66958  0.75770  0.63927  1.0000
  C   C546      1.0  0.86515  0.73300  0.57391  1.0000
  C   C547      1.0  0.88471  0.74559  0.66693  1.0000
  C   C548      1.0  0.89900  0.77294  0.67817  1.0000
  C   C549      1.0  0.88444  0.78655  0.68608  1.0000
  C   C550      1.0  0.85565  0.77291  0.68270  1.0000
  C   C551      1.0  0.84154  0.74541  0.67215  1.0000
  C   C552      1.0  0.85598  0.73186  0.66416  1.0000
  H   H547      1.0  0.92121  0.78367  0.68044  1.0000
  H   H548      1.0  0.89552  0.80778  0.69450  1.0000
  H   H549      1.0  0.81944  0.73435  0.67053  1.0000
  H   H550      1.0  0.84482  0.71066  0.65567  1.0000
  H   H551      1.0  0.81491  0.92610  0.66642  1.0000
  H   H552      1.0  0.89983  0.68132  0.82618  1.0000
  H   H553      1.0  0.66525  0.00083  0.97081  1.0000
  C   C553      1.0  0.83564  0.96265  0.69573  1.0000
  C   C554      1.0  0.88978  0.78544  0.60119  1.0000
  H   H554      1.0  0.89947  0.80564  0.61269  1.0000
  H   H555      1.0  0.63975  0.97777  0.92073  1.0000
  H   H556      1.0  0.71150  0.81187  0.72843  1.0000
  C   C555      1.0  0.84529  0.78382  0.60277  1.0000
  H   H557      1.0  0.85520  0.71226  0.56385  1.0000
  C   C556      1.0  0.84973  0.74562  0.58120  1.0000
  C   C557      1.0  0.89338  0.74706  0.58044  1.0000
  S   S190      1.0  0.99497  0.72513  0.74394  1.0000
  H   H558      1.0  0.61024  0.99969  0.94574  1.0000
  H   H559      1.0  0.92391  0.72104  0.71631  1.0000
  H   H560      1.0  0.58432  0.95158  0.96673  1.0000
  C   C558      1.0  0.76507  0.74621  0.52068  1.0000
  C   C559      1.0  0.61171  0.99577  0.97085  1.0000
  C   C560      1.0  0.74106  0.74781  0.52206  1.0000
  H   H561      1.0  0.66145  0.98743  0.77951  1.0000
  C   C561      1.0  0.67508  0.00135  0.89028  1.0000
  H   H562      1.0  0.93601  0.69379  0.81915  1.0000
  Fe  Fe95      1.0  0.99539  0.74944  0.62234  1.0000
  C   C562      1.0  0.59708  0.96855  0.98281  1.0000
  H   H563      1.0  0.66857  0.73933  0.62752  1.0000
  S   S191      1.0  0.97835  0.77794  0.62251  1.0000
  H   H564      1.0  0.72645  0.69461  0.80161  1.0000
  H   H565      1.0  0.82771  0.73460  0.57627  1.0000
  H   H566      1.0  0.83922  0.79026  0.58047  1.0000
  H   H567      1.0  0.96862  0.75510  0.55750  1.0000
  Fe  Fe96      1.0  0.99046  0.74227  0.69605  1.0000
  N   N47       1.0  0.83035  0.96280  0.63853  1.0000
  C   C563      1.0  0.97566  0.69053  0.75786  1.0000
  N   N48       1.0  0.68059  0.76165  0.67202  1.0000
  C   C564      1.0  0.69140  0.78707  0.68644  1.0000
  C   C565      1.0  0.67904  0.73977  0.68845  1.0000
  C   C566      1.0  0.70212  0.79140  0.71761  1.0000
  C   C567      1.0  0.68923  0.74326  0.71982  1.0000
  C   C568      1.0  0.70103  0.76930  0.73436  1.0000
  C   C569      1.0  0.92079  0.70150  0.76191  1.0000
  H   H568      1.0  0.69247  0.80440  0.67349  1.0000
  H   H569      1.0  0.81845  0.96061  0.58925  1.0000
  S   S192      1.0  0.77788  0.97671  0.62492  1.0000
  H   H570      1.0  0.68838  0.72591  0.73247  1.0000
  H   H571      1.0  0.70952  0.77238  0.75843  1.0000
  H   H572      1.0  0.95709  0.67234  0.71238  1.0000
  C   C570      1.0  0.81944  0.94735  0.60843  1.0000
  H   H573      1.0  0.76450  0.68000  0.74555  1.0000
  C   C571      1.0  0.84981  0.99152  0.69615  1.0000
  H   H574      1.0  0.92760  0.78423  0.60008  1.0000
  H   H575      1.0  0.79801  0.92992  0.61192  1.0000
  C   C572      1.0  0.91528  0.70170  0.72922  1.0000
  C   C573      1.0  0.71240  0.68195  0.78277  1.0000
  H   H576      1.0  0.69482  0.99315  0.73691  1.0000
  C   C574      1.0  0.91463  0.67741  0.81290  1.0000
  C   C575      1.0  0.69714  0.67690  0.72722  1.0000
  C   C576      1.0  0.84487  0.99114  0.63860  1.0000
