data_image0
_chemical_formula_structural       CFeS2FeSFeSFeS3FeS2FeS2Fe2S3CFeSCSFeSFeS2FeS2FeS2FeHFeHS2H3CHNHC2H2C2H2CHC10H3C6H4C6H5NC2SC2HC7H4C5H5CH2C2HCHCH3CNCHC2HCH2CH4C2NHC2H2SCFeH3CHCSC2H2CH2SC2H2NC6H8CHCHCH5C3NHC2SCSCHNHCH6C2HCHNCHCHSCH2SHCHC2SFeS2FeSFeS3C2SFeS2FeSHFeSFeS3FeSFeS2FeSFeSFeS2FeS2FeSFeCS2HC6H2CH2CHC6H5C3NC6HSH2FeHCHCH2C2HCH2NCHC8H4C6HNC2H4CHC3SNH3CNCNHCHCH2CHCHCHC2NHCHNC6H8C2HCHCHC2HCH3CHC3HCHC4HSHCHCHCHCHC2H2CH2NH2CH3C2H5SCH9CH2CHC2SFeS2FeS2Fe2S4H5FeSFeSFeSFeS2FeS2FeS2FeHFeS3FeS2FeS2Fe2S3C6H4C2HC2NH4CHC6H6C7HCH2CSC2H3CH2CH2SH3SNC6H4C6H2CHC2HC3HC2H3C2SHSHC2H2C2HCHC3H2CH4CNHCNCHC2HC3H2CHC2NCH5C2H2CH3C3H2CHC2H6CHC2HC2NHC2HC2H2SHCH2FeS2FeCFeSFeS3FeS2FeS2FeSFeHS3FeS2FeS2FeSFeCS2FeSFeS4CHC2HCH4C2H2C6H3CHC7H4C6HCH3C6H4C2H2C2NHC8H3CHNHC3H3CH5SCH5FeHCH2C2HCHNHC2HSH2CHC2NCH2CNH2C2HCHCH2CHC2H4C5H3SCHC2HCHCH2C2HC3FeNHCHCH2NHSH2CHCHN2CHCH7C2HCHC2HC2HCHCH3CHC2FeS2FeSFeSFeS3CFeS2FeS2FeCFeS3FeS2FeSCFeSFeS3FeS2FeS2FeSFeHS2H2C2HCH3C6H4CH2C4HC2H2C7H4C2H3C5NH4C6H4C2HC2HC4H4NC4H4CHCHC3H2NC2SCH5C2H3CHCH2C3NH3CNC6H8NC4H4SCH2CH2C2H3CH5C2NHC2H5C4SHCH5CHCHNH2C4HSHC4FeSFeS2FeSFeS4FeS2FeSHFeSFeS2HFeCSFeS2FeHFeCS2FeS2FeS2FeSFeS3C6H4C2HCH2C2HCH3C2H2C6H4C6H6C8H4C6H4CHCSHCHC2H4CH3C2H2C2H3C2HCHCHCSHNH2CH2NC6H8C2SC2H2CH3CHCHNC5H2NCHCHC3H2NCH3C2NCHNCH5CH2CHSHC2FeS2FeSFeSFeS3HFeSFeS2CFeS2FeS2FeSFeCFeNS2C2FeS2FeS2FeCFeS4C6HCH4CH4CH2CNCH6C3H2CH3C6H6CHC3H2C6H4C6H2CHCSH2CSH2NHCH3C3HC3HC2HSHSCHCHNHNCH3NCH2SH2C2SHCH4FeCHC6H2C2HC2HCH4C2H2C2NC6H6C5H2C2HSHNHCHC2HSH3C2FeS2FeSHFeSFeS3FeS2FeSCFeSFeS3CH2CFeCSFeS2FeHFeHS2FeS2FeSFe2HS2H2SC6HC4HC3HCHCH2CNH3SHC7H4C4H2C4NH3C7H4C3HCH3C4H7CSCSCHNC6H10CHC2H5SC2HCHC2H2NC3H7SC2SH2C3HCH3SC3H2CH3CHCNCHCH5CHCH2C2SH2CNC2HC3HC2NHCHFeSCFeS2FeSFeS3FeS2FeS2Fe2S3CHCHCFeS2FeSFeS2FeS2FeS2FeCFeCS2HCHC5H2C2H2SH2C2H2CH3NCH5C6H4C2HSH3C6H4C6H4CH4C6H3C2HCH3CNHFeC3H3SC7H2SHC2SHNHC2H5CHNCHCH2C2HC2H2NCH4NC6H8CH3CH2C2SHC3H2NFeS2FeSHFeSFeS3FeSFeS2Fe3S2FeS2FeSFeHS2H2C2FeS2FeS2FeSFeS3CH3C7H3CH2C2H5NH2SH5C6H4C7HC7H4C2HSH3CHC4HCH2C7N3C2HCHCH3CH2CHC6NHC2H2CHSH5CH2NHCH3CHC3HCHCH2C3SHC2NH3C2H3CSC2HCHCHSHCHNH2CHCH2C3H2C4H2C3H3C2HSH4CH2S2CHCHCSFeSFeS2FeSFeS3FeSHFeSCFeSFeS3FeS2FeHSFeCFeHS2HFeS2FeS2FeSFeS2CSCH2C5H4SCH2SC3H2CHCH2C7H4C6H5C2H2C3H2C6H4C8H4CNC6H6CH2CH2NHSHC3HCH3CNHNHC4HCH2CHNC6H8C2HC2H2NH2SH7CHCHCHNCHC2HNHCH2CHCHSH5C7HC2H3C2FeSFeS2FeSFeS4FeSFeS2FeSFeS3FeS2FeS2FeCFeCS2FeS2FeS2FeNFeS3HCNC6H4CSH2C2HNCHC2HC6H4C2HC6H4C6H4C2SH2C6H4CNH2CH4C2H3C2HCHC3H2CH4CNCH2C2H2CHCHCHCH2CHCNC6H8NC6H3C2H6NH3CH3CHCHCSCH3C3H2SC2H4CHCH3CH2FeS2FeS2Fe2S3FeS2FeSHFeSFeS3FeS2FeS2FeSFeCS2FeS2FeSFeHFeHS2HCSCH2CH4SH3C2H3C6H5CHC3SC7H4C2HNC4H5C6H4C6H2CHC2HCHNC2H3NC3H5NC6H8CHCH3SNH2CH2CH2C3HNCH2CHC6HNC2H3C2HCH2CH3SHC2H2C2H2CHCHSC3HC3HCHC2HC3NH2CH2CH3FeS2FeS2FeSFeCS2CHFeSFeSFeSFeS2FeS2FeS2FeHFeCS2FeS2FeS2FeSCS2HC6H4CHCHCH2C6H4C6H4CH3C2NHFeHC3H2C6H4C6H4C3SHNHNC6H10C2NC4HN2H6CHC2H3SHCHCH2SH2C3NH2NC2HSC2HCH7C2H3SC2HCHC3SNC3H3CHC2H5C6HCFeS2FeS2Fe2S3H2FeS2FeS2FeSFeCS2FeSFeS2FeCFeCS2FeS2NSFeSFeS3C3HC3HNH2CHC7H4C6H9C2HC2H3NCNHC7H4C6H4C3H3NC6H2C2H5FeC2H3CHC6H3SCH2CH3C2HCSCH3C2H3C2HCNC3NHC2H2CH7C3HC2H2NHCH5CHC2H2CH2CHSHCSH2C3H4CHCH2C2HC2FeS2FeSHFeSFeS3CFeS2CSFeSFeS3FeSNFeSHFeSFeS2FeS2FeS2FeSFeCS2CH3CH3CHCH6C6HCH2C9H4C2HC3H2C4H3CHC6H4C6H4C3H2C3H2SHC2SNHC3HC2HCN2H7CH2C4HNH2NC6H9CSC3NS2H2CH2C2HCHC2NH2CHCHCFeHC3NHCH2CNHC2HSH4SHC3H3C3H2C2HCH3C
_chemical_formula_sum              "C1536 Fe256 S512 H1536 N128"
_cell_length_a       61.6745
_cell_length_b       61.613
_cell_length_c       82.5808
_cell_angle_alpha    84.4898
_cell_angle_beta     84.3325
_cell_angle_gamma    86.4567

_space_group_name_H-M_alt    "P 1"
_space_group_IT_number       1

loop_
  _space_group_symop_operation_xyz
  'x, y, z'

loop_
  _atom_site_type_symbol
  _atom_site_label
  _atom_site_symmetry_multiplicity
  _atom_site_fract_x
  _atom_site_fract_y
  _atom_site_fract_z
  _atom_site_occupancy
  C   C1        1.0  0.22605  0.01495  0.23327  1.0000
  Fe  Fe1       1.0  0.04981  0.10152  0.07814  1.0000
  S   S1        1.0  0.07752  0.12218  0.06825  1.0000
  S   S2        1.0  0.05258  0.06777  0.09121  1.0000
  Fe  Fe2       1.0  0.01601  0.13628  0.06806  1.0000
  S   S3        1.0  0.04106  0.16016  0.05739  1.0000
  Fe  Fe3       1.0  0.05828  0.13092  0.04651  1.0000
  S   S4        1.0  0.07577  0.12896  0.02108  1.0000
  Fe  Fe4       1.0  0.05798  0.14951  0.08020  1.0000
  S   S5        1.0  0.07753  0.17155  0.09350  1.0000
  S   S6        1.0  0.03217  0.10800  0.05562  1.0000
  S   S7        1.0  0.03145  0.12799  0.09159  1.0000
  Fe  Fe5       1.0  0.34831  0.44837  0.03458  1.0000
  S   S8        1.0  0.38285  0.44569  0.04100  1.0000
  S   S9        1.0  0.34240  0.46279  0.00882  1.0000
  Fe  Fe6       1.0  0.33059  0.43493  0.07026  1.0000
  S   S10       1.0  0.36401  0.43141  0.07917  1.0000
  S   S11       1.0  0.29889  0.42778  0.08615  1.0000
  Fe  Fe7       1.0  0.37036  0.46245  0.06320  1.0000
  Fe  Fe8       1.0  0.37383  0.41514  0.05626  1.0000
  S   S12       1.0  0.39752  0.38594  0.05507  1.0000
  S   S13       1.0  0.33618  0.46758  0.05595  1.0000
  S   S14       1.0  0.33995  0.41612  0.04817  1.0000
  C   C2        1.0  0.07056  0.03851  0.03873  1.0000
  Fe  Fe9       1.0  0.25812  0.37935  0.21900  1.0000
  S   S15       1.0  0.25254  0.36328  0.19662  1.0000
  C   C3        1.0  0.44494  0.46598  0.08089  1.0000
  S   S16       1.0  0.22492  0.40923  0.18515  1.0000
  Fe  Fe10      1.0  0.21771  0.37706  0.20026  1.0000
  S   S17       1.0  0.18661  0.35706  0.20416  1.0000
  Fe  Fe11      1.0  0.26010  0.39612  0.18305  1.0000
  S   S18       1.0  0.28818  0.40051  0.16287  1.0000
  S   S19       1.0  0.26817  0.41100  0.20553  1.0000
  Fe  Fe12      1.0  0.10733  0.25698  0.19167  1.0000
  S   S20       1.0  0.09584  0.25175  0.21831  1.0000
  S   S21       1.0  0.13446  0.27980  0.18069  1.0000
  Fe  Fe13      1.0  0.08021  0.21924  0.18320  1.0000
  S   S22       1.0  0.06837  0.21110  0.20979  1.0000
  S   S23       1.0  0.06247  0.19939  0.16677  1.0000
  Fe  Fe14      1.0  0.06229  0.24710  0.21075  1.0000
  H   H1        1.0  0.01425  0.15102  0.98815  1.0000
  Fe  Fe15      1.0  0.10265  0.21602  0.21524  1.0000
  H   H2        1.0  0.12011  0.10997  0.08910  1.0000
  S   S24       1.0  0.07310  0.25554  0.18405  1.0000
  S   S25       1.0  0.11527  0.22102  0.18877  1.0000
  H   H3        1.0  0.16347  0.23686  0.18568  1.0000
  H   H4        1.0  0.03079  0.14185  0.01438  1.0000
  H   H5        1.0  0.06094  0.02203  0.09906  1.0000
  C   C4        1.0  0.15652  0.24144  0.21711  1.0000
  H   H6        1.0  0.48664  0.45357  0.07265  1.0000
  N   N1        1.0  0.45350  0.45343  0.06723  1.0000
  H   H7        1.0  0.22142  0.03201  0.23045  1.0000
  C   C5        1.0  0.08593  0.10422  0.10973  1.0000
  C   C6        1.0  0.03592  0.04914  0.05275  1.0000
  H   H8        1.0  0.14750  0.33607  0.21751  1.0000
  H   H9        1.0  0.01232  0.22165  0.21659  1.0000
  C   C7        1.0  0.16272  0.15118  0.21834  1.0000
  C   C8        1.0  0.14642  0.16818  0.21923  1.0000
  H   H10       1.0  0.16542  0.14247  0.20748  1.0000
  H   H11       1.0  0.13651  0.17236  0.20916  1.0000
  C   C9        1.0  0.09844  0.13308  0.12286  1.0000
  H   H12       1.0  0.33189  0.32307  0.20894  1.0000
  C   C10       1.0  0.01825  0.24173  0.17754  1.0000
  C   C11       1.0  0.03104  0.14473  0.98802  1.0000
  C   C12       1.0  0.17728  0.24459  0.19019  1.0000
  C   C13       1.0  0.01293  0.26120  0.18472  1.0000
  C   C14       1.0  0.17229  0.33571  0.19720  1.0000
  C   C15       1.0  0.17926  0.32575  0.18290  1.0000
  C   C16       1.0  0.16723  0.30908  0.17794  1.0000
  C   C17       1.0  0.14824  0.30175  0.18729  1.0000
  C   C18       1.0  0.14135  0.31158  0.20165  1.0000
  C   C19       1.0  0.15320  0.32848  0.20648  1.0000
  H   H13       1.0  0.19375  0.33112  0.17552  1.0000
  H   H14       1.0  0.17273  0.30180  0.16674  1.0000
  H   H15       1.0  0.12680  0.30630  0.20900  1.0000
  C   C20       1.0  0.29597  0.42191  0.10770  1.0000
  C   C21       1.0  0.31400  0.41932  0.11684  1.0000
  C   C22       1.0  0.31120  0.41275  0.13370  1.0000
  C   C23       1.0  0.29037  0.40888  0.14165  1.0000
  C   C24       1.0  0.27225  0.41193  0.13260  1.0000
  C   C25       1.0  0.27507  0.41844  0.11570  1.0000
  H   H16       1.0  0.33015  0.42198  0.11086  1.0000
  H   H17       1.0  0.32531  0.41056  0.14062  1.0000
  H   H18       1.0  0.25613  0.40907  0.13857  1.0000
  H   H19       1.0  0.26101  0.42040  0.10872  1.0000
  C   C26       1.0  0.42210  0.38854  0.06371  1.0000
  C   C27       1.0  0.44129  0.37774  0.05739  1.0000
  C   C28       1.0  0.46121  0.38018  0.06375  1.0000
  C   C29       1.0  0.46195  0.39300  0.07676  1.0000
  C   C30       1.0  0.44265  0.40335  0.08337  1.0000
  C   C31       1.0  0.42280  0.40133  0.07675  1.0000
  H   H20       1.0  0.44084  0.36779  0.04733  1.0000
  H   H21       1.0  0.47600  0.37227  0.05846  1.0000
  H   H22       1.0  0.44312  0.41322  0.09347  1.0000
  H   H23       1.0  0.40807  0.40957  0.08181  1.0000
  H   H24       1.0  0.00632  0.21187  0.17130  1.0000
  N   N2        1.0  0.05134  0.01259  0.05762  1.0000
  C   C32       1.0  0.08229  0.18354  0.01655  1.0000
  C   C33       1.0  0.17298  0.27942  0.22525  1.0000
  S   S26       1.0  0.39359  0.48624  0.06988  1.0000
  C   C34       1.0  0.03487  0.02802  0.06057  1.0000
  C   C35       1.0  0.05396  0.05443  0.04182  1.0000
  H   H25       1.0  0.35150  0.41635  0.00448  1.0000
  C   C36       1.0  0.44714  0.43458  0.04411  1.0000
  C   C37       1.0  0.07240  0.18014  0.11360  1.0000
  C   C38       1.0  0.08806  0.19216  0.11966  1.0000
  C   C39       1.0  0.08527  0.19839  0.13579  1.0000
  C   C40       1.0  0.06672  0.19270  0.14611  1.0000
  C   C41       1.0  0.05099  0.18080  0.14001  1.0000
  C   C42       1.0  0.05377  0.17458  0.12388  1.0000
  H   H26       1.0  0.10251  0.19663  0.11183  1.0000
  H   H27       1.0  0.09750  0.20756  0.14025  1.0000
  H   H28       1.0  0.03657  0.17630  0.14785  1.0000
  H   H29       1.0  0.04158  0.16535  0.11944  1.0000
  C   C43       1.0  0.10668  0.01984  0.07242  1.0000
  C   C44       1.0  0.10697  0.04202  0.06674  1.0000
  C   C45       1.0  0.09040  0.05691  0.07238  1.0000
  C   C46       1.0  0.07373  0.04971  0.08400  1.0000
  C   C47       1.0  0.07375  0.02764  0.08999  1.0000
  H   H30       1.0  0.37361  0.49447  0.03631  1.0000
  H   H31       1.0  0.11980  0.04763  0.05768  1.0000
  H   H32       1.0  0.09048  0.07388  0.06764  1.0000
  H   H33       1.0  0.19131  0.23252  0.19111  1.0000
  H   H34       1.0  0.43577  0.42851  0.03660  1.0000
  C   C48       1.0  0.17934  0.27124  0.21018  1.0000
  H   H35       1.0  0.28532  0.05768  0.21739  1.0000
  H   H36       1.0  0.29783  0.46051  0.19005  1.0000
  C   C49       1.0  0.00210  0.22711  0.17675  1.0000
  C   C50       1.0  0.06892  0.01750  0.04671  1.0000
  H   H37       1.0  0.03970  0.19380  0.02190  1.0000
  C   C51       1.0  0.46945  0.42924  0.04146  1.0000
  H   H38       1.0  0.08003  0.14104  0.14533  1.0000
  C   C52       1.0  0.11762  0.12387  0.09685  1.0000
  H   H39       1.0  0.08727  0.09398  0.09966  1.0000
  H   H40       1.0  0.08210  0.00533  0.04444  1.0000
  H   H41       1.0  0.07441  0.17600  0.02826  1.0000
  C   C53       1.0  0.06681  0.11435  0.13504  1.0000
  N   N3        1.0  0.27811  0.45829  0.17041  1.0000
  C   C54       1.0  0.27810  0.45791  0.15388  1.0000
  H   H42       1.0  0.05723  0.08884  0.12144  1.0000
  C   C55       1.0  0.25860  0.46122  0.14643  1.0000
  C   C56       1.0  0.08176  0.13031  0.13552  1.0000
  H   H43       1.0  0.22374  0.46713  0.15047  1.0000
  C   C57       1.0  0.29858  0.45365  0.17803  1.0000
  H   H44       1.0  0.31247  0.46084  0.17015  1.0000
  H   H45       1.0  0.11307  0.13882  0.08899  1.0000
  C   C58       1.0  0.21860  0.49678  0.22817  1.0000
  H   H46       1.0  0.09164  0.12424  0.98769  1.0000
  H   H47       1.0  0.42206  0.45070  0.05923  1.0000
  H   H48       1.0  0.08936  0.19901  0.01875  1.0000
  H   H49       1.0  0.02089  0.02415  0.06918  1.0000
  C   C59       1.0  0.04521  0.19329  0.00904  1.0000
  C   C60       1.0  0.07461  0.12971  0.98785  1.0000
  N   N4        1.0  0.06655  0.18772  0.00427  1.0000
  H   H50       1.0  0.19057  0.28027  0.20149  1.0000
  C   C61       1.0  0.04041  0.13964  0.00291  1.0000
  C   C62       1.0  0.34894  0.42494  0.99271  1.0000
  H   H51       1.0  0.02549  0.27244  0.18579  1.0000
  H   H52       1.0  0.09563  0.17166  0.01258  1.0000
  S   S27       1.0  0.22321  0.39151  0.22356  1.0000
  C   C63       1.0  0.25899  0.46180  0.17992  1.0000
  Fe  Fe16      1.0  0.23296  0.42231  0.20849  1.0000
  H   H53       1.0  0.26503  0.03036  0.20014  1.0000
  H   H54       1.0  0.13338  0.12619  0.10173  1.0000
  H   H55       1.0  0.47861  0.28894  0.22638  1.0000
  C   C64       1.0  0.09008  0.01270  0.08412  1.0000
  H   H56       1.0  0.25868  0.46054  0.13333  1.0000
  C   C65       1.0  0.06241  0.13259  0.00287  1.0000
  S   S28       1.0  0.19393  0.12216  0.23052  1.0000
  C   C66       1.0  0.07347  0.18689  0.98807  1.0000
  C   C67       1.0  0.14990  0.24907  0.23234  1.0000
  H   H57       1.0  0.37361  0.49705  0.01429  1.0000
  H   H58       1.0  0.05518  0.07088  0.03586  1.0000
  C   C68       1.0  0.47544  0.44866  0.06452  1.0000
  H   H59       1.0  0.29317  0.45456  0.14638  1.0000
  H   H60       1.0  0.44222  0.48345  0.07644  1.0000
  S   S29       1.0  0.03118  0.26179  0.22419  1.0000
  C   C69       1.0  0.34420  0.44750  0.99149  1.0000
  C   C70       1.0  0.00484  0.25106  0.22859  1.0000
  H   H61       1.0  0.47561  0.41898  0.03187  1.0000
  H   H62       1.0  0.17915  0.29463  0.22806  1.0000
  N   N5        1.0  0.31519  0.37063  0.09740  1.0000
  C   C71       1.0  0.32438  0.37219  0.08160  1.0000
  C   C72       1.0  0.32807  0.36914  0.11009  1.0000
  C   C73       1.0  0.34705  0.37218  0.07817  1.0000
  C   C74       1.0  0.35079  0.36961  0.10708  1.0000
  C   C75       1.0  0.36030  0.37107  0.09099  1.0000
  C   C76       1.0  0.29145  0.36956  0.10061  1.0000
  H   H63       1.0  0.31417  0.37363  0.07153  1.0000
  H   H64       1.0  0.32080  0.36800  0.12264  1.0000
  H   H65       1.0  0.29987  0.34939  0.21203  1.0000
  H   H66       1.0  0.36094  0.36889  0.11714  1.0000
  H   H67       1.0  0.35431  0.37318  0.06562  1.0000
  H   H68       1.0  0.28639  0.35329  0.09819  1.0000
  H   H69       1.0  0.28575  0.37252  0.11345  1.0000
  H   H70       1.0  0.28311  0.38241  0.09264  1.0000
  C   C77       1.0  0.30689  0.34156  0.22274  1.0000
  H   H71       1.0  0.33726  0.25332  0.22576  1.0000
  C   C78       1.0  0.23185  0.47796  0.22485  1.0000
  H   H72       1.0  0.42909  0.45984  0.08653  1.0000
  C   C79       1.0  0.23903  0.46484  0.15603  1.0000
  H   H73       1.0  0.10939  0.14620  0.12293  1.0000
  H   H74       1.0  0.02294  0.06137  0.05535  1.0000
  H   H75       1.0  0.18167  0.25822  0.18083  1.0000
  H   H76       1.0  0.37791  0.37144  0.08839  1.0000
  H   H77       1.0  0.05346  0.11243  0.14457  1.0000
  C   C80       1.0  0.14248  0.17911  0.23338  1.0000
  C   C81       1.0  0.32504  0.32666  0.22102  1.0000
  C   C82       1.0  0.25321  0.47649  0.22942  1.0000
  N   N6        1.0  0.10043  0.12004  0.11024  1.0000
  H   H78       1.0  0.31277  0.24780  0.21672  1.0000
  C   C83       1.0  0.43944  0.44699  0.05702  1.0000
  C   C84       1.0  0.23920  0.46523  0.17288  1.0000
  S   S30       1.0  0.22054  0.45654  0.21567  1.0000
  C   C85       1.0  0.06889  0.10117  0.12209  1.0000
  S   S31       1.0  0.48687  0.39714  0.08445  1.0000
  C   C86       1.0  0.47960  0.27204  0.23132  1.0000
  H   H79       1.0  0.22406  0.46783  0.18052  1.0000
  N   N7        1.0  0.17071  0.25276  0.20614  1.0000
  H   H80       1.0  0.26366  0.46217  0.22706  1.0000
  C   C87       1.0  0.17516  0.14497  0.23157  1.0000
  H   H81       1.0  0.30191  0.43567  0.17992  1.0000
  H   H82       1.0  0.25889  0.46180  0.19306  1.0000
  H   H83       1.0  0.03487  0.23785  0.17267  1.0000
  H   H84       1.0  0.01300  0.20147  0.00128  1.0000
  H   H85       1.0  0.29171  0.29399  0.22266  1.0000
  H   H86       1.0  0.08483  0.04252  0.03046  1.0000
  C   C88       1.0  0.27574  0.04687  0.22658  1.0000
  C   C89       1.0  0.32113  0.26030  0.22223  1.0000
  H   H87       1.0  0.20206  0.49821  0.22472  1.0000
  C   C90       1.0  0.49941  0.25958  0.22889  1.0000
  H   H88       1.0  0.25813  0.05203  0.22673  1.0000
  N   N8        1.0  0.27909  0.02406  0.22280  1.0000
  C   C91       1.0  0.48374  0.43656  0.05159  1.0000
  H   H89       1.0  0.14998  0.22656  0.21406  1.0000
  C   C92       1.0  0.03006  0.19779  0.99745  1.0000
  H   H90       1.0  0.45623  0.46461  0.09067  1.0000
  S   S32       1.0  0.35563  0.29615  0.23215  1.0000
  C   C93       1.0  0.27269  0.01827  0.20848  1.0000
  H   H91       1.0  0.21646  0.00511  0.21068  1.0000
  H   H92       1.0  0.32480  0.27425  0.21297  1.0000
  S   S33       1.0  0.12689  0.00137  0.06437  1.0000
  H   H93       1.0  0.49850  0.32212  0.99522  1.0000
  C   C94       1.0  0.99982  0.23117  0.22336  1.0000
  H   H94       1.0  0.09028  0.18210  0.98429  1.0000
  C   C95       1.0  0.28798  0.00864  0.23365  1.0000
  C   C96       1.0  0.00335  0.12190  0.45072  1.0000
  S   S34       1.0  0.14487  0.03090  0.42417  1.0000
  Fe  Fe17      1.0  0.09024  0.04623  0.40549  1.0000
  S   S35       1.0  0.11056  0.07170  0.41340  1.0000
  S   S36       1.0  0.05651  0.04893  0.39691  1.0000
  Fe  Fe18      1.0  0.13898  0.05244  0.40100  1.0000
  S   S37       1.0  0.16941  0.06413  0.38531  1.0000
  Fe  Fe19      1.0  0.11489  0.04814  0.43575  1.0000
  S   S38       1.0  0.10373  0.05535  0.46202  1.0000
  S   S39       1.0  0.11809  0.02888  0.39148  1.0000
  S   S40       1.0  0.09268  0.02405  0.42832  1.0000
  C   C97       1.0  0.43016  0.37597  0.47636  1.0000
  C   C98       1.0  0.48175  0.22861  0.24425  1.0000
  S   S41       1.0  0.12021  0.19829  0.23606  1.0000
  Fe  Fe20      1.0  0.40495  0.24433  0.26482  1.0000
  S   S42       1.0  0.38685  0.23577  0.28977  1.0000
  S   S43       1.0  0.43940  0.22907  0.25879  1.0000
  Fe  Fe21      1.0  0.36772  0.27539  0.25396  1.0000
  S   S44       1.0  0.34792  0.26967  0.27793  1.0000
  H   H95       1.0  0.15717  0.09934  0.27765  1.0000
  Fe  Fe22      1.0  0.37923  0.27206  0.28946  1.0000
  S   S45       1.0  0.37804  0.29524  0.30968  1.0000
  Fe  Fe23      1.0  0.35680  0.23380  0.27619  1.0000
  S   S46       1.0  0.32592  0.21368  0.28228  1.0000
  S   S47       1.0  0.39847  0.28054  0.26527  1.0000
  S   S48       1.0  0.37549  0.23961  0.25144  1.0000
  Fe  Fe24      1.0  0.23416  0.06376  0.26421  1.0000
  S   S49       1.0  0.19957  0.07726  0.26645  1.0000
  Fe  Fe25      1.0  0.25153  0.10828  0.27134  1.0000
  S   S50       1.0  0.21757  0.12435  0.27426  1.0000
  S   S51       1.0  0.28498  0.12335  0.27179  1.0000
  Fe  Fe26      1.0  0.20761  0.09272  0.28860  1.0000
  S   S52       1.0  0.17865  0.09152  0.30828  1.0000
  Fe  Fe27      1.0  0.21175  0.10766  0.25218  1.0000
  S   S53       1.0  0.24193  0.07758  0.28734  1.0000
  Fe  Fe28      1.0  0.43575  0.33800  0.38381  1.0000
  S   S54       1.0  0.43394  0.37377  0.37540  1.0000
  S   S55       1.0  0.43664  0.31010  0.36724  1.0000
  Fe  Fe29      1.0  0.44389  0.34698  0.41891  1.0000
  S   S56       1.0  0.44314  0.38317  0.41300  1.0000
  S   S57       1.0  0.44979  0.33088  0.44417  1.0000
  Fe  Fe30      1.0  0.41441  0.37828  0.39940  1.0000
  S   S58       1.0  0.38458  0.40157  0.40079  1.0000
  Fe  Fe31      1.0  0.46273  0.37617  0.38966  1.0000
  C   C99       1.0  0.29790  0.34627  0.23832  1.0000
  S   S59       1.0  0.41353  0.34215  0.40686  1.0000
  S   S60       1.0  0.46632  0.34015  0.39652  1.0000
  H   H96       1.0  0.18945  0.02758  0.36741  1.0000
  C   C100      1.0  0.38847  0.42858  0.40491  1.0000
  C   C101      1.0  0.40722  0.43370  0.41164  1.0000
  C   C102      1.0  0.41099  0.45543  0.41364  1.0000
  C   C103      1.0  0.39605  0.47229  0.40887  1.0000
  C   C104      1.0  0.37677  0.46724  0.40279  1.0000
  C   C105      1.0  0.37295  0.44537  0.40088  1.0000
  H   H97       1.0  0.41897  0.42103  0.41524  1.0000
  H   H98       1.0  0.42583  0.45923  0.41850  1.0000
  C   C106      1.0  0.16690  0.01963  0.35094  1.0000
  H   H99       1.0  0.35829  0.44154  0.39578  1.0000
  H   H100      1.0  0.26926  0.30705  0.24660  1.0000
  C   C107      1.0  0.44513  0.34483  0.46211  1.0000
  H   H101      1.0  0.43349  0.37524  0.45011  1.0000
  C   C108      1.0  0.39478  0.29901  0.32552  1.0000
  C   C109      1.0  0.39059  0.31759  0.33425  1.0000
  C   C110      1.0  0.40327  0.32135  0.34695  1.0000
  C   C111      1.0  0.42030  0.30645  0.35115  1.0000
  C   C112      1.0  0.42454  0.28788  0.34238  1.0000
  C   C113      1.0  0.41189  0.28415  0.32966  1.0000
  H   H102      1.0  0.37738  0.32917  0.33121  1.0000
  H   H103      1.0  0.39975  0.33567  0.35357  1.0000
  H   H104      1.0  0.43758  0.27618  0.34559  1.0000
  H   H105      1.0  0.41513  0.26961  0.32328  1.0000
  H   H106      1.0  0.36513  0.48017  0.39906  1.0000
  C   C114      1.0  0.46413  0.45105  0.38740  1.0000
  C   C115      1.0  0.26285  0.44626  0.26952  1.0000
  C   C116      1.0  0.22669  0.45168  0.26178  1.0000
  N   N9        1.0  0.30761  0.26771  0.23647  1.0000
  C   C117      1.0  0.31430  0.18986  0.27653  1.0000
  C   C118      1.0  0.32696  0.17284  0.26963  1.0000
  C   C119      1.0  0.31746  0.15304  0.26757  1.0000
  C   C120      1.0  0.29509  0.15003  0.27201  1.0000
  C   C121      1.0  0.28220  0.16750  0.27810  1.0000
  C   C122      1.0  0.29179  0.18712  0.28050  1.0000
  H   H107      1.0  0.34427  0.17452  0.26654  1.0000
  S   S61       1.0  0.24353  0.02743  0.26086  1.0000
  H   H108      1.0  0.26500  0.16563  0.28156  1.0000
  H   H109      1.0  0.28174  0.20010  0.28583  1.0000
  Fe  Fe32      1.0  0.12203  0.00879  0.41517  1.0000
  H   H110      1.0  0.01874  0.22482  0.25894  1.0000
  C   C123      1.0  0.12341  0.13298  0.25606  1.0000
  H   H111      1.0  0.01795  0.02105  0.39836  1.0000
  C   C124      1.0  0.38191  0.37428  0.43863  1.0000
  H   H112      1.0  0.14641  0.12550  0.29815  1.0000
  H   H113      1.0  0.06566  0.05903  0.44245  1.0000
  C   C125      1.0  0.32527  0.32104  0.25040  1.0000
  C   C126      1.0  0.30728  0.33612  0.25212  1.0000
  H   H114      1.0  0.44603  0.27280  0.24199  1.0000
  C   C127      1.0  0.11688  0.14801  0.26750  1.0000
  H   H115      1.0  0.33223  0.31318  0.26112  1.0000
  H   H116      1.0  0.30048  0.33975  0.26420  1.0000
  N   N10       1.0  0.16915  0.00223  0.37809  1.0000
  C   C128      1.0  0.26537  0.42630  0.26256  1.0000
  H   H117      1.0  0.11732  0.13550  0.24410  1.0000
  C   C129      1.0  0.46104  0.26292  0.24019  1.0000
  C   C130      1.0  0.22869  0.43185  0.25467  1.0000
  C   C131      1.0  0.17162  0.07172  0.36388  1.0000
  C   C132      1.0  0.19244  0.07447  0.35551  1.0000
  C   C133      1.0  0.19500  0.08004  0.33847  1.0000
  C   C134      1.0  0.17669  0.08331  0.32962  1.0000
  C   C135      1.0  0.15588  0.08048  0.33798  1.0000
  C   C136      1.0  0.15335  0.07453  0.35497  1.0000
  H   H118      1.0  0.20670  0.07233  0.36228  1.0000
  H   H119      1.0  0.21109  0.08222  0.33224  1.0000
  H   H120      1.0  0.14158  0.08300  0.33129  1.0000
  H   H121      1.0  0.13724  0.07245  0.36121  1.0000
  C   C137      1.0  0.04068  0.07322  0.39978  1.0000
  C   C138      1.0  0.04986  0.09199  0.40380  1.0000
  C   C139      1.0  0.03648  0.11086  0.40661  1.0000
  C   C140      1.0  0.17165  0.15636  0.24552  1.0000
  C   C141      1.0  0.43266  0.47234  0.37676  1.0000
  C   C142      1.0  0.01819  0.07344  0.39850  1.0000
  H   H122      1.0  0.06721  0.09202  0.40470  1.0000
  N   N11       1.0  0.02039  0.10455  0.44825  1.0000
  C   C143      1.0  0.29294  0.28514  0.23456  1.0000
  C   C144      1.0  0.30923  0.25666  0.25152  1.0000
  H   H123      1.0  0.40327  0.31096  0.46847  1.0000
  H   H124      1.0  0.46430  0.43670  0.39668  1.0000
  H   H125      1.0  0.46606  0.46574  0.39383  1.0000
  H   H126      1.0  0.27631  0.45179  0.27529  1.0000
  C   C145      1.0  0.01551  0.08525  0.44287  1.0000
  H   H127      1.0  0.14966  0.06327  0.46492  1.0000
  C   C146      1.0  0.43808  0.29260  0.28932  1.0000
  C   C147      1.0  0.46197  0.24111  0.24673  1.0000
  C   C148      1.0  0.05289  0.07170  0.44418  1.0000
  S   S62       1.0  0.24612  0.09318  0.24825  1.0000
  N   N12       1.0  0.44379  0.45261  0.37945  1.0000
  H   H128      1.0  0.28055  0.41641  0.26287  1.0000
  H   H129      1.0  0.27273  0.28771  0.27418  1.0000
  H   H130      1.0  0.39777  0.33309  0.44258  1.0000
  C   C149      1.0  0.03170  0.06857  0.44071  1.0000
  N   N13       1.0  0.13800  0.11596  0.25964  1.0000
  C   C150      1.0  0.24131  0.47933  0.27667  1.0000
  N   N14       1.0  0.47872  0.27679  0.27644  1.0000
  H   H131      1.0  0.29223  0.01304  0.24531  1.0000
  C   C151      1.0  0.04117  0.10774  0.45166  1.0000
  H   H132      1.0  0.22851  0.49061  0.27138  1.0000
  C   C152      1.0  0.28212  0.28177  0.26354  1.0000
  H   H133      1.0  0.15257  0.18189  0.25733  1.0000
  H   H134      1.0  0.43063  0.25877  0.29443  1.0000
  C   C153      1.0  0.15547  0.17346  0.24636  1.0000
  H   H135      1.0  0.14451  0.10823  0.23490  1.0000
  C   C154      1.0  0.39238  0.33990  0.45403  1.0000
  H   H136      1.0  0.29841  0.25502  0.27724  1.0000
  C   C155      1.0  0.38118  0.35767  0.48350  1.0000
  H   H137      1.0  0.47830  0.44886  0.37817  1.0000
  C   C156      1.0  0.26090  0.49335  0.23748  1.0000
  C   C157      1.0  0.33413  0.31616  0.23484  1.0000
  N   N15       1.0  0.38372  0.36088  0.45414  1.0000
  H   H138      1.0  0.07427  0.09385  0.45233  1.0000
  C   C158      1.0  0.14590  0.11302  0.27465  1.0000
  H   H139      1.0  0.44511  0.41857  0.37665  1.0000
  N   N16       1.0  0.29703  0.13928  0.31271  1.0000
  C   C159      1.0  0.29530  0.15974  0.31802  1.0000
  C   C160      1.0  0.31672  0.13087  0.30625  1.0000
  C   C161      1.0  0.31355  0.17243  0.31681  1.0000
  C   C162      1.0  0.33533  0.14306  0.30498  1.0000
  C   C163      1.0  0.33366  0.16401  0.31022  1.0000
  C   C164      1.0  0.27743  0.12671  0.31365  1.0000
  H   H140      1.0  0.27961  0.16661  0.32275  1.0000
  H   H141      1.0  0.31795  0.11502  0.30143  1.0000
  H   H142      1.0  0.31200  0.18903  0.32032  1.0000
  H   H143      1.0  0.35073  0.13667  0.29934  1.0000
  H   H144      1.0  0.34769  0.17409  0.30860  1.0000
  H   H145      1.0  0.28094  0.11062  0.30861  1.0000
  H   H146      1.0  0.27038  0.12382  0.32653  1.0000
  H   H147      1.0  0.26509  0.13571  0.30623  1.0000
  C   C165      1.0  0.43618  0.43412  0.37459  1.0000
  C   C166      1.0  0.11902  0.05707  0.47894  1.0000
  H   H148      1.0  0.48631  0.31016  0.27103  1.0000
  C   C167      1.0  0.44880  0.33354  0.47731  1.0000
  H   H149      1.0  0.37237  0.38681  0.46871  1.0000
  C   C168      1.0  0.40478  0.45485  0.36498  1.0000
  H   H150      1.0  0.41001  0.41999  0.36434  1.0000
  C   C169      1.0  0.01392  0.11084  0.40560  1.0000
  C   C170      1.0  0.12524  0.14541  0.28270  1.0000
  H   H151      1.0  0.10602  0.16200  0.26431  1.0000
  C   C171      1.0  0.45377  0.30707  0.28262  1.0000
  H   H152      1.0  0.42258  0.39230  0.47593  1.0000
  H   H153      1.0  0.23696  0.47613  0.29002  1.0000
  H   H154      1.0  0.32768  0.13974  0.26284  1.0000
  C   C172      1.0  0.13977  0.12776  0.28636  1.0000
  H   H155      1.0  0.16136  0.09340  0.24876  1.0000
  C   C173      1.0  0.14443  0.10023  0.24757  1.0000
  C   C174      1.0  0.05772  0.09137  0.44969  1.0000
  C   C175      1.0  0.37831  0.36989  0.46861  1.0000
  H   H156      1.0  0.40367  0.48926  0.36817  1.0000
  C   C176      1.0  0.41649  0.43489  0.36744  1.0000
  H   H157      1.0  0.24998  0.40371  0.24960  1.0000
  C   C177      1.0  0.00484  0.09207  0.40158  1.0000
  C   C178      1.0  0.47415  0.29883  0.27622  1.0000
  C   C179      1.0  0.38988  0.33623  0.48350  1.0000
  C   C180      1.0  0.14118  0.06135  0.47705  1.0000
  H   H158      1.0  0.45568  0.31693  0.47774  1.0000
  S   S63       1.0  0.48857  0.39906  0.37887  1.0000
  H   H159      1.0  0.04507  0.12307  0.45583  1.0000
  C   C181      1.0  0.23572  0.00833  0.24770  1.0000
  H   H160      1.0  0.13315  0.08668  0.24921  1.0000
  C   C182      1.0  0.39548  0.32723  0.46869  1.0000
  H   H161      1.0  0.25667  0.48820  0.27455  1.0000
  C   C183      1.0  0.44286  0.27016  0.28950  1.0000
  H   H162      1.0  0.14220  0.00854  0.33746  1.0000
  C   C184      1.0  0.46342  0.26248  0.28304  1.0000
  H   H163      1.0  0.48271  0.21173  0.24924  1.0000
  C   C185      1.0  0.28010  0.29255  0.24807  1.0000
  C   C186      1.0  0.43627  0.36631  0.46169  1.0000
  H   H164      1.0  0.21536  0.42666  0.24854  1.0000
  H   H165      1.0  0.46684  0.24498  0.28307  1.0000
  C   C187      1.0  0.14996  0.00650  0.34878  1.0000
  H   H166      1.0  0.12063  0.15715  0.29159  1.0000
  H   H167      1.0  0.18117  0.15180  0.25575  1.0000
  N   N17       1.0  0.24374  0.45874  0.26895  1.0000
  H   H168      1.0  0.04359  0.12536  0.40971  1.0000
  H   H169      1.0  0.21164  0.46167  0.26106  1.0000
  C   C188      1.0  0.24816  0.41911  0.25509  1.0000
  H   H170      1.0  0.00871  0.13757  0.44417  1.0000
  H   H171      1.0  0.39786  0.38120  0.43422  1.0000
  H   H172      1.0  0.32068  0.24268  0.25301  1.0000
  C   C189      1.0  0.29658  0.26355  0.26527  1.0000
  C   C190      1.0  0.41297  0.47375  0.36952  1.0000
  H   H173      1.0  0.18231  0.01677  0.39706  1.0000
  H   H174      1.0  0.45007  0.32453  0.28240  1.0000
  H   H175      1.0  0.37698  0.36447  0.42911  1.0000
  H   H176      1.0  0.17239  0.03196  0.34136  1.0000
  H   H177      1.0  0.36946  0.38800  0.43982  1.0000
  S   S64       1.0  0.27450  0.36405  0.24104  1.0000
  C   C191      1.0  0.17646  0.01713  0.36572  1.0000
  H   H178      1.0  0.38911  0.45555  0.35996  1.0000
  H   H179      1.0  0.02804  0.05357  0.43590  1.0000
  H   H180      1.0  0.01096  0.05915  0.39522  1.0000
  H   H181      1.0  0.43839  0.48700  0.38086  1.0000
  H   H182      1.0  0.15264  0.27469  0.24794  1.0000
  H   H183      1.0  0.42214  0.29878  0.29421  1.0000
  H   H184      1.0  0.28060  0.04921  0.23890  1.0000
  H   H185      1.0  0.27730  0.49178  0.24122  1.0000
  H   H186      1.0  0.37560  0.49340  0.44027  1.0000
  C   C192      1.0  0.01325  0.00429  0.39896  1.0000
  H   H187      1.0  0.13828  0.24022  0.24084  1.0000
  H   H188      1.0  0.35376  0.49026  0.45618  1.0000
  C   C193      1.0  0.15803  0.26831  0.23633  1.0000
  H   H189      1.0  0.00624  0.25497  0.27608  1.0000
  C   C194      1.0  0.00302  0.22439  0.26614  1.0000
  C   C195      1.0  0.17918  0.00031  0.39356  1.0000
  S   S65       1.0  0.40317  0.49941  0.40933  1.0000
  Fe  Fe33      1.0  0.14201  0.05492  0.54987  1.0000
  S   S66       1.0  0.12091  0.02639  0.55397  1.0000
  S   S67       1.0  0.15611  0.06439  0.52380  1.0000
  Fe  Fe34      1.0  0.14110  0.06055  0.58675  1.0000
  S   S68       1.0  0.11943  0.03227  0.59336  1.0000
  S   S69       1.0  0.14794  0.07931  0.60833  1.0000
  Fe  Fe35      1.0  0.14082  0.01517  0.57459  1.0000
  Fe  Fe36      1.0  0.10094  0.04575  0.57228  1.0000
  S   S70       1.0  0.06476  0.04175  0.57282  1.0000
  S   S71       1.0  0.16414  0.04216  0.56935  1.0000
  S   S72       1.0  0.12051  0.07561  0.56676  1.0000
  S   S73       1.0  0.00318  0.12491  0.58655  1.0000
  H   H190      1.0  0.20767  0.03342  0.64871  1.0000
  H   H191      1.0  0.17099  0.04053  0.63898  1.0000
  H   H192      1.0  0.42509  0.40002  0.61159  1.0000
  H   H193      1.0  0.36403  0.33369  0.60866  1.0000
  H   H194      1.0  0.04478  0.14225  0.55400  1.0000
  Fe  Fe37      1.0  0.38258  0.27261  0.71657  1.0000
  S   S74       1.0  0.36940  0.27174  0.69235  1.0000
  Fe  Fe38      1.0  0.42091  0.24043  0.70869  1.0000
  S   S75       1.0  0.41003  0.23606  0.68369  1.0000
  Fe  Fe39      1.0  0.40429  0.27278  0.68145  1.0000
  S   S76       1.0  0.41775  0.29847  0.66176  1.0000
  Fe  Fe40      1.0  0.37531  0.23496  0.69614  1.0000
  S   S77       1.0  0.34439  0.21814  0.69064  1.0000
  S   S78       1.0  0.41688  0.27675  0.70567  1.0000
  Fe  Fe41      1.0  0.22929  0.10099  0.67382  1.0000
  S   S79       1.0  0.20068  0.09754  0.69247  1.0000
  S   S80       1.0  0.23021  0.08794  0.64870  1.0000
  Fe  Fe42      1.0  0.25769  0.11826  0.69847  1.0000
  S   S81       1.0  0.23062  0.11447  0.71907  1.0000
  S   S82       1.0  0.29178  0.12957  0.70242  1.0000
  Fe  Fe43      1.0  0.22468  0.08205  0.70967  1.0000
  H   H195      1.0  0.09106  0.05166  0.49638  1.0000
  Fe  Fe44      1.0  0.20900  0.12972  0.70023  1.0000
  S   S83       1.0  0.18443  0.15852  0.70263  1.0000
  S   S84       1.0  0.25329  0.08454  0.69059  1.0000
  S   S85       1.0  0.23616  0.13465  0.68001  1.0000
  Fe  Fe45      1.0  0.42710  0.34403  0.56945  1.0000
  S   S86       1.0  0.44984  0.36515  0.57941  1.0000
  S   S87       1.0  0.41048  0.31628  0.58513  1.0000
  Fe  Fe46      1.0  0.43240  0.36839  0.53504  1.0000
  S   S88       1.0  0.45553  0.39149  0.54268  1.0000
  S   S89       1.0  0.42108  0.37559  0.50955  1.0000
  Fe  Fe47      1.0  0.47059  0.36185  0.55591  1.0000
  Fe  Fe48      1.0  0.43271  0.39297  0.56542  1.0000
  S   S90       1.0  0.42686  0.42378  0.57814  1.0000
  S   S91       1.0  0.44932  0.33827  0.54667  1.0000
  S   S92       1.0  0.40812  0.37221  0.55708  1.0000
  C   C196      1.0  0.40558  0.44229  0.57225  1.0000
  C   C197      1.0  0.38835  0.43559  0.56444  1.0000
  C   C198      1.0  0.37094  0.45049  0.56074  1.0000
  C   C199      1.0  0.37104  0.47223  0.56443  1.0000
  C   C200      1.0  0.38845  0.47899  0.57200  1.0000
  C   C201      1.0  0.40551  0.46395  0.57611  1.0000
  H   H196      1.0  0.38830  0.41894  0.56136  1.0000
  H   H197      1.0  0.35753  0.44525  0.55482  1.0000
  H   H198      1.0  0.40119  0.41817  0.61030  1.0000
  H   H199      1.0  0.41880  0.46921  0.58217  1.0000
  C   C202      1.0  0.15633  0.05072  0.66198  1.0000
  C   C203      1.0  0.20803  0.00645  0.73250  1.0000
  H   H200      1.0  0.30237  0.09270  0.68337  1.0000
  C   C204      1.0  0.21940  0.03800  0.67835  1.0000
  C   C205      1.0  0.33726  0.31307  0.72160  1.0000
  N   N18       1.0  0.39514  0.38437  0.61489  1.0000
  H   H201      1.0  0.44504  0.33413  0.50362  1.0000
  H   H202      1.0  0.03022  0.20466  0.70589  1.0000
  H   H203      1.0  0.30164  0.24383  0.69875  1.0000
  H   H204      1.0  0.15039  0.19108  0.70885  1.0000
  C   C206      1.0  0.44288  0.34328  0.49199  1.0000
  H   H205      1.0  0.30198  0.20756  0.68274  1.0000
  C   C207      1.0  0.41545  0.30271  0.64048  1.0000
  C   C208      1.0  0.40398  0.28907  0.63219  1.0000
  C   C209      1.0  0.40266  0.29336  0.61521  1.0000
  C   C210      1.0  0.41279  0.31126  0.60640  1.0000
  C   C211      1.0  0.42427  0.32485  0.61471  1.0000
  C   C212      1.0  0.42556  0.32060  0.63164  1.0000
  H   H206      1.0  0.39612  0.27525  0.63886  1.0000
  H   H207      1.0  0.39368  0.28276  0.60890  1.0000
  H   H208      1.0  0.43206  0.33872  0.60815  1.0000
  H   H209      1.0  0.43445  0.33125  0.63797  1.0000
  H   H210      1.0  0.37572  0.33863  0.63599  1.0000
  H   H211      1.0  0.47064  0.26629  0.71044  1.0000
  C   C213      1.0  0.32987  0.19343  0.69455  1.0000
  C   C214      1.0  0.30891  0.19301  0.68911  1.0000
  C   C215      1.0  0.29680  0.17396  0.69175  1.0000
  C   C216      1.0  0.30556  0.15477  0.69972  1.0000
  C   C217      1.0  0.32653  0.15516  0.70510  1.0000
  C   C218      1.0  0.33852  0.17430  0.70266  1.0000
  C   C219      1.0  0.37725  0.36364  0.59741  1.0000
  H   H212      1.0  0.28078  0.17406  0.68746  1.0000
  C   C220      1.0  0.02294  0.23936  0.70495  1.0000
  H   H213      1.0  0.35458  0.17414  0.70691  1.0000
  H   H214      1.0  0.26970  0.16235  0.63906  1.0000
  C   C221      1.0  0.31022  0.09449  0.67063  1.0000
  S   S93       1.0  0.28217  0.34952  0.73318  1.0000
  C   C222      1.0  0.16766  0.16346  0.72067  1.0000
  C   C223      1.0  0.15246  0.18141  0.72030  1.0000
  H   H215      1.0  0.32158  0.26370  0.69219  1.0000
  H   H216      1.0  0.49838  0.39873  0.52302  1.0000
  H   H217      1.0  0.45260  0.29493  0.56908  1.0000
  C   C224      1.0  0.40798  0.40302  0.61687  1.0000
  H   H218      1.0  0.47255  0.29724  0.63143  1.0000
  H   H219      1.0  0.45476  0.27721  0.61234  1.0000
  C   C225      1.0  0.37227  0.34819  0.61052  1.0000
  H   H220      1.0  0.38866  0.49573  0.57486  1.0000
  H   H221      1.0  0.37271  0.36127  0.58537  1.0000
  S   S94       1.0  0.45018  0.22475  0.72175  1.0000
  H   H222      1.0  0.34467  0.30570  0.71092  1.0000
  H   H223      1.0  0.48340  0.31727  0.57186  1.0000
  H   H224      1.0  0.39620  0.37077  0.63962  1.0000
  S   S95       1.0  0.21095  0.05038  0.72281  1.0000
  N   N19       1.0  0.01780  0.13135  0.54327  1.0000
  C   C226      1.0  0.17137  0.08208  0.61889  1.0000
  C   C227      1.0  0.16897  0.09371  0.63289  1.0000
  C   C228      1.0  0.18674  0.09570  0.64211  1.0000
  C   C229      1.0  0.20733  0.08631  0.63731  1.0000
  C   C230      1.0  0.20983  0.07487  0.62320  1.0000
  C   C231      1.0  0.19196  0.07264  0.61410  1.0000
  H   H225      1.0  0.15316  0.10115  0.63671  1.0000
  H   H226      1.0  0.18449  0.10459  0.65288  1.0000
  H   H227      1.0  0.22566  0.06759  0.61931  1.0000
  H   H228      1.0  0.19413  0.06371  0.60335  1.0000
  C   C232      1.0  0.04766  0.06422  0.57825  1.0000
  C   C233      1.0  0.05610  0.08276  0.58329  1.0000
  C   C234      1.0  0.04217  0.10110  0.58643  1.0000
  C   C235      1.0  0.01985  0.10095  0.58448  1.0000
  C   C236      1.0  0.17352  0.04278  0.65153  1.0000
  C   C237      1.0  0.02524  0.06379  0.57689  1.0000
  H   H229      1.0  0.07336  0.08309  0.58455  1.0000
  H   H230      1.0  0.04877  0.11558  0.59006  1.0000
  C   C238      1.0  0.38876  0.38175  0.59982  1.0000
  H   H231      1.0  0.01864  0.04941  0.57314  1.0000
  C   C239      1.0  0.14139  0.06178  0.50671  1.0000
  C   C240      1.0  0.00501  0.15201  0.54491  1.0000
  H   H232      1.0  0.11082  0.05524  0.52071  1.0000
  C   C241      1.0  0.04253  0.09238  0.54029  1.0000
  C   C242      1.0  0.48093  0.31282  0.58492  1.0000
  C   C243      1.0  0.37885  0.35097  0.62585  1.0000
  H   H233      1.0  0.31052  0.32888  0.70928  1.0000
  C   C244      1.0  0.15982  0.05389  0.67801  1.0000
  C   C245      1.0  0.39054  0.36915  0.62779  1.0000
  H   H234      1.0  0.31948  0.13631  0.66939  1.0000
  H   H235      1.0  0.44221  0.27694  0.58574  1.0000
  H   H236      1.0  0.01460  0.08126  0.53034  1.0000
  C   C246      1.0  0.05112  0.10975  0.54673  1.0000
  C   C247      1.0  0.30564  0.26105  0.69944  1.0000
  S   S96       1.0  0.38678  0.23622  0.72113  1.0000
  H   H237      1.0  0.23228  0.04213  0.66832  1.0000
  S   S97       1.0  0.34908  0.49068  0.55991  1.0000
  H   H238      1.0  0.30090  0.16802  0.65497  1.0000
  C   C248      1.0  0.11936  0.05699  0.50861  1.0000
  C   C249      1.0  0.48100  0.25692  0.71868  1.0000
  H   H239      1.0  0.32511  0.49621  0.59226  1.0000
  H   H240      1.0  0.47886  0.49614  0.57437  1.0000
  C   C250      1.0  0.01135  0.08210  0.58003  1.0000
  C   C251      1.0  0.31794  0.32626  0.72069  1.0000
  H   H241      1.0  0.32781  0.09704  0.67115  1.0000
  C   C252      1.0  0.30627  0.13365  0.66216  1.0000
  H   H242      1.0  0.27655  0.09354  0.65265  1.0000
  C   C253      1.0  0.28230  0.10979  0.65290  1.0000
  C   C254      1.0  0.27824  0.14851  0.64521  1.0000
  C   C255      1.0  0.47523  0.30162  0.61835  1.0000
  H   H243      1.0  0.14660  0.06008  0.68626  1.0000
  H   H244      1.0  0.49595  0.32791  0.62057  1.0000
  C   C256      1.0  0.29573  0.15168  0.65407  1.0000
  H   H245      1.0  0.39281  0.39360  0.58953  1.0000
  H   H246      1.0  0.25763  0.12477  0.63796  1.0000
  H   H247      1.0  0.18000  0.38984  0.71691  1.0000
  H   H248      1.0  0.40804  0.40609  0.62989  1.0000
  C   C257      1.0  0.27149  0.12743  0.64457  1.0000
  N   N20       1.0  0.29959  0.11302  0.66142  1.0000
  H   H249      1.0  0.22182  0.04817  0.68836  1.0000
  C   C258      1.0  0.02153  0.09474  0.53520  1.0000
  N   N21       1.0  0.19762  0.04243  0.67273  1.0000
  C   C259      1.0  0.24427  0.01960  0.73121  1.0000
  H   H250      1.0  0.22157  0.02056  0.68300  1.0000
  C   C260      1.0  0.01851  0.21794  0.70284  1.0000
  C   C261      1.0  0.16365  0.01091  0.51262  1.0000
  H   H251      1.0  0.25537  0.03269  0.72865  1.0000
  C   C262      1.0  0.19421  0.03881  0.65711  1.0000
  C   C263      1.0  0.18361  0.22349  0.72484  1.0000
  C   C264      1.0  0.46519  0.29033  0.60747  1.0000
  H   H252      1.0  0.17166  0.02598  0.50880  1.0000
  H   H253      1.0  0.30902  0.07903  0.66496  1.0000
  C   C265      1.0  0.43304  0.36438  0.49158  1.0000
  H   H254      1.0  0.20377  0.20825  0.70567  1.0000
  C   C266      1.0  0.22216  0.02376  0.72895  1.0000
  C   C267      1.0  0.48823  0.31887  0.61227  1.0000
  N   N22       1.0  0.46784  0.29622  0.59101  1.0000
  C   C268      1.0  0.19912  0.20806  0.71870  1.0000
  H   H255      1.0  0.46889  0.27067  0.57542  1.0000
  H   H256      1.0  0.29262  0.48723  0.71596  1.0000
  H   H257      1.0  0.17666  0.23596  0.71640  1.0000
  H   H258      1.0  0.06724  0.10787  0.55108  1.0000
  H   H259      1.0  0.18344  0.02477  0.53602  1.0000
  C   C269      1.0  0.47500  0.23624  0.72558  1.0000
  C   C270      1.0  0.32308  0.25403  0.72486  1.0000
  H   H260      1.0  0.18323  0.05168  0.69580  1.0000
  H   H261      1.0  0.48881  0.39721  0.56685  1.0000
  C   C271      1.0  0.03836  0.12915  0.54832  1.0000
  H   H262      1.0  0.01318  0.16546  0.53722  1.0000
  H   H263      1.0  0.37783  0.36514  0.49494  1.0000
  H   H264      1.0  0.16927  0.06766  0.48925  1.0000
  C   C272      1.0  0.20769  0.19154  0.72938  1.0000
  C   C273      1.0  0.18064  0.04931  0.68329  1.0000
  C   C274      1.0  0.45749  0.28399  0.57976  1.0000
  H   H265      1.0  0.24242  0.47768  0.70651  1.0000
  H   H266      1.0  0.33363  0.14050  0.71123  1.0000
  C   C275      1.0  0.10821  0.05491  0.49478  1.0000
  H   H267      1.0  0.21898  0.17892  0.72464  1.0000
  C   C276      1.0  0.23801  0.48558  0.71761  1.0000
  C   C277      1.0  0.15223  0.06393  0.49086  1.0000
  H   H268      1.0  0.14043  0.05467  0.65754  1.0000
  H   H269      1.0  0.39320  0.32699  0.49493  1.0000
  H   H270      1.0  0.03794  0.24275  0.70990  1.0000
  H   H271      1.0  0.00326  0.15581  0.55788  1.0000
  H   H272      1.0  0.05201  0.07697  0.53963  1.0000
  H   H273      1.0  0.33464  0.24267  0.71887  1.0000
  C   C278      1.0  0.14835  0.00411  0.50301  1.0000
  H   H274      1.0  0.19618  0.42383  0.72300  1.0000
  C   C279      1.0  0.00938  0.11453  0.53665  1.0000
  C   C280      1.0  0.00762  0.25629  0.70131  1.0000
  H   H275      1.0  0.29312  0.27204  0.69363  1.0000
  C   C281      1.0  0.28835  0.49064  0.72855  1.0000
  C   C282      1.0  0.49120  0.32448  0.59545  1.0000
  N   N23       1.0  0.30710  0.26505  0.71650  1.0000
  H   H276      1.0  0.08025  0.00612  0.59483  1.0000
  C   C283      1.0  0.29258  0.27950  0.72402  1.0000
  C   C284      1.0  0.17743  0.39524  0.72911  1.0000
  H   H277      1.0  0.14424  0.01410  0.49205  1.0000
  C   C285      1.0  0.18650  0.41430  0.73251  1.0000
  C   C286      1.0  0.18396  0.00659  0.53690  1.0000
  H   H278      1.0  0.01063  0.27293  0.70336  1.0000
  H   H279      1.0  0.19088  0.00940  0.73082  1.0000
  S   S98       1.0  0.23408  0.44380  0.73232  1.0000
  H   H280      1.0  0.28021  0.28869  0.71736  1.0000
  C   C287      1.0  0.23316  0.47274  0.73242  1.0000
  H   H281      1.0  0.18004  0.00099  0.55003  1.0000
  H   H282      1.0  0.20070  0.00041  0.53286  1.0000
  Fe  Fe49      1.0  0.06769  0.10881  0.90898  1.0000
  S   S99       1.0  0.06547  0.14536  0.90970  1.0000
  S   S100      1.0  0.09826  0.08724  0.90536  1.0000
  Fe  Fe50      1.0  0.01876  0.10485  0.91299  1.0000
  C   C288      1.0  0.01721  0.24240  0.83972  1.0000
  Fe  Fe51      1.0  0.03845  0.14494  0.89314  1.0000
  S   S101      1.0  0.03279  0.16168  0.86792  1.0000
  Fe  Fe52      1.0  0.03935  0.13832  0.93058  1.0000
  S   S102      1.0  0.03268  0.15392  0.95466  1.0000
  S   S103      1.0  0.04290  0.10888  0.89106  1.0000
  S   S104      1.0  0.04399  0.10195  0.93092  1.0000
  Fe  Fe53      1.0  0.34804  0.42403  0.91967  1.0000
  S   S105      1.0  0.37225  0.44875  0.91030  1.0000
  S   S106      1.0  0.34955  0.40906  0.94589  1.0000
  Fe  Fe54      1.0  0.33251  0.42207  0.88515  1.0000
  S   S107      1.0  0.35596  0.44691  0.87359  1.0000
  S   S108      1.0  0.31071  0.40270  0.87140  1.0000
  Fe  Fe55      1.0  0.38026  0.42873  0.88918  1.0000
  S   S109      1.0  0.41554  0.42451  0.87934  1.0000
  Fe  Fe56      1.0  0.34602  0.46478  0.89587  1.0000
  H   H283      1.0  0.04708  0.03115  0.90057  1.0000
  S   S110      1.0  0.35789  0.40253  0.89927  1.0000
  S   S111      1.0  0.32059  0.44137  0.90663  1.0000
  S   S112      1.0  0.47843  0.35046  0.91108  1.0000
  Fe  Fe57      1.0  0.22172  0.37457  0.77297  1.0000
  S   S113      1.0  0.23121  0.38155  0.74621  1.0000
  S   S114      1.0  0.19066  0.35660  0.78290  1.0000
  Fe  Fe58      1.0  0.26173  0.39726  0.78221  1.0000
  S   S115      1.0  0.27402  0.40433  0.75562  1.0000
  S   S116      1.0  0.28226  0.41484  0.79826  1.0000
  Fe  Fe59      1.0  0.23952  0.41511  0.75157  1.0000
  S   S117      1.0  0.01202  0.14084  0.91401  1.0000
  Fe  Fe60      1.0  0.26511  0.37046  0.75226  1.0000
  C   C289      1.0  0.02029  0.23960  0.79443  1.0000
  S   S118      1.0  0.22715  0.40944  0.77811  1.0000
  S   S119      1.0  0.25555  0.36200  0.77907  1.0000
  Fe  Fe61      1.0  0.10685  0.26396  0.76521  1.0000
  S   S120      1.0  0.13162  0.28923  0.75403  1.0000
  Fe  Fe62      1.0  0.08269  0.23962  0.79512  1.0000
  S   S121      1.0  0.07359  0.21294  0.78103  1.0000
  S   S122      1.0  0.07611  0.23946  0.82266  1.0000
  S   S123      1.0  0.11761  0.23868  0.78455  1.0000
  S   S124      1.0  0.07187  0.26689  0.77686  1.0000
  C   C290      1.0  0.48253  0.33246  0.97358  1.0000
  H   H284      1.0  0.48464  0.20828  0.74154  1.0000
  C   C291      1.0  0.34220  0.44682  0.96203  1.0000
  C   C292      1.0  0.06677  0.03684  0.94141  1.0000
  H   H285      1.0  0.03139  0.26123  0.81040  1.0000
  C   C293      1.0  0.10602  0.01232  0.93928  1.0000
  H   H286      1.0  0.02635  0.24905  0.78332  1.0000
  H   H287      1.0  0.48675  0.38908  0.88894  1.0000
  H   H288      1.0  0.07020  0.13333  0.85247  1.0000
  H   H289      1.0  0.08633  0.13309  0.82332  1.0000
  C   C294      1.0  0.33696  0.31908  0.75015  1.0000
  C   C295      1.0  0.31756  0.33227  0.74925  1.0000
  H   H290      1.0  0.34419  0.31618  0.76162  1.0000
  H   H291      1.0  0.30985  0.33941  0.75998  1.0000
  C   C296      1.0  0.17552  0.33671  0.77488  1.0000
  C   C297      1.0  0.17927  0.33141  0.75868  1.0000
  C   C298      1.0  0.16580  0.31682  0.75261  1.0000
  C   C299      1.0  0.14866  0.30687  0.76267  1.0000
  C   C300      1.0  0.14521  0.31184  0.77896  1.0000
  C   C301      1.0  0.15839  0.32677  0.78493  1.0000
  H   H292      1.0  0.19234  0.33879  0.75074  1.0000
  H   H293      1.0  0.13212  0.30451  0.78690  1.0000
  H   H294      1.0  0.15521  0.33068  0.79747  1.0000
  C   C302      1.0  0.29392  0.28324  0.74032  1.0000
  H   H295      1.0  0.02525  0.19924  0.97180  1.0000
  C   C303      1.0  0.40873  0.40847  0.93776  1.0000
  C   C304      1.0  0.30191  0.40722  0.85134  1.0000
  C   C305      1.0  0.28855  0.39204  0.84607  1.0000
  C   C306      1.0  0.28228  0.39408  0.82996  1.0000
  C   C307      1.0  0.28924  0.41143  0.81887  1.0000
  C   C308      1.0  0.30253  0.42667  0.82416  1.0000
  C   C309      1.0  0.30879  0.42464  0.84027  1.0000
  H   H296      1.0  0.28303  0.37854  0.85452  1.0000
  H   H297      1.0  0.27201  0.38226  0.82615  1.0000
  H   H298      1.0  0.30799  0.44020  0.81573  1.0000
  H   H299      1.0  0.31904  0.43646  0.84409  1.0000
  C   C310      1.0  0.43258  0.40387  0.88852  1.0000
  C   C311      1.0  0.45521  0.40449  0.88480  1.0000
  C   C312      1.0  0.46934  0.38835  0.89187  1.0000
  C   C313      1.0  0.46091  0.37124  0.90252  1.0000
  C   C314      1.0  0.43824  0.37067  0.90635  1.0000
  C   C315      1.0  0.42409  0.38703  0.89944  1.0000
  H   H300      1.0  0.46189  0.41752  0.87642  1.0000
  C   C316      1.0  0.42241  0.44169  0.92243  1.0000
  H   H301      1.0  0.43162  0.35747  0.91459  1.0000
  H   H302      1.0  0.40665  0.38642  0.90240  1.0000
  H   H303      1.0  0.33954  0.45539  0.95027  1.0000
  C   C317      1.0  0.04702  0.18224  0.85566  1.0000
  C   C318      1.0  0.04652  0.18319  0.83863  1.0000
  C   C319      1.0  0.05632  0.20006  0.82833  1.0000
  C   C320      1.0  0.06614  0.21654  0.83502  1.0000
  C   C321      1.0  0.06688  0.21547  0.85205  1.0000
  C   C322      1.0  0.05759  0.19822  0.86234  1.0000
  H   H304      1.0  0.03831  0.17089  0.83339  1.0000
  H   H305      1.0  0.05556  0.20072  0.81528  1.0000
  H   H306      1.0  0.07437  0.22823  0.85732  1.0000
  H   H307      1.0  0.05786  0.19775  0.87546  1.0000
  C   C323      1.0  0.00207  0.20831  0.80780  1.0000
  C   C324      1.0  0.12674  0.04536  0.93655  1.0000
  H   H308      1.0  0.42461  0.40001  0.93399  1.0000
  H   H309      1.0  0.20673  0.17740  0.75431  1.0000
  C   C325      1.0  0.35234  0.38947  0.83956  1.0000
  C   C326      1.0  0.15789  0.15679  0.74990  1.0000
  N   N24       1.0  0.09444  0.15417  0.84060  1.0000
  H   H310      1.0  0.07497  0.13305  0.96149  1.0000
  C   C327      1.0  0.10377  0.17310  0.84290  1.0000
  C   C328      1.0  0.00126  0.03214  0.89020  1.0000
  C   C329      1.0  0.10230  0.02344  0.89632  1.0000
  C   C330      1.0  0.11086  0.18103  0.81372  1.0000
  C   C331      1.0  0.10785  0.04474  0.89840  1.0000
  C   C332      1.0  0.09145  0.06103  0.90144  1.0000
  C   C333      1.0  0.06956  0.05596  0.90226  1.0000
  C   C334      1.0  0.06404  0.03489  0.89983  1.0000
  H   H311      1.0  0.32413  0.35837  0.86477  1.0000
  H   H312      1.0  0.12482  0.04855  0.89773  1.0000
  H   H313      1.0  0.05676  0.06807  0.90515  1.0000
  C   C335      1.0  0.20074  0.19064  0.74601  1.0000
  H   H314      1.0  0.08667  0.06454  0.93917  1.0000
  N   N25       1.0  0.01520  0.23452  0.82376  1.0000
  H   H315      1.0  0.15270  0.24880  0.73763  1.0000
  C   C336      1.0  0.44941  0.29740  0.74368  1.0000
  C   C337      1.0  0.19043  0.00032  0.77341  1.0000
  C   C338      1.0  0.00663  0.23990  0.74473  1.0000
  H   H316      1.0  0.34278  0.34006  0.85353  1.0000
  H   H317      1.0  0.25898  0.45189  0.76683  1.0000
  H   H318      1.0  0.17909  0.20494  0.76457  1.0000
  C   C339      1.0  0.31033  0.27226  0.74888  1.0000
  H   H319      1.0  0.43157  0.47183  0.90861  1.0000
  H   H320      1.0  0.47109  0.34122  0.94975  1.0000
  H   H321      1.0  0.11858  0.20229  0.83133  1.0000
  H   H322      1.0  0.46821  0.33955  0.98025  1.0000
  H   H323      1.0  0.16871  0.31322  0.73999  1.0000
  S   S125      1.0  0.03315  0.23103  0.75081  1.0000
  C   C340      1.0  0.39808  0.44495  0.94633  1.0000
  H   H324      1.0  0.41953  0.23503  0.74830  1.0000
  H   H325      1.0  0.45467  0.23974  0.76609  1.0000
  H   H326      1.0  0.11700  0.19162  0.80321  1.0000
  H   H327      1.0  0.35375  0.39592  0.97977  1.0000
  H   H328      1.0  0.10091  0.15692  0.79917  1.0000
  Fe  Fe63      1.0  0.10768  0.21398  0.76884  1.0000
  H   H329      1.0  0.48294  0.30028  0.74830  1.0000
  C   C341      1.0  0.38313  0.40392  0.85002  1.0000
  H   H330      1.0  0.08255  0.14867  0.86588  1.0000
  H   H331      1.0  0.41676  0.28947  0.74060  1.0000
  C   C342      1.0  0.45287  0.25618  0.76021  1.0000
  C   C343      1.0  0.36648  0.37170  0.86339  1.0000
  H   H332      1.0  0.36789  0.41865  0.82895  1.0000
  C   C344      1.0  0.08672  0.04685  0.93988  1.0000
  H   H333      1.0  0.09791  0.12592  0.85729  1.0000
  N   N26       1.0  0.17671  0.22232  0.74116  1.0000
  H   H334      1.0  0.28788  0.44690  0.76844  1.0000
  C   C345      1.0  0.10169  0.16153  0.81147  1.0000
  C   C346      1.0  0.14310  0.17509  0.74957  1.0000
  H   H335      1.0  0.15845  0.36798  0.73913  1.0000
  S   S126      1.0  0.12945  0.18298  0.76811  1.0000
  H   H336      1.0  0.38735  0.47767  0.95184  1.0000
  H   H337      1.0  0.15369  0.38009  0.76698  1.0000
  C   C347      1.0  0.46891  0.29021  0.75020  1.0000
  H   H338      1.0  0.00801  0.21484  0.78160  1.0000
  C   C348      1.0  0.39764  0.46775  0.94367  1.0000
  C   C349      1.0  0.18359  0.42072  0.74842  1.0000
  N   N27       1.0  0.17189  0.40849  0.76058  1.0000
  C   C350      1.0  0.27419  0.45951  0.76897  1.0000
  H   H339      1.0  0.48599  0.26354  0.76323  1.0000
  H   H340      1.0  0.13255  0.04650  0.94872  1.0000
  C   C351      1.0  0.08599  0.13979  0.85472  1.0000
  N   N28       1.0  0.27854  0.47779  0.75657  1.0000
  H   H341      1.0  0.15145  0.41845  0.78103  1.0000
  H   H342      1.0  0.16700  0.24873  0.75556  1.0000
  C   C352      1.0  0.09353  0.14819  0.82514  1.0000
  C   C353      1.0  0.08035  0.01855  0.89696  1.0000
  H   H343      1.0  0.10442  0.17794  0.85512  1.0000
  C   C354      1.0  0.06516  0.13453  0.97297  1.0000
  H   H344      1.0  0.05155  0.04670  0.94183  1.0000
  C   C355      1.0  0.16536  0.38301  0.74154  1.0000
  H   H345      1.0  0.39422  0.38591  0.87157  1.0000
  H   H346      1.0  0.17547  0.40171  0.78587  1.0000
  C   C356      1.0  0.47063  0.26954  0.75862  1.0000
  H   H347      1.0  0.41204  0.24268  0.76879  1.0000
  C   C357      1.0  0.16903  0.41506  0.77729  1.0000
  C   C358      1.0  0.15998  0.23807  0.74752  1.0000
  H   H348      1.0  0.22304  0.47367  0.75805  1.0000
  H   H349      1.0  0.33826  0.24944  0.74750  1.0000
  H   H350      1.0  0.38721  0.48780  0.88800  1.0000
  H   H351      1.0  0.43153  0.43166  0.91373  1.0000
  C   C359      1.0  0.30785  0.33563  0.73454  1.0000
  C   C360      1.0  0.34092  0.45837  0.97607  1.0000
  C   C361      1.0  0.35017  0.41338  0.97868  1.0000
  C   C362      1.0  0.43183  0.28377  0.74576  1.0000
  C   C363      1.0  0.06667  0.01415  0.94181  1.0000
  H   H352      1.0  0.18655  0.01548  0.76617  1.0000
  H   H353      1.0  0.18182  0.13712  0.73592  1.0000
  H   H354      1.0  0.00960  0.27423  0.74625  1.0000
  S   S127      1.0  0.36963  0.29092  0.73829  1.0000
  C   C364      1.0  0.05878  0.19138  0.97616  1.0000
  H   H355      1.0  0.28620  0.45682  0.73747  1.0000
  C   C365      1.0  0.14025  0.18725  0.73468  1.0000
  C   C366      1.0  0.32502  0.25754  0.74113  1.0000
  H   H356      1.0  0.00257  0.25284  0.84337  1.0000
  C   C367      1.0  0.04344  0.14257  0.97297  1.0000
  H   H357      1.0  0.01906  0.22852  0.84924  1.0000
  C   C368      1.0  0.02290  0.24646  0.80976  1.0000
  H   H358      1.0  0.16014  0.14726  0.76137  1.0000
  H   H359      1.0  0.27237  0.46464  0.78160  1.0000
  C   C369      1.0  0.38256  0.38694  0.86247  1.0000
  C   C370      1.0  0.42246  0.46445  0.91944  1.0000
  H   H360      1.0  0.19108  0.43537  0.75095  1.0000
  C   C371      1.0  0.33504  0.35682  0.85333  1.0000
  C   C372      1.0  0.22719  0.48323  0.74662  1.0000
  C   C373      1.0  0.34673  0.42422  0.96329  1.0000
  Fe  Fe64      1.0  0.06440  0.23970  0.76184  1.0000
  N   N29       1.0  0.43373  0.26346  0.75397  1.0000
  H   H361      1.0  0.39613  0.40378  0.93018  1.0000
  C   C374      1.0  0.11196  0.18688  0.82950  1.0000
  H   H362      1.0  0.38818  0.43749  0.95670  1.0000
  C   C375      1.0  0.41546  0.24901  0.75581  1.0000
  H   H363      1.0  0.32459  0.35926  0.84301  1.0000
  H   H364      1.0  0.11498  0.01095  0.89388  1.0000
  N   N30       1.0  0.35174  0.37302  0.85195  1.0000
  H   H365      1.0  0.17790  0.42989  0.77851  1.0000
  S   S128      1.0  0.09850  0.23880  0.74866  1.0000
  H   H366      1.0  0.34041  0.39079  0.83065  1.0000
  H   H367      1.0  0.40376  0.40258  0.95067  1.0000
  C   C376      1.0  0.34667  0.30920  0.73639  1.0000
  H   H368      1.0  0.39519  0.41617  0.84950  1.0000
  C   C377      1.0  0.36789  0.40528  0.83850  1.0000
  H   H369      1.0  0.36567  0.35899  0.87344  1.0000
  N   N31       1.0  0.41026  0.43225  0.93572  1.0000
  N   N32       1.0  0.10599  0.03460  0.93843  1.0000
  C   C378      1.0  0.40987  0.47753  0.93009  1.0000
  H   H370      1.0  0.14648  0.22926  0.75464  1.0000
  C   C379      1.0  0.16268  0.38996  0.75728  1.0000
  H   H371      1.0  0.40026  0.25761  0.75179  1.0000
  H   H372      1.0  0.12126  0.00250  0.93849  1.0000
  H   H373      1.0  0.03199  0.25199  0.83938  1.0000
  H   H374      1.0  0.40920  0.49519  0.92762  1.0000
  H   H375      1.0  0.13931  0.03614  0.92893  1.0000
  H   H376      1.0  0.06401  0.18967  0.96338  1.0000
  H   H377      1.0  0.33717  0.47580  0.97500  1.0000
  C   C380      1.0  0.03694  0.19676  0.98091  1.0000
  C   C381      1.0  0.17016  0.15098  0.73550  1.0000
  H   H378      1.0  0.44800  0.31326  0.73682  1.0000
  C   C382      1.0  0.48415  0.33345  0.95654  1.0000
  H   H379      1.0  0.05138  0.00614  0.94265  1.0000
  C   C383      1.0  0.18510  0.20624  0.75173  1.0000
  C   C384      1.0  0.28472  0.47353  0.74077  1.0000
  H   H380      1.0  0.12494  0.06205  0.93016  1.0000
  C   C385      1.0  0.48893  0.22434  0.73620  1.0000
  C   C386      1.0  0.00470  0.21577  0.82294  1.0000
  H   H381      1.0  0.00513  0.03667  0.90225  1.0000
  C   C387      1.0  0.08639  0.00178  0.94095  1.0000
  H   H382      1.0  0.31213  0.27574  0.76129  1.0000
  C   C388      1.0  0.00991  0.22036  0.79347  1.0000
  H   H383      1.0  0.22456  0.00593  0.77215  1.0000
  H   H384      1.0  0.28291  0.29535  0.74604  1.0000
  H   H385      1.0  0.01599  0.03407  0.88138  1.0000
  C   C389      1.0  0.27542  0.49889  0.76059  1.0000
  H   H386      1.0  0.12880  0.20126  0.73425  1.0000
  C   C390      1.0  0.49967  0.32245  0.98198  1.0000
  C   C391      1.0  0.16368  0.84520  0.23056  1.0000
  Fe  Fe65      1.0  0.08394  0.93326  0.06991  1.0000
  S   S129      1.0  0.10785  0.90444  0.06984  1.0000
  S   S130      1.0  0.04732  0.93426  0.07024  1.0000
  Fe  Fe66      1.0  0.11972  0.96570  0.06660  1.0000
  S   S131      1.0  0.14675  0.93944  0.06575  1.0000
  Fe  Fe67      1.0  0.12603  0.92441  0.04903  1.0000
  S   S132      1.0  0.13591  0.90844  0.02548  1.0000
  Fe  Fe68      1.0  0.12629  0.92204  0.08660  1.0000
  S   S133      1.0  0.13449  0.90877  0.11231  1.0000
  S   S134      1.0  0.10095  0.95218  0.04836  1.0000
  S   S135      1.0  0.10042  0.94944  0.08815  1.0000
  C   C392      1.0  0.12699  0.94476  0.00406  1.0000
  Fe  Fe69      1.0  0.43240  0.63308  0.03668  1.0000
  S   S136      1.0  0.43077  0.59735  0.04420  1.0000
  S   S137      1.0  0.44237  0.64438  0.01007  1.0000
  Fe  Fe70      1.0  0.42296  0.64529  0.07245  1.0000
  S   S138      1.0  0.42041  0.61017  0.08235  1.0000
  S   S139      1.0  0.42224  0.67471  0.08755  1.0000
  Fe  Fe71      1.0  0.44988  0.60366  0.06481  1.0000
  C   C393      1.0  0.38399  0.67830  0.98543  1.0000
  Fe  Fe72      1.0  0.40161  0.60710  0.06077  1.0000
  S   S140      1.0  0.37148  0.58808  0.06125  1.0000
  S   S141      1.0  0.45390  0.63888  0.05624  1.0000
  S   S142      1.0  0.40172  0.64283  0.05192  1.0000
  Fe  Fe73      1.0  0.42254  0.73439  0.20404  1.0000
  S   S143      1.0  0.41012  0.74375  0.17901  1.0000
  S   S144      1.0  0.45890  0.73223  0.20966  1.0000
  Fe  Fe74      1.0  0.37949  0.71280  0.21669  1.0000
  S   S145      1.0  0.36483  0.72056  0.19307  1.0000
  C   C394      1.0  0.04960  0.99047  0.06574  1.0000
  Fe  Fe75      1.0  0.39738  0.70994  0.18078  1.0000
  S   S146      1.0  0.39750  0.68194  0.16424  1.0000
  Fe  Fe76      1.0  0.37789  0.75391  0.19306  1.0000
  S   S147      1.0  0.35171  0.77981  0.18427  1.0000
  S   S148      1.0  0.41125  0.70021  0.20477  1.0000
  S   S149      1.0  0.39106  0.74659  0.21780  1.0000
  Fe  Fe77      1.0  0.25720  0.87801  0.20229  1.0000
  S   S150      1.0  0.23700  0.89262  0.22330  1.0000
  S   S151      1.0  0.29129  0.86208  0.20658  1.0000
  Fe  Fe78      1.0  0.22283  0.89402  0.17839  1.0000
  S   S152      1.0  0.20013  0.90897  0.19785  1.0000
  S   S153      1.0  0.22042  0.89682  0.15070  1.0000
  Fe  Fe79      1.0  0.23003  0.92246  0.20624  1.0000
  S   S154      1.0  0.22906  0.95957  0.20923  1.0000
  Fe  Fe80      1.0  0.20856  0.87823  0.21365  1.0000
  H   H387      1.0  0.12346  0.97332  0.13520  1.0000
  S   S155      1.0  0.25243  0.90901  0.18580  1.0000
  S   S156      1.0  0.22916  0.86206  0.19362  1.0000
  H   H388      1.0  0.00954  0.76233  0.20621  1.0000
  H   H389      1.0  0.10310  0.87585  0.03836  1.0000
  C   C395      1.0  0.47628  0.74033  0.22399  1.0000
  C   C396      1.0  0.01431  0.79416  0.21325  1.0000
  H   H390      1.0  0.16991  0.94804  0.13622  1.0000
  C   C397      1.0  0.02937  0.80816  0.21745  1.0000
  H   H391      1.0  0.26862  0.99168  0.19390  1.0000
  H   H392      1.0  0.05725  0.74441  0.19285  1.0000
  H   H393      1.0  0.43477  0.69111  0.99092  1.0000
  C   C398      1.0  0.33369  0.80058  0.19276  1.0000
  C   C399      1.0  0.34020  0.81418  0.20381  1.0000
  C   C400      1.0  0.32663  0.83239  0.20833  1.0000
  C   C401      1.0  0.30620  0.83714  0.20214  1.0000
  C   C402      1.0  0.29925  0.82294  0.19166  1.0000
  C   C403      1.0  0.31301  0.80495  0.18689  1.0000
  H   H394      1.0  0.35613  0.81133  0.20829  1.0000
  H   H395      1.0  0.33227  0.84324  0.21640  1.0000
  H   H396      1.0  0.28365  0.82629  0.18674  1.0000
  H   H397      1.0  0.17260  0.78213  0.21297  1.0000
  C   C404      1.0  0.29054  0.98673  0.23029  1.0000
  H   H398      1.0  0.06324  0.81185  0.22067  1.0000
  H   H399      1.0  0.31192  0.60904  0.19785  1.0000
  C   C405      1.0  0.03527  0.91105  0.02638  1.0000
  C   C406      1.0  0.18728  0.96959  0.09816  1.0000
  C   C407      1.0  0.12992  0.81737  0.22728  1.0000
  C   C408      1.0  0.14158  0.82751  0.21340  1.0000
  H   H400      1.0  0.13772  0.82448  0.20134  1.0000
  C   C409      1.0  0.33140  0.67764  0.22144  1.0000
  C   C410      1.0  0.31367  0.66486  0.22010  1.0000
  H   H401      1.0  0.33798  0.68777  0.21095  1.0000
  H   H402      1.0  0.30689  0.66508  0.20849  1.0000
  C   C411      1.0  0.39895  0.68261  0.01120  1.0000
  C   C412      1.0  0.40458  0.68043  0.14287  1.0000
  C   C413      1.0  0.41171  0.69835  0.13243  1.0000
  C   C414      1.0  0.41695  0.69629  0.11557  1.0000
  C   C415      1.0  0.41512  0.67636  0.10890  1.0000
  C   C416      1.0  0.40810  0.65840  0.11935  1.0000
  C   C417      1.0  0.40288  0.66045  0.13620  1.0000
  H   H403      1.0  0.41309  0.71383  0.13732  1.0000
  H   H404      1.0  0.42234  0.71032  0.10763  1.0000
  H   H405      1.0  0.40647  0.64298  0.11445  1.0000
  H   H406      1.0  0.39737  0.64646  0.14412  1.0000
  C   C418      1.0  0.40909  0.62837  0.99507  1.0000
  C   C419      1.0  0.43054  0.63505  0.99345  1.0000
  H   H407      1.0  0.49225  0.67799  0.09233  1.0000
  H   H408      1.0  0.40009  0.62682  0.00701  1.0000
  H   H409      1.0  0.06582  0.98159  0.06606  1.0000
  C   C420      1.0  0.36547  0.52254  0.06534  1.0000
  C   C421      1.0  0.40253  0.52894  0.07014  1.0000
  C   C422      1.0  0.39784  0.55155  0.06829  1.0000
  C   C423      1.0  0.37699  0.55977  0.06485  1.0000
  C   C424      1.0  0.36075  0.54523  0.06354  1.0000
  N   N33       1.0  0.14916  0.96237  0.11841  1.0000
  H   H410      1.0  0.41876  0.52275  0.07269  1.0000
  H   H411      1.0  0.41042  0.56262  0.06945  1.0000
  H   H412      1.0  0.34456  0.55155  0.06097  1.0000
  H   H413      1.0  0.28451  0.96357  0.21344  1.0000
  C   C425      1.0  0.15875  0.90505  0.12253  1.0000
  C   C426      1.0  0.15685  0.90119  0.13968  1.0000
  C   C427      1.0  0.17547  0.89884  0.14849  1.0000
  C   C428      1.0  0.19634  0.89995  0.14021  1.0000
  C   C429      1.0  0.19827  0.90362  0.12303  1.0000
  C   C430      1.0  0.17962  0.90628  0.11423  1.0000
  H   H414      1.0  0.14083  0.90002  0.14625  1.0000
  H   H415      1.0  0.17368  0.89590  0.16167  1.0000
  H   H416      1.0  0.21432  0.90437  0.11648  1.0000
  H   H417      1.0  0.18138  0.90911  0.10104  1.0000
  C   C431      1.0  0.13164  0.92221  0.00602  1.0000
  C   C432      1.0  0.16896  0.95626  0.12406  1.0000
  H   H418      1.0  0.12600  0.95419  0.01452  1.0000
  C   C433      1.0  0.30186  0.71907  0.23359  1.0000
  C   C434      1.0  0.01256  0.87290  0.06278  1.0000
  H   H419      1.0  0.32889  0.60586  0.22399  1.0000
  C   C435      1.0  0.01227  0.91198  0.06483  1.0000
  C   C436      1.0  0.03431  0.91027  0.06781  1.0000
  C   C437      1.0  0.04550  0.88977  0.06833  1.0000
  C   C438      1.0  0.03458  0.87108  0.06594  1.0000
  H   H420      1.0  0.10541  0.87637  0.01642  1.0000
  H   H421      1.0  0.38405  0.65534  0.21650  1.0000
  H   H422      1.0  0.06248  0.88829  0.07069  1.0000
  H   H423      1.0  0.04325  0.85526  0.06642  1.0000
  N   N34       1.0  0.36263  0.64125  0.20188  1.0000
  C   C439      1.0  0.40328  0.55111  0.02725  1.0000
  C   C440      1.0  0.35375  0.64269  0.18725  1.0000
  C   C441      1.0  0.18941  0.79773  0.22985  1.0000
  C   C442      1.0  0.22963  0.97732  0.22515  1.0000
  H   H424      1.0  0.13242  0.97824  0.09873  1.0000
  H   H425      1.0  0.13699  0.89290  0.99353  1.0000
  H   H426      1.0  0.37788  0.67137  0.19822  1.0000
  H   H427      1.0  0.47094  0.67046  0.08074  1.0000
  C   C443      1.0  0.12901  0.95849  0.12901  1.0000
  H   H428      1.0  0.36115  0.62685  0.22651  1.0000
  C   C444      1.0  0.36754  0.50462  0.02567  1.0000
  H   H429      1.0  0.08941  0.91517  0.02875  1.0000
  C   C445      1.0  0.14805  0.97282  0.10309  1.0000
  C   C446      1.0  0.47751  0.66838  0.09289  1.0000
  C   C447      1.0  0.05783  0.77998  0.21351  1.0000
  H   H430      1.0  0.39439  0.58550  0.02363  1.0000
  H   H431      1.0  0.20210  0.97194  0.09012  1.0000
  N   N35       1.0  0.04288  0.76620  0.20974  1.0000
  C   C448      1.0  0.38116  0.65437  0.20351  1.0000
  C   C449      1.0  0.03521  0.88855  0.02553  1.0000
  S   S157      1.0  0.47634  0.57896  0.07235  1.0000
  C   C450      1.0  0.49380  0.72600  0.22863  1.0000
  H   H432      1.0  0.49494  0.70955  0.22498  1.0000
  H   H433      1.0  0.03901  0.98098  0.05923  1.0000
  H   H434      1.0  0.34424  0.54191  0.01890  1.0000
  H   H435      1.0  0.36058  0.65327  0.17694  1.0000
  H   H436      1.0  0.00355  0.92779  0.06430  1.0000
  C   C451      1.0  0.42076  0.68808  0.98464  1.0000
  C   C452      1.0  0.16705  0.97644  0.09270  1.0000
  H   H437      1.0  0.08979  0.99571  0.08871  1.0000
  H   H438      1.0  0.34944  0.50421  0.02711  1.0000
  H   H439      1.0  0.49361  0.58325  0.10797  1.0000
  C   C453      1.0  0.33616  0.61573  0.21348  1.0000
  H   H440      1.0  0.01995  0.88081  0.02511  1.0000
  C   C454      1.0  0.07422  0.90760  0.02785  1.0000
  H   H441      1.0  0.44847  0.63866  0.10257  1.0000
  H   H442      1.0  0.12148  0.97288  0.98700  1.0000
  C   C455      1.0  0.31547  0.74570  0.21229  1.0000
  C   C456      1.0  0.15847  0.84134  0.21501  1.0000
  C   C457      1.0  0.27486  0.99649  0.20480  1.0000
  N   N36       1.0  0.40132  0.68319  0.99332  1.0000
  H   H443      1.0  0.45553  0.59901  0.10939  1.0000
  H   H444      1.0  0.31569  0.75328  0.19985  1.0000
  H   H445      1.0  0.09200  0.85452  0.02890  1.0000
  C   C458      1.0  0.39584  0.53002  0.02791  1.0000
  N   N37       1.0  0.29437  0.86272  0.15593  1.0000
  C   C459      1.0  0.30333  0.84440  0.14916  1.0000
  C   C460      1.0  0.30569  0.87302  0.16612  1.0000
  C   C461      1.0  0.32435  0.83621  0.15230  1.0000
  C   C462      1.0  0.32674  0.86530  0.16950  1.0000
  C   C463      1.0  0.33607  0.84674  0.16257  1.0000
  C   C464      1.0  0.27193  0.87043  0.15322  1.0000
  H   H446      1.0  0.29409  0.83579  0.14153  1.0000
  H   H447      1.0  0.29817  0.88682  0.17222  1.0000
  H   H448      1.0  0.33124  0.82134  0.14732  1.0000
  H   H449      1.0  0.33523  0.87300  0.17813  1.0000
  H   H450      1.0  0.35198  0.83999  0.16567  1.0000
  H   H451      1.0  0.26744  0.86655  0.14115  1.0000
  H   H452      1.0  0.26035  0.86272  0.16291  1.0000
  H   H453      1.0  0.26966  0.88845  0.15342  1.0000
  N   N38       1.0  0.37484  0.52690  0.02501  1.0000
  C   C465      1.0  0.36089  0.54437  0.02118  1.0000
  C   C466      1.0  0.05011  0.74407  0.20573  1.0000
  C   C467      1.0  0.36775  0.56570  0.02055  1.0000
  C   C468      1.0  0.47514  0.76153  0.22893  1.0000
  H   H454      1.0  0.07488  0.77456  0.21374  1.0000
  H   H455      1.0  0.35291  0.51142  0.06426  1.0000
  H   H456      1.0  0.41968  0.55359  0.03013  1.0000
  H   H457      1.0  0.16764  0.84876  0.20427  1.0000
  S   S158      1.0  0.28422  0.63404  0.23070  1.0000
  C   C469      1.0  0.35432  0.62774  0.21484  1.0000
  H   H458      1.0  0.05451  0.85841  0.02571  1.0000
  H   H459      1.0  0.13142  0.94450  0.13834  1.0000
  C   C470      1.0  0.38908  0.56903  0.02360  1.0000
  H   H460      1.0  0.06238  0.73689  0.21400  1.0000
  H   H461      1.0  0.46206  0.77294  0.22533  1.0000
  C   C471      1.0  0.32656  0.61761  0.19878  1.0000
  C   C472      1.0  0.18830  0.95960  0.11399  1.0000
  H   H462      1.0  0.38633  0.69504  0.01530  1.0000
  H   H463      1.0  0.32816  0.63257  0.17401  1.0000
  H   H464      1.0  0.05508  0.93807  0.02861  1.0000
  C   C473      1.0  0.38645  0.51439  0.06853  1.0000
  H   H465      1.0  0.03636  0.73295  0.20767  1.0000
  H   H466      1.0  0.30779  0.79468  0.17826  1.0000
  H   H467      1.0  0.16600  0.98431  0.08043  1.0000
  H   H468      1.0  0.11599  0.95385  0.12180  1.0000
  H   H469      1.0  0.34062  0.76507  0.21850  1.0000
  C   C474      1.0  0.46905  0.60958  0.10627  1.0000
  C   C475      1.0  0.09454  0.87230  0.02774  1.0000
  N   N39       1.0  0.07399  0.88551  0.02725  1.0000
  H   H470      1.0  0.00187  0.81145  0.08522  1.0000
  C   C476      1.0  0.33550  0.63099  0.18550  1.0000
  C   C477      1.0  0.02144  0.77320  0.20920  1.0000
  H   H471      1.0  0.39618  0.64760  0.19679  1.0000
  H   H472      1.0  0.20388  0.95395  0.11837  1.0000
  H   H473      1.0  0.39430  0.66613  0.01661  1.0000
  H   H474      1.0  0.35649  0.57958  0.01810  1.0000
  H   H475      1.0  0.46502  0.67538  0.10190  1.0000
  C   C478      1.0  0.05489  0.92068  0.02754  1.0000
  C   C479      1.0  0.13324  0.91032  0.99219  1.0000
  C   C480      1.0  0.46517  0.63195  0.10223  1.0000
  C   C481      1.0  0.05484  0.87593  0.02601  1.0000
  S   S159      1.0  0.10974  0.79904  0.22487  1.0000
  H   H476      1.0  0.00054  0.71256  0.22672  1.0000
  C   C482      1.0  0.32960  0.75230  0.22291  1.0000
  H   H477      1.0  0.41452  0.68566  0.01615  1.0000
  H   H478      1.0  0.36879  0.67385  0.99234  1.0000
  H   H479      1.0  0.02006  0.92090  0.02661  1.0000
  H   H480      1.0  0.16103  0.73849  0.22824  1.0000
  H   H481      1.0  0.14060  0.76002  0.22322  1.0000
  C   C483      1.0  0.28378  0.98065  0.21581  1.0000
  H   H482      1.0  0.40673  0.51617  0.03126  1.0000
  C   C484      1.0  0.49045  0.60073  0.10555  1.0000
  H   H483      1.0  0.49674  0.61877  0.05823  1.0000
  N   N40       1.0  0.48216  0.64513  0.09758  1.0000
  H   H484      1.0  0.29087  0.72333  0.20946  1.0000
  H   H485      1.0  0.04263  0.99088  0.07865  1.0000
  C   C485      1.0  0.05132  0.80115  0.21741  1.0000
  C   C486      1.0  0.00152  0.89343  0.06214  1.0000
  C   C487      1.0  0.30155  0.72895  0.21768  1.0000
  C   C488      1.0  0.12450  0.95535  0.98841  1.0000
  H   H486      1.0  0.02403  0.82435  0.22085  1.0000
  S   S160      1.0  0.18622  0.86030  0.23347  1.0000
  H   H487      1.0  0.19706  0.80919  0.22051  1.0000
  C   C489      1.0  0.17547  0.78250  0.22569  1.0000
  C   C490      1.0  0.15096  0.75260  0.23279  1.0000
  C   C491      1.0  0.30501  0.65136  0.23356  1.0000
  C   C492      1.0  0.22323  0.99960  0.22205  1.0000
  Fe  Fe81      1.0  0.02145  0.85816  0.40634  1.0000
  S   S161      1.0  0.04446  0.83013  0.41392  1.0000
  Fe  Fe82      1.0  0.05768  0.88718  0.39317  1.0000
  S   S162      1.0  0.08372  0.86169  0.39947  1.0000
  S   S163      1.0  0.06449  0.92064  0.38103  1.0000
  Fe  Fe83      1.0  0.06288  0.83842  0.38936  1.0000
  S   S164      1.0  0.07832  0.81185  0.37382  1.0000
  Fe  Fe84      1.0  0.06295  0.85583  0.42339  1.0000
  S   S165      1.0  0.07977  0.85281  0.44687  1.0000
  S   S166      1.0  0.03836  0.86452  0.38116  1.0000
  S   S167      1.0  0.03844  0.88323  0.41765  1.0000
  S   S168      1.0  0.12755  0.97220  0.41772  1.0000
  Fe  Fe85      1.0  0.24938  0.56702  0.25975  1.0000
  S   S169      1.0  0.22854  0.57763  0.28209  1.0000
  S   S170      1.0  0.25743  0.53146  0.25301  1.0000
  Fe  Fe86      1.0  0.26550  0.61350  0.25119  1.0000
  S   S171      1.0  0.24614  0.62714  0.27277  1.0000
  H   H488      1.0  0.47842  0.64484  0.36408  1.0000
  Fe  Fe87      1.0  0.25733  0.59601  0.28713  1.0000
  S   S172      1.0  0.26550  0.60082  0.31307  1.0000
  Fe  Fe88      1.0  0.21874  0.60828  0.26638  1.0000
  S   S173      1.0  0.18294  0.62179  0.26713  1.0000
  S   S174      1.0  0.27887  0.58392  0.26586  1.0000
  H   H489      1.0  0.20244  0.81148  0.24958  1.0000
  Fe  Fe89      1.0  0.10430  0.73694  0.26898  1.0000
  C   C493      1.0  0.49154  0.76839  0.23787  1.0000
  S   S175      1.0  0.13715  0.71784  0.27303  1.0000
  Fe  Fe90      1.0  0.07351  0.77445  0.28222  1.0000
  S   S176      1.0  0.06007  0.78312  0.25776  1.0000
  S   S177      1.0  0.05949  0.79801  0.30102  1.0000
  Fe  Fe91      1.0  0.05792  0.74711  0.25675  1.0000
  H   H490      1.0  0.08551  0.88404  0.36321  1.0000
  Fe  Fe92      1.0  0.09473  0.77870  0.24702  1.0000
  C   C494      1.0  0.03033  0.78229  0.37044  1.0000
  S   S178      1.0  0.06986  0.73813  0.28188  1.0000
  S   S179      1.0  0.10837  0.77280  0.27122  1.0000
  Fe  Fe93      1.0  0.34199  0.54936  0.38429  1.0000
  S   S180      1.0  0.37876  0.54896  0.38082  1.0000
  S   S181      1.0  0.32728  0.54360  0.36071  1.0000
  Fe  Fe94      1.0  0.34188  0.55351  0.42140  1.0000
  S   S182      1.0  0.37816  0.55406  0.41994  1.0000
  S   S183      1.0  0.32383  0.55162  0.44689  1.0000
  Fe  Fe95      1.0  0.37520  0.57616  0.39715  1.0000
  S   S184      1.0  0.39467  0.60619  0.39217  1.0000
  Fe  Fe96      1.0  0.37818  0.52675  0.40394  1.0000
  S   S185      1.0  0.33847  0.57817  0.39948  1.0000
  S   S186      1.0  0.34192  0.52466  0.40647  1.0000
  S   S187      1.0  0.09202  0.74321  0.24410  1.0000
  C   C495      1.0  0.46807  0.59138  0.39409  1.0000
  C   C496      1.0  0.45890  0.61225  0.39673  1.0000
  C   C497      1.0  0.43635  0.61677  0.39607  1.0000
  C   C498      1.0  0.42280  0.60027  0.39334  1.0000
  C   C499      1.0  0.43190  0.57926  0.39123  1.0000
  C   C500      1.0  0.45449  0.57492  0.39138  1.0000
  H   H491      1.0  0.46910  0.62493  0.39923  1.0000
  H   H492      1.0  0.42933  0.63298  0.39792  1.0000
  H   H493      1.0  0.42158  0.56641  0.38919  1.0000
  H   H494      1.0  0.46146  0.55874  0.38939  1.0000
  C   C501      1.0  0.33634  0.55951  0.46374  1.0000
  C   C502      1.0  0.20054  0.65324  0.31108  1.0000
  H   H495      1.0  0.36151  0.57724  0.44925  1.0000
  C   C503      1.0  0.15163  0.83547  0.24441  1.0000
  H   H496      1.0  0.33831  0.66385  0.26151  1.0000
  H   H497      1.0  0.24333  0.95352  0.24261  1.0000
  C   C504      1.0  0.24752  0.51205  0.24104  1.0000
  C   C505      1.0  0.14308  0.99082  0.36127  1.0000
  H   H498      1.0  0.09825  0.98647  0.39289  1.0000
  C   C506      1.0  0.01863  0.78890  0.35704  1.0000
  H   H499      1.0  0.49065  0.78499  0.24123  1.0000
  H   H500      1.0  0.10703  0.82234  0.31375  1.0000
  H   H501      1.0  0.23146  0.63651  0.31570  1.0000
  C   C507      1.0  0.31386  0.65115  0.24852  1.0000
  C   C508      1.0  0.19244  0.79900  0.24623  1.0000
  H   H502      1.0  0.30732  0.64075  0.25895  1.0000
  H   H503      1.0  0.16826  0.99253  0.40373  1.0000
  C   C509      1.0  0.28226  0.58433  0.32631  1.0000
  C   C510      1.0  0.28480  0.59108  0.34182  1.0000
  C   C511      1.0  0.29831  0.57880  0.35260  1.0000
  C   C512      1.0  0.30936  0.55948  0.34802  1.0000
  C   C513      1.0  0.30664  0.55265  0.33258  1.0000
  C   C514      1.0  0.29330  0.56502  0.32176  1.0000
  H   H504      1.0  0.27628  0.60594  0.34552  1.0000
  H   H505      1.0  0.30013  0.58422  0.36444  1.0000
  H   H506      1.0  0.31503  0.53770  0.32892  1.0000
  H   H507      1.0  0.29152  0.55956  0.30991  1.0000
  C   C515      1.0  0.17085  0.64899  0.26742  1.0000
  C   C516      1.0  0.18297  0.66703  0.26906  1.0000
  C   C517      1.0  0.17238  0.68789  0.27058  1.0000
  C   C518      1.0  0.14959  0.69123  0.27016  1.0000
  C   C519      1.0  0.13755  0.67328  0.26819  1.0000
  C   C520      1.0  0.14809  0.65235  0.26696  1.0000
  H   H508      1.0  0.20045  0.66481  0.26948  1.0000
  H   H509      1.0  0.18194  0.70154  0.27213  1.0000
  H   H510      1.0  0.12004  0.67542  0.26791  1.0000
  H   H511      1.0  0.13847  0.63860  0.26571  1.0000
  H   H512      1.0  0.21828  0.59997  0.31392  1.0000
  H   H513      1.0  0.31725  0.71751  0.25591  1.0000
  C   C521      1.0  0.31630  0.72600  0.24385  1.0000
  C   C522      1.0  0.32762  0.55316  0.47978  1.0000
  C   C523      1.0  0.07268  0.80808  0.35366  1.0000
  C   C524      1.0  0.05777  0.82191  0.34538  1.0000
  C   C525      1.0  0.05374  0.81831  0.32937  1.0000
  C   C526      1.0  0.06466  0.80099  0.32142  1.0000
  C   C527      1.0  0.07961  0.78720  0.32968  1.0000
  C   C528      1.0  0.08357  0.79075  0.34573  1.0000
  H   H514      1.0  0.04930  0.83532  0.35131  1.0000
  H   H515      1.0  0.04218  0.82909  0.32304  1.0000
  H   H516      1.0  0.08814  0.77384  0.32371  1.0000
  H   H517      1.0  0.09514  0.77995  0.35204  1.0000
  C   C529      1.0  0.08186  0.93489  0.39141  1.0000
  C   C530      1.0  0.08363  0.95740  0.38751  1.0000
  C   C531      1.0  0.09719  0.96908  0.39584  1.0000
  C   C532      1.0  0.10955  0.95816  0.40774  1.0000
  C   C533      1.0  0.10797  0.93562  0.41150  1.0000
  C   C534      1.0  0.09389  0.92406  0.40354  1.0000
  H   H518      1.0  0.07440  0.96584  0.37811  1.0000
  H   H519      1.0  0.15556  0.83841  0.25646  1.0000
  H   H520      1.0  0.11765  0.92709  0.42059  1.0000
  H   H521      1.0  0.09265  0.90670  0.40661  1.0000
  C   C535      1.0  0.06531  0.85359  0.46647  1.0000
  H   H522      1.0  0.19481  0.99042  0.39239  1.0000
  C   C536      1.0  0.04255  0.85633  0.46849  1.0000
  S   S188      1.0  0.03060  0.73194  0.24497  1.0000
  H   H523      1.0  0.03331  0.85742  0.45793  1.0000
  C   C537      1.0  0.17858  0.59017  0.30712  1.0000
  H   H524      1.0  0.09466  0.84986  0.47887  1.0000
  C   C538      1.0  0.21464  0.63484  0.31339  1.0000
  C   C539      1.0  0.00355  0.74062  0.23992  1.0000
  H   H525      1.0  0.07560  0.87538  0.31355  1.0000
  H   H526      1.0  0.11008  0.85043  0.36410  1.0000
  H   H527      1.0  0.03510  0.78779  0.39518  1.0000
  H   H528      1.0  0.35450  0.51485  0.44253  1.0000
  C   C540      1.0  0.40792  0.53367  0.46378  1.0000
  H   H529      1.0  0.08690  0.83926  0.30392  1.0000
  H   H530      1.0  0.35928  0.73678  0.24971  1.0000
  H   H531      1.0  0.06361  0.90094  0.44536  1.0000
  C   C541      1.0  0.13492  0.82153  0.24279  1.0000
  C   C542      1.0  0.17912  0.65075  0.30780  1.0000
  H   H532      1.0  0.16179  0.58829  0.31310  1.0000
  H   H533      1.0  0.06801  0.89637  0.33790  1.0000
  C   C543      1.0  0.00236  0.80570  0.35827  1.0000
  C   C544      1.0  0.18190  0.78477  0.25822  1.0000
  H   H534      1.0  0.42248  0.54180  0.45867  1.0000
  H   H535      1.0  0.15587  0.62808  0.30324  1.0000
  H   H536      1.0  0.03559  0.95259  0.39777  1.0000
  C   C545      1.0  0.35481  0.57192  0.46147  1.0000
  C   C546      1.0  0.34043  0.67729  0.23634  1.0000
  H   H537      1.0  0.40221  0.52145  0.44114  1.0000
  C   C547      1.0  0.40032  0.53493  0.48017  1.0000
  H   H538      1.0  0.02267  0.78157  0.34559  1.0000
  C   C548      1.0  0.16831  0.76951  0.25362  1.0000
  H   H539      1.0  0.20631  0.66942  0.31156  1.0000
  C   C549      1.0  0.00904  0.80891  0.38576  1.0000
  S   S189      1.0  0.49644  0.58537  0.39341  1.0000
  H   H540      1.0  0.11476  0.84756  0.30217  1.0000
  N   N41       1.0  0.18606  0.61183  0.30904  1.0000
  H   H541      1.0  0.17855  0.58805  0.29390  1.0000
  H   H542      1.0  0.29674  0.97442  0.23920  1.0000
  C   C550      1.0  0.10173  0.90301  0.47089  1.0000
  H   H543      1.0  0.37857  0.58773  0.47310  1.0000
  H   H544      1.0  0.12596  0.81399  0.25356  1.0000
  N   N42       1.0  0.35339  0.61570  0.35489  1.0000
  C   C551      1.0  0.33843  0.62014  0.34366  1.0000
  C   C552      1.0  0.36689  0.59726  0.35453  1.0000
  C   C553      1.0  0.33693  0.60603  0.33155  1.0000
  C   C554      1.0  0.36553  0.58258  0.34281  1.0000
  C   C555      1.0  0.35048  0.58707  0.33123  1.0000
  C   C556      1.0  0.35483  0.63034  0.36769  1.0000
  H   H545      1.0  0.32734  0.63446  0.34411  1.0000
  H   H546      1.0  0.37863  0.59370  0.36350  1.0000
  H   H547      1.0  0.32473  0.60927  0.32287  1.0000
  H   H548      1.0  0.37562  0.56752  0.34299  1.0000
  H   H549      1.0  0.34878  0.57547  0.32240  1.0000
  H   H550      1.0  0.37190  0.63525  0.36764  1.0000
  H   H551      1.0  0.34412  0.64539  0.36612  1.0000
  H   H552      1.0  0.35008  0.62178  0.37989  1.0000
  C   C557      1.0  0.10173  0.83967  0.31053  1.0000
  C   C558      1.0  0.20708  0.61413  0.31232  1.0000
  S   S190      1.0  0.23740  0.59616  0.24375  1.0000
  C   C559      1.0  0.17218  0.62980  0.30667  1.0000
  C   C560      1.0  0.07897  0.90796  0.44792  1.0000
  H   H553      1.0  0.18934  0.57691  0.31263  1.0000
  H   H554      1.0  0.12992  0.98048  0.35978  1.0000
  C   C561      1.0  0.02560  0.79238  0.38487  1.0000
  H   H555      1.0  0.16818  0.66496  0.30548  1.0000
  H   H556      1.0  0.48141  0.66226  0.48262  1.0000
  H   H557      1.0  0.16018  0.75844  0.26300  1.0000
  C   C562      1.0  0.33147  0.66416  0.24991  1.0000
  H   H558      1.0  0.04646  0.99105  0.39685  1.0000
  C   C563      1.0  0.02933  0.98739  0.39807  1.0000
  H   H559      1.0  0.29165  0.70550  0.23774  1.0000
  N   N43       1.0  0.09698  0.85157  0.32515  1.0000
  C   C564      1.0  0.10686  0.84480  0.33903  1.0000
  C   C565      1.0  0.08332  0.86995  0.32459  1.0000
  C   C566      1.0  0.10281  0.85630  0.35293  1.0000
  C   C567      1.0  0.07898  0.88188  0.33826  1.0000
  C   C568      1.0  0.08882  0.87498  0.35250  1.0000
  H   H560      1.0  0.14764  0.97653  0.38550  1.0000
  H   H561      1.0  0.11743  0.83007  0.33963  1.0000
  N   N44       1.0  0.08136  0.90579  0.46550  1.0000
  C   C569      1.0  0.36437  0.57799  0.47505  1.0000
  H   H562      1.0  0.09240  0.89867  0.44114  1.0000
  C   C570      1.0  0.06327  0.90747  0.47641  1.0000
  H   H563      1.0  0.49859  0.65942  0.37273  1.0000
  C   C571      1.0  0.15309  0.98873  0.37586  1.0000
  C   C572      1.0  0.24143  0.98594  0.25107  1.0000
  C   C573      1.0  0.02324  0.96587  0.39864  1.0000
  H   H564      1.0  0.18399  0.78573  0.27101  1.0000
  H   H565      1.0  0.07903  0.92541  0.44308  1.0000
  N   N45       1.0  0.32977  0.74256  0.23850  1.0000
  C   C574      1.0  0.00107  0.96155  0.40021  1.0000
  H   H566      1.0  0.11605  0.90162  0.46223  1.0000
  H   H567      1.0  0.24888  0.98052  0.26219  1.0000
  H   H568      1.0  0.04357  0.76988  0.36946  1.0000
  C   C575      1.0  0.07706  0.85209  0.48032  1.0000
  C   C576      1.0  0.39627  0.52230  0.45390  1.0000
  N   N46       1.0  0.37740  0.51276  0.46013  1.0000
  C   C577      1.0  0.23827  0.97052  0.23998  1.0000
  H   H569      1.0  0.04710  0.90925  0.47218  1.0000
  N   N47       1.0  0.16502  0.76876  0.23753  1.0000
  C   C578      1.0  0.36470  0.50225  0.44927  1.0000
  H   H570      1.0  0.31324  0.54369  0.48167  1.0000
  H   H571      1.0  0.35166  0.76526  0.24507  1.0000
  H   H572      1.0  0.49728  0.63060  0.37721  1.0000
  H   H573      1.0  0.00549  0.81672  0.39702  1.0000
  H   H574      1.0  0.21573  0.52781  0.23883  1.0000
  C   C579      1.0  0.22633  0.51370  0.23616  1.0000
  H   H575      1.0  0.00094  0.77028  0.25190  1.0000
  H   H576      1.0  0.13971  0.74636  0.24330  1.0000
  C   C580      1.0  0.36973  0.51412  0.47614  1.0000
  H   H577      1.0  0.33729  0.74995  0.26192  1.0000
  S   S191      1.0  0.36243  0.69348  0.23857  1.0000
  H   H578      1.0  0.35430  0.50739  0.48094  1.0000
  C   C581      1.0  0.34525  0.74900  0.24932  1.0000
  C   C582      1.0  0.49545  0.64408  0.36744  1.0000
  Fe  Fe97      1.0  0.07782  0.89443  0.55239  1.0000
  S   S192      1.0  0.07477  0.85835  0.55082  1.0000
  S   S193      1.0  0.10895  0.91041  0.54283  1.0000
  Fe  Fe98      1.0  0.03042  0.90277  0.56387  1.0000
  S   S194      1.0  0.02391  0.86786  0.56313  1.0000
  Fe  Fe99      1.0  0.05484  0.85978  0.57526  1.0000
  S   S195      1.0  0.04952  0.83333  0.59653  1.0000
  Fe  Fe100     1.0  0.04417  0.86944  0.53902  1.0000
  S   S196      1.0  0.02908  0.85760  0.51766  1.0000
  S   S197      1.0  0.06014  0.89519  0.57755  1.0000
  S   S198      1.0  0.04857  0.90524  0.53902  1.0000
  H   H579      1.0  0.11054  0.98337  0.60640  1.0000
  Fe  Fe101     1.0  0.23916  0.62225  0.69640  1.0000
  S   S199      1.0  0.22090  0.65575  0.69113  1.0000
  Fe  Fe102     1.0  0.27394  0.58953  0.68178  1.0000
  S   S200      1.0  0.28081  0.57411  0.70678  1.0000
  S   S201      1.0  0.29666  0.57341  0.66211  1.0000
  C   C583      1.0  0.24554  0.66768  0.72323  1.0000
  Fe  Fe103     1.0  0.27973  0.60814  0.71440  1.0000
  S   S202      1.0  0.23723  0.58869  0.68736  1.0000
  S   S203      1.0  0.27560  0.62365  0.68913  1.0000
  Fe  Fe104     1.0  0.10207  0.78039  0.67820  1.0000
  S   S204      1.0  0.08517  0.79635  0.69972  1.0000
  S   S205      1.0  0.11046  0.79901  0.65323  1.0000
  Fe  Fe105     1.0  0.11091  0.73707  0.69882  1.0000
  S   S206      1.0  0.12443  0.70139  0.69884  1.0000
  Fe  Fe106     1.0  0.06779  0.76491  0.70594  1.0000
  C   C584      1.0  0.00871  0.75961  0.72544  1.0000
  Fe  Fe107     1.0  0.11208  0.78036  0.71385  1.0000
  N   N48       1.0  0.09876  0.95334  0.60085  1.0000
  S   S207      1.0  0.08349  0.74979  0.68345  1.0000
  S   S208      1.0  0.13060  0.76657  0.69199  1.0000
  C   C585      1.0  0.37864  0.58530  0.62372  1.0000
  C   C586      1.0  0.30590  0.51523  0.60972  1.0000
  Fe  Fe108     1.0  0.34261  0.57011  0.56946  1.0000
  S   S209      1.0  0.36372  0.54276  0.58035  1.0000
  S   S210      1.0  0.31624  0.58895  0.58467  1.0000
  Fe  Fe109     1.0  0.36445  0.56564  0.53443  1.0000
  S   S211      1.0  0.38732  0.53808  0.54309  1.0000
  S   S212      1.0  0.36955  0.57850  0.50760  1.0000
  Fe  Fe110     1.0  0.35797  0.52571  0.55850  1.0000
  C   C587      1.0  0.14384  0.97189  0.52181  1.0000
  Fe  Fe111     1.0  0.39121  0.55787  0.56396  1.0000
  S   S213      1.0  0.42371  0.55910  0.57441  1.0000
  S   S214      1.0  0.33461  0.55190  0.54852  1.0000
  S   S215      1.0  0.37047  0.58660  0.55440  1.0000
  S   S216      1.0  0.47785  0.64389  0.55777  1.0000
  C   C588      1.0  0.43891  0.58249  0.56919  1.0000
  C   C589      1.0  0.45900  0.58358  0.57564  1.0000
  C   C590      1.0  0.47124  0.60222  0.57196  1.0000
  C   C591      1.0  0.46323  0.62004  0.56207  1.0000
  C   C592      1.0  0.44315  0.61896  0.55564  1.0000
  C   C593      1.0  0.43113  0.60015  0.55905  1.0000
  H   H580      1.0  0.46497  0.57012  0.58368  1.0000
  C   C594      1.0  0.47198  0.65064  0.51471  1.0000
  H   H581      1.0  0.43690  0.63267  0.54795  1.0000
  H   H582      1.0  0.41583  0.59939  0.55384  1.0000
  H   H583      1.0  0.26154  0.70520  0.72917  1.0000
  H   H584      1.0  0.02245  0.80643  0.73125  1.0000
  C   C595      1.0  0.11652  0.93993  0.60797  1.0000
  H   H585      1.0  0.40874  0.54424  0.48791  1.0000
  H   H586      1.0  0.24133  0.51821  0.70553  1.0000
  H   H587      1.0  0.33070  0.55378  0.50566  1.0000
  H   H588      1.0  0.10747  0.71191  0.65663  1.0000
  C   C596      1.0  0.19105  0.69097  0.69274  1.0000
  H   H589      1.0  0.38347  0.57513  0.63436  1.0000
  H   H590      1.0  0.13636  0.95646  0.52549  1.0000
  C   C597      1.0  0.17005  0.70153  0.69470  1.0000
  N   N49       1.0  0.48895  0.73423  0.68610  1.0000
  C   C598      1.0  0.08086  0.98850  0.59468  1.0000
  H   H591      1.0  0.02341  0.80433  0.57987  1.0000
  H   H592      1.0  0.32614  0.62977  0.60270  1.0000
  H   H593      1.0  0.05319  0.94810  0.58208  1.0000
  H   H594      1.0  0.46342  0.71992  0.70217  1.0000
  H   H595      1.0  0.16812  0.71914  0.69293  1.0000
  H   H596      1.0  0.27085  0.55780  0.59951  1.0000
  C   C599      1.0  0.24174  0.85305  0.71515  1.0000
  C   C600      1.0  0.14856  0.82958  0.71728  1.0000
  C   C601      1.0  0.23132  0.51911  0.73116  1.0000
  H   H597      1.0  0.14307  0.82432  0.70630  1.0000
  H   H598      1.0  0.40410  0.57185  0.60706  1.0000
  C   C602      1.0  0.49454  0.50350  0.57198  1.0000
  H   H599      1.0  0.32467  0.62466  0.62443  1.0000
  H   H600      1.0  0.02378  0.80362  0.54974  1.0000
  H   H601      1.0  0.29989  0.65682  0.71280  1.0000
  C   C603      1.0  0.30155  0.57824  0.64058  1.0000
  C   C604      1.0  0.28865  0.59307  0.63127  1.0000
  C   C605      1.0  0.29320  0.59600  0.61414  1.0000
  C   C606      1.0  0.31078  0.58431  0.60618  1.0000
  C   C607      1.0  0.32366  0.56948  0.61549  1.0000
  C   C608      1.0  0.31900  0.56642  0.63258  1.0000
  H   H602      1.0  0.27511  0.60219  0.63727  1.0000
  H   H603      1.0  0.28312  0.60752  0.60704  1.0000
  H   H604      1.0  0.33723  0.56038  0.60957  1.0000
  H   H605      1.0  0.32903  0.55485  0.63968  1.0000
  H   H606      1.0  0.11154  0.93448  0.62094  1.0000
  H   H607      1.0  0.24432  0.84730  0.70273  1.0000
  C   C609      1.0  0.19402  0.66803  0.69484  1.0000
  H   H608      1.0  0.34206  0.64540  0.61428  1.0000
  C   C610      1.0  0.15157  0.68924  0.69844  1.0000
  C   C611      1.0  0.15456  0.66632  0.70070  1.0000
  C   C612      1.0  0.17560  0.65578  0.69904  1.0000
  H   H609      1.0  0.14044  0.65658  0.70359  1.0000
  H   H610      1.0  0.17749  0.63815  0.70066  1.0000
  C   C613      1.0  0.06649  0.82482  0.61251  1.0000
  C   C614      1.0  0.08801  0.83102  0.61200  1.0000
  C   C615      1.0  0.10112  0.82310  0.62461  1.0000
  C   C616      1.0  0.09285  0.80915  0.63801  1.0000
  C   C617      1.0  0.07123  0.80320  0.63865  1.0000
  C   C618      1.0  0.05821  0.81088  0.62593  1.0000
  H   H611      1.0  0.09469  0.84160  0.60175  1.0000
  H   H612      1.0  0.11783  0.82776  0.62394  1.0000
  H   H613      1.0  0.06460  0.79247  0.64884  1.0000
  H   H614      1.0  0.04161  0.80593  0.62648  1.0000
  C   C619      1.0  0.11844  0.92889  0.55507  1.0000
  C   C620      1.0  0.13790  0.92360  0.56225  1.0000
  C   C621      1.0  0.14753  0.93920  0.57009  1.0000
  C   C622      1.0  0.13810  0.96040  0.57044  1.0000
  C   C623      1.0  0.11852  0.96575  0.56334  1.0000
  C   C624      1.0  0.10859  0.94994  0.55577  1.0000
  H   H615      1.0  0.14581  0.90750  0.56145  1.0000
  H   H616      1.0  0.16272  0.93497  0.57548  1.0000
  C   C625      1.0  0.23740  0.50859  0.71700  1.0000
  H   H617      1.0  0.09378  0.95426  0.54993  1.0000
  C   C626      1.0  0.49558  0.52622  0.56926  1.0000
  S   S217      1.0  0.18697  0.87642  0.72843  1.0000
  H   H618      1.0  0.13157  0.94919  0.60729  1.0000
  H   H619      1.0  0.07542  0.85212  0.50662  1.0000
  C   C627      1.0  0.06480  0.97866  0.58761  1.0000
  S   S218      1.0  0.09365  0.74999  0.72167  1.0000
  H   H620      1.0  0.35182  0.60170  0.63706  1.0000
  H   H621      1.0  0.48968  0.70033  0.68256  1.0000
  N   N50       1.0  0.23111  0.83662  0.72680  1.0000
  H   H622      1.0  0.30964  0.51626  0.56843  1.0000
  C   C628      1.0  0.09783  0.97553  0.60129  1.0000
  H   H623      1.0  0.12094  0.92536  0.60110  1.0000
  H   H624      1.0  0.25795  0.85668  0.71875  1.0000
  H   H625      1.0  0.15419  0.67288  0.66533  1.0000
  C   C629      1.0  0.38129  0.52483  0.48647  1.0000
  C   C630      1.0  0.33594  0.62904  0.61338  1.0000
  C   C631      1.0  0.28220  0.54382  0.59792  1.0000
  H   H626      1.0  0.49041  0.78646  0.72564  1.0000
  C   C632      1.0  0.39017  0.58342  0.60845  1.0000
  C   C633      1.0  0.14280  0.81821  0.73242  1.0000
  C   C634      1.0  0.48951  0.76888  0.72708  1.0000
  H   H627      1.0  0.37497  0.52627  0.49910  1.0000
  C   C635      1.0  0.46965  0.75964  0.73342  1.0000
  C   C636      1.0  0.38369  0.59653  0.59489  1.0000
  H   H628      1.0  0.39271  0.59529  0.58303  1.0000
  S   S219      1.0  0.24384  0.60841  0.72213  1.0000
  H   H629      1.0  0.46238  0.74899  0.70063  1.0000
  S   S220      1.0  0.15171  0.97979  0.57940  1.0000
  C   C637      1.0  0.15905  0.97934  0.53121  1.0000
  H   H630      1.0  0.47863  0.63474  0.52025  1.0000
  C   C638      1.0  0.06525  0.83921  0.72537  1.0000
  H   H631      1.0  0.08346  0.92589  0.59411  1.0000
  N   N51       1.0  0.48993  0.66367  0.50698  1.0000
  H   H632      1.0  0.46270  0.65932  0.52462  1.0000
  N   N52       1.0  0.28893  0.53788  0.58261  1.0000
  C   C639      1.0  0.08596  0.90309  0.49884  1.0000
  H   H633      1.0  0.28368  0.54164  0.55718  1.0000
  H   H634      1.0  0.46041  0.64730  0.50587  1.0000
  H   H635      1.0  0.01405  0.85928  0.48571  1.0000
  N   N53       1.0  0.35431  0.61289  0.61168  1.0000
  C   C640      1.0  0.30406  0.52092  0.58056  1.0000
  H   H636      1.0  0.13669  0.67460  0.64889  1.0000
  H   H637      1.0  0.36040  0.62098  0.58597  1.0000
  S   S221      1.0  0.00259  0.92640  0.57125  1.0000
  H   H638      1.0  0.23131  0.86844  0.71463  1.0000
  H   H639      1.0  0.16341  0.96944  0.54209  1.0000
  C   C641      1.0  0.03168  0.85739  0.48425  1.0000
  C   C642      1.0  0.01129  0.81338  0.55638  1.0000
  S   S222      1.0  0.03063  0.77059  0.71191  1.0000
  H   H640      1.0  0.19038  0.80166  0.72954  1.0000
  C   C643      1.0  0.06620  0.85341  0.49606  1.0000
  H   H641      1.0  0.23793  0.68302  0.71759  1.0000
  H   H642      1.0  0.28862  0.56629  0.56601  1.0000
  H   H643      1.0  0.05082  0.90661  0.50184  1.0000
  H   H644      1.0  0.48662  0.60306  0.57709  1.0000
  Fe  Fe112     1.0  0.24468  0.57497  0.71285  1.0000
  C   C644      1.0  0.49849  0.71519  0.68081  1.0000
  H   H645      1.0  0.26264  0.55390  0.57050  1.0000
  C   C645      1.0  0.21468  0.82536  0.72212  1.0000
  C   C646      1.0  0.08277  0.94349  0.59433  1.0000
  C   C647      1.0  0.31513  0.64040  0.73324  1.0000
  C   C648      1.0  0.31003  0.65853  0.72251  1.0000
  C   C649      1.0  0.33744  0.55890  0.49340  1.0000
  C   C650      1.0  0.49249  0.66829  0.49036  1.0000
  H   H646      1.0  0.49280  0.76801  0.68833  1.0000
  H   H647      1.0  0.20513  0.70067  0.68949  1.0000
  C   C651      1.0  0.36555  0.61116  0.59668  1.0000
  C   C652      1.0  0.46631  0.73463  0.69348  1.0000
  H   H648      1.0  0.48049  0.53633  0.56964  1.0000
  C   C653      1.0  0.06563  0.95598  0.58751  1.0000
  C   C654      1.0  0.10433  0.90151  0.48762  1.0000
  H   H649      1.0  0.23207  0.65664  0.72730  1.0000
  C   C655      1.0  0.35589  0.57140  0.49107  1.0000
  H   H650      1.0  0.08776  0.90156  0.51187  1.0000
  H   H651      1.0  0.45492  0.73525  0.68383  1.0000
  H   H652      1.0  0.11103  0.98202  0.56362  1.0000
  H   H653      1.0  0.25658  0.66006  0.71364  1.0000
  C   C656      1.0  0.04344  0.85610  0.49809  1.0000
  C   C657      1.0  0.29035  0.53244  0.61171  1.0000
  H   H654      1.0  0.28520  0.53746  0.62382  1.0000
  H   H655      1.0  0.12627  0.97917  0.50043  1.0000
  C   C658      1.0  0.13827  0.98454  0.50773  1.0000
  C   C659      1.0  0.31746  0.67908  0.72472  1.0000
  N   N54       1.0  0.14167  0.70503  0.65759  1.0000
  C   C660      1.0  0.12351  0.71852  0.65547  1.0000
  C   C661      1.0  0.16186  0.71343  0.65639  1.0000
  C   C662      1.0  0.12529  0.74106  0.65202  1.0000
  C   C663      1.0  0.16418  0.73595  0.65327  1.0000
  C   C664      1.0  0.14575  0.74980  0.65102  1.0000
  C   C665      1.0  0.13944  0.68137  0.66044  1.0000
  H   H656      1.0  0.16619  0.85631  0.70453  1.0000
  H   H657      1.0  0.17627  0.70276  0.65816  1.0000
  H   H658      1.0  0.11089  0.75179  0.65032  1.0000
  H   H659      1.0  0.18013  0.74261  0.65267  1.0000
  H   H660      1.0  0.14720  0.76733  0.64865  1.0000
  H   H661      1.0  0.12552  0.67770  0.66974  1.0000
  C   C666      1.0  0.16166  0.84771  0.71631  1.0000
  C   C667      1.0  0.28054  0.55050  0.56837  1.0000
  C   C668      1.0  0.36077  0.60039  0.62516  1.0000
  C   C669      1.0  0.16913  0.85463  0.73043  1.0000
  C   C670      1.0  0.06528  0.90612  0.49322  1.0000
  H   H662      1.0  0.05185  0.98872  0.58219  1.0000
  H   H663      1.0  0.03382  0.84081  0.71580  1.0000
  C   C671      1.0  0.01103  0.81370  0.57327  1.0000
  C   C672      1.0  0.03831  0.81230  0.73271  1.0000
  H   H664      1.0  0.20945  0.82862  0.70993  1.0000
  S   S223      1.0  0.30350  0.61502  0.73247  1.0000
  H   H665      1.0  0.31283  0.69318  0.71671  1.0000
  N   N55       1.0  0.16825  0.99892  0.52680  1.0000
  H   H666      1.0  0.07058  0.85408  0.71841  1.0000
  C   C673      1.0  0.48676  0.72372  0.73057  1.0000
  H   H667      1.0  0.00107  0.97670  0.56944  1.0000
  C   C674      1.0  0.31283  0.50940  0.59405  1.0000
  C   C675      1.0  0.04465  0.83182  0.72394  1.0000
  H   H668      1.0  0.28718  0.52564  0.72310  1.0000
  S   S224      1.0  0.23009  0.54807  0.73120  1.0000
  H   H669      1.0  0.48580  0.70615  0.73174  1.0000
  H   H670      1.0  0.31276  0.50663  0.62028  1.0000
  H   H671      1.0  0.12043  0.89886  0.49192  1.0000
  C   C676      1.0  0.28532  0.51218  0.73255  1.0000
  C   C677      1.0  0.20376  0.81016  0.73319  1.0000
  Fe  Fe113     1.0  0.09629  0.91601  0.91074  1.0000
  S   S225      1.0  0.13038  0.91430  0.91855  1.0000
  S   S226      1.0  0.07583  0.88666  0.91263  1.0000
  Fe  Fe114     1.0  0.09622  0.96459  0.90143  1.0000
  S   S227      1.0  0.13027  0.96695  0.90807  1.0000
  H   H672      1.0  0.25855  0.63794  0.74627  1.0000
  Fe  Fe115     1.0  0.13776  0.93618  0.89528  1.0000
  S   S228      1.0  0.16889  0.92968  0.87866  1.0000
  Fe  Fe116     1.0  0.11986  0.94505  0.93066  1.0000
  S   S229      1.0  0.12411  0.95811  0.95506  1.0000
  S   S230      1.0  0.10430  0.93568  0.88688  1.0000
  S   S231      1.0  0.08525  0.94472  0.92454  1.0000
  Fe  Fe117     1.0  0.42727  0.58425  0.90253  1.0000
  S   S232      1.0  0.39681  0.60585  0.90456  1.0000
  S   S233      1.0  0.42975  0.54811  0.89931  1.0000
  Fe  Fe118     1.0  0.45639  0.62227  0.90249  1.0000
  S   S234      1.0  0.42801  0.64719  0.90409  1.0000
  C   C678      1.0  0.04589  0.77927  0.75081  1.0000
  Fe  Fe119     1.0  0.41321  0.62214  0.92310  1.0000
  S   S235      1.0  0.39533  0.62804  0.94790  1.0000
  Fe  Fe120     1.0  0.41428  0.62872  0.88529  1.0000
  S   S236      1.0  0.39738  0.63632  0.86171  1.0000
  S   S237      1.0  0.44229  0.59860  0.92245  1.0000
  S   S238      1.0  0.44406  0.60593  0.88243  1.0000
  C   C679      1.0  0.38657  0.50354  0.89287  1.0000
  H   H673      1.0  0.08658  0.98413  0.94147  1.0000
  H   H674      1.0  0.27999  0.80107  0.78384  1.0000
  C   C680      1.0  0.21578  0.98537  0.73838  1.0000
  Fe  Fe121     1.0  0.36956  0.76722  0.76247  1.0000
  C   C681      1.0  0.12664  0.87868  0.88387  1.0000
  S   S239      1.0  0.35657  0.80301  0.75972  1.0000
  Fe  Fe122     1.0  0.38293  0.72840  0.78645  1.0000
  S   S240      1.0  0.39160  0.70628  0.76636  1.0000
  S   S241      1.0  0.39062  0.72329  0.81312  1.0000
  Fe  Fe123     1.0  0.40888  0.73493  0.75281  1.0000
  H   H675      1.0  0.16702  0.95504  0.79248  1.0000
  Fe  Fe124     1.0  0.36114  0.72105  0.75567  1.0000
  H   H676      1.0  0.24390  0.95245  0.78879  1.0000
  S   S242      1.0  0.40121  0.75648  0.77330  1.0000
  S   S243      1.0  0.35083  0.74083  0.77708  1.0000
  Fe  Fe125     1.0  0.19886  0.90230  0.78439  1.0000
  S   S244      1.0  0.19503  0.92044  0.75968  1.0000
  S   S245      1.0  0.17136  0.90994  0.80402  1.0000
  Fe  Fe126     1.0  0.24005  0.87555  0.77142  1.0000
  S   S246      1.0  0.26087  0.84453  0.77891  1.0000
  Fe  Fe127     1.0  0.23116  0.92379  0.75817  1.0000
  Fe  Fe128     1.0  0.20296  0.88787  0.74961  1.0000
  H   H677      1.0  0.44159  0.69372  0.76952  1.0000
  S   S247      1.0  0.23481  0.90718  0.78357  1.0000
  S   S248      1.0  0.20402  0.86950  0.77425  1.0000
  H   H678      1.0  0.02364  0.92818  0.87878  1.0000
  H   H679      1.0  0.00106  0.86934  0.90548  1.0000
  S   S249      1.0  0.33507  0.70852  0.74173  1.0000
  C   C682      1.0  0.32894  0.81333  0.76304  1.0000
  C   C683      1.0  0.31287  0.80095  0.77206  1.0000
  C   C684      1.0  0.29203  0.81068  0.77645  1.0000
  C   C685      1.0  0.28675  0.83277  0.77160  1.0000
  C   C686      1.0  0.30252  0.84493  0.76200  1.0000
  C   C687      1.0  0.32351  0.83530  0.75788  1.0000
  H   H680      1.0  0.29882  0.86195  0.75822  1.0000
  C   C688      1.0  0.20940  0.80693  0.74923  1.0000
  C   C689      1.0  0.22602  0.50626  0.74592  1.0000
  C   C690      1.0  0.17417  0.98591  0.77898  1.0000
  C   C691      1.0  0.33797  0.55639  0.87169  1.0000
  H   H681      1.0  0.36844  0.59967  0.87453  1.0000
  C   C692      1.0  0.38595  0.67793  0.96843  1.0000
  C   C693      1.0  0.27877  0.51638  0.74865  1.0000
  C   C694      1.0  0.12861  0.87549  0.85532  1.0000
  H   H682      1.0  0.16098  0.87293  0.84271  1.0000
  C   C695      1.0  0.33609  0.66339  0.74787  1.0000
  H   H683      1.0  0.09548  0.83236  0.73641  1.0000
  C   C696      1.0  0.01371  0.88075  0.90215  1.0000
  H   H684      1.0  0.16871  0.84857  0.75655  1.0000
  H   H685      1.0  0.34977  0.75209  0.81887  1.0000
  C   C697      1.0  0.43625  0.65857  0.80370  1.0000
  N   N56       1.0  0.11653  0.87758  0.86998  1.0000
  H   H686      1.0  0.49017  0.59512  0.88272  1.0000
  H   H687      1.0  0.22109  0.51423  0.75691  1.0000
  H   H688      1.0  0.44573  0.70585  0.81900  1.0000
  S   S250      1.0  0.44307  0.72420  0.74147  1.0000
  H   H689      1.0  0.40633  0.58808  0.87146  1.0000
  C   C698      1.0  0.15142  0.87398  0.85441  1.0000
  C   C699      1.0  0.39574  0.66073  0.84840  1.0000
  C   C700      1.0  0.40262  0.68056  0.85245  1.0000
  C   C701      1.0  0.40067  0.69955  0.84158  1.0000
  C   C702      1.0  0.39213  0.69891  0.82645  1.0000
  C   C703      1.0  0.38546  0.67903  0.82231  1.0000
  C   C704      1.0  0.38714  0.66010  0.83328  1.0000
  H   H690      1.0  0.40918  0.68133  0.86405  1.0000
  H   H691      1.0  0.40584  0.71484  0.84493  1.0000
  H   H692      1.0  0.37886  0.67826  0.81073  1.0000
  H   H693      1.0  0.38170  0.64487  0.83004  1.0000
  C   C705      1.0  0.40996  0.62803  0.96536  1.0000
  C   C706      1.0  0.15001  0.82531  0.74656  1.0000
  C   C707      1.0  0.43185  0.63328  0.96387  1.0000
  C   C708      1.0  0.14940  0.87758  0.88335  1.0000
  H   H694      1.0  0.44063  0.63561  0.95188  1.0000
  H   H695      1.0  0.28101  0.64329  0.76852  1.0000
  C   C709      1.0  0.36578  0.53419  0.90396  1.0000
  C   C710      1.0  0.38513  0.54486  0.90456  1.0000
  C   C711      1.0  0.40523  0.53496  0.89920  1.0000
  C   C712      1.0  0.40591  0.51424  0.89343  1.0000
  N   N57       1.0  0.38069  0.56920  0.86605  1.0000
  H   H696      1.0  0.35024  0.54198  0.90801  1.0000
  H   H697      1.0  0.38445  0.56067  0.90927  1.0000
  H   H698      1.0  0.15736  0.87940  0.89426  1.0000
  C   C713      1.0  0.36643  0.51356  0.89804  1.0000
  C   C714      1.0  0.16964  0.92611  0.85750  1.0000
  C   C715      1.0  0.15070  0.92790  0.84934  1.0000
  C   C716      1.0  0.15169  0.92333  0.83288  1.0000
  C   C717      1.0  0.17159  0.91696  0.82435  1.0000
  C   C718      1.0  0.19064  0.91561  0.83237  1.0000
  C   C719      1.0  0.18963  0.92017  0.84887  1.0000
  H   H699      1.0  0.13524  0.93251  0.85578  1.0000
  H   H700      1.0  0.13687  0.92449  0.82678  1.0000
  H   H701      1.0  0.20604  0.91063  0.82599  1.0000
  H   H702      1.0  0.20438  0.91872  0.85508  1.0000
  C   C720      1.0  0.12627  0.94354  0.97454  1.0000
  C   C721      1.0  0.27772  0.69529  0.75071  1.0000
  C   C722      1.0  0.07922  0.82703  0.73547  1.0000
  H   H703      1.0  0.44600  0.72935  0.77560  1.0000
  C   C723      1.0  0.44108  0.68800  0.78238  1.0000
  H   H704      1.0  0.13195  0.91161  0.96596  1.0000
  H   H705      1.0  0.17950  0.87508  0.86788  1.0000
  H   H706      1.0  0.43267  0.64176  0.80768  1.0000
  C   C724      1.0  0.03401  0.87694  0.90860  1.0000
  C   C725      1.0  0.05035  0.89193  0.90470  1.0000
  C   C726      1.0  0.04641  0.91061  0.89415  1.0000
  C   C727      1.0  0.02638  0.91406  0.88731  1.0000
  H   H707      1.0  0.20463  0.97234  0.74117  1.0000
  H   H708      1.0  0.03694  0.86251  0.91680  1.0000
  H   H709      1.0  0.05886  0.92229  0.89107  1.0000
  H   H710      1.0  0.20519  0.94616  0.79837  1.0000
  H   H711      1.0  0.42139  0.50657  0.88914  1.0000
  H   H712      1.0  0.46518  0.72834  0.79070  1.0000
  H   H713      1.0  0.05269  0.77616  0.76283  1.0000
  C   C728      1.0  0.27594  0.65720  0.76044  1.0000
  S   S251      1.0  0.49143  0.63004  0.90373  1.0000
  C   C729      1.0  0.40318  0.57596  0.86299  1.0000
  S   S252      1.0  0.12696  0.79491  0.73435  1.0000
  C   C730      1.0  0.16184  0.87512  0.86853  1.0000
  H   H714      1.0  0.26902  0.99575  0.73932  1.0000
  N   N58       1.0  0.34487  0.81257  0.80143  1.0000
  C   C731      1.0  0.36468  0.80126  0.80029  1.0000
  C   C732      1.0  0.32677  0.80269  0.80892  1.0000
  C   C733      1.0  0.36673  0.77945  0.80669  1.0000
  C   C734      1.0  0.32819  0.78077  0.81521  1.0000
  C   C735      1.0  0.34834  0.76913  0.81411  1.0000
  C   C736      1.0  0.34334  0.83569  0.79527  1.0000
  H   H715      1.0  0.37895  0.80898  0.79410  1.0000
  H   H716      1.0  0.31103  0.81161  0.80973  1.0000
  H   H717      1.0  0.38244  0.77050  0.80577  1.0000
  H   H718      1.0  0.31374  0.77283  0.82083  1.0000
  H   H719      1.0  0.02785  0.77854  0.75299  1.0000
  H   H720      1.0  0.35380  0.83852  0.78357  1.0000
  H   H721      1.0  0.32640  0.84105  0.79260  1.0000
  H   H722      1.0  0.34858  0.84592  0.80437  1.0000
  H   H723      1.0  0.23043  0.81650  0.76642  1.0000
  H   H724      1.0  0.14559  0.81665  0.75834  1.0000
  C   C737      1.0  0.13039  0.92089  0.97653  1.0000
  H   H725      1.0  0.43891  0.69096  0.96084  1.0000
  C   C738      1.0  0.00409  0.97108  0.89503  1.0000
  C   C739      1.0  0.00026  0.79678  0.90461  1.0000
  H   H726      1.0  0.49324  0.57640  0.92935  1.0000
  H   H727      1.0  0.41507  0.56190  0.86514  1.0000
  H   H728      1.0  0.43397  0.65526  0.77815  1.0000
  H   H729      1.0  0.05204  0.76602  0.74306  1.0000
  H   H730      1.0  0.32150  0.55094  0.87451  1.0000
  S   S253      1.0  0.24815  0.95571  0.74997  1.0000
  C   C740      1.0  0.44820  0.72498  0.78874  1.0000
  C   C741      1.0  0.16310  0.84343  0.74560  1.0000
  H   H731      1.0  0.37260  0.67289  0.96225  1.0000
  C   C742      1.0  0.43689  0.66614  0.78719  1.0000
  H   H732      1.0  0.12071  0.87536  0.84417  1.0000
  C   C743      1.0  0.35436  0.54231  0.86510  1.0000
  C   C744      1.0  0.49086  0.53660  0.90402  1.0000
  H   H733      1.0  0.15746  0.98980  0.77624  1.0000
  H   H734      1.0  0.33043  0.58826  0.88019  1.0000
  N   N59       1.0  0.05218  0.80039  0.74254  1.0000
  C   C745      1.0  0.20122  0.96140  0.79129  1.0000
  C   C746      1.0  0.00990  0.89928  0.89142  1.0000
  C   C747      1.0  0.01003  0.99279  0.89312  1.0000
  H   H735      1.0  0.00679  0.79403  0.87872  1.0000
  H   H736      1.0  0.08379  0.79766  0.75123  1.0000
  H   H737      1.0  0.11711  0.88077  0.89542  1.0000
  H   H738      1.0  0.31672  0.78406  0.77613  1.0000
  H   H739      1.0  0.33579  0.84509  0.75092  1.0000
  H   H740      1.0  0.40616  0.58360  0.85030  1.0000
  H   H741      1.0  0.35064  0.52590  0.86288  1.0000
  S   S254      1.0  0.23917  0.89244  0.74609  1.0000
  C   C748      1.0  0.26324  0.65426  0.74776  1.0000
  C   C749      1.0  0.44370  0.69467  0.80995  1.0000
  S   S255      1.0  0.07258  0.99228  0.89425  1.0000
  H   H742      1.0  0.33261  0.62883  0.75401  1.0000
  H   H743      1.0  0.08630  0.87550  0.85943  1.0000
  C   C750      1.0  0.28323  0.67786  0.76187  1.0000
  C   C751      1.0  0.36459  0.58345  0.87195  1.0000
  C   C752      1.0  0.34303  0.57718  0.87504  1.0000
  H   H744      1.0  0.20056  0.79572  0.75806  1.0000
  C   C753      1.0  0.09263  0.87951  0.87086  1.0000
  H   H745      1.0  0.27547  0.53312  0.75166  1.0000
  H   H746      1.0  0.08548  0.86824  0.88105  1.0000
  H   H747      1.0  0.45547  0.77010  0.73670  1.0000
  S   S256      1.0  0.34190  0.50138  0.89590  1.0000
  C   C754      1.0  0.07248  0.80742  0.74388  1.0000
  C   C755      1.0  0.21195  0.99483  0.77684  1.0000
  C   C756      1.0  0.49868  0.56256  0.92250  1.0000
  H   H748      1.0  0.38856  0.53759  0.85788  1.0000
  H   H749      1.0  0.01647  0.80172  0.90613  1.0000
  C   C757      1.0  0.42323  0.68799  0.96761  1.0000
  H   H750      1.0  0.01650  0.95788  0.89611  1.0000
  H   H751      1.0  0.34571  0.66523  0.75786  1.0000
  H   H752      1.0  0.08675  0.89644  0.87319  1.0000
  C   C758      1.0  0.23778  0.98136  0.74107  1.0000
  H   H753      1.0  0.28431  0.71113  0.75124  1.0000
  C   C759      1.0  0.37579  0.54897  0.86241  1.0000
  N   N60       1.0  0.44412  0.70201  0.79376  1.0000
  C   C760      1.0  0.32856  0.64282  0.74570  1.0000
  H   H754      1.0  0.29402  0.68017  0.77111  1.0000
  C   C761      1.0  0.26500  0.69177  0.73818  1.0000
  H   H755      1.0  0.24191  0.97489  0.80163  1.0000
  H   H756      1.0  0.02715  0.99613  0.89268  1.0000
  H   H757      1.0  0.24958  0.84260  0.74630  1.0000
  H   H758      1.0  0.46740  0.56071  0.91316  1.0000
  H   H759      1.0  0.43655  0.73571  0.79591  1.0000
  C   C762      1.0  0.22605  0.81860  0.75393  1.0000
  H   H760      1.0  0.38184  0.62108  0.98230  1.0000
  C   C763      1.0  0.44198  0.63702  0.97784  1.0000
  H   H761      1.0  0.43911  0.66719  0.82806  1.0000
  H   H762      1.0  0.45857  0.64219  0.97646  1.0000
  C   C764      1.0  0.43992  0.67283  0.81515  1.0000
  C   C765      1.0  0.17954  0.96637  0.78805  1.0000
  S   S257      1.0  0.37897  0.74806  0.74068  1.0000
  H   H763      1.0  0.40772  0.68144  0.94641  1.0000
  H   H764      1.0  0.25147  0.97865  0.78009  1.0000
  C   C766      1.0  0.40573  0.68274  0.95950  1.0000
  N   N61       1.0  0.21714  0.97544  0.78549  1.0000
  C   C767      1.0  0.46809  0.73695  0.73507  1.0000
  C   C768      1.0  0.39877  0.62515  0.98105  1.0000
  H   H765      1.0  0.47959  0.53014  0.89662  1.0000
  C   C769      1.0  0.23681  0.83346  0.74248  1.0000
  C   C770      1.0  0.23969  0.97017  0.78929  1.0000
  C   C771      1.0  0.48397  0.55388  0.91332  1.0000
  H   H766      1.0  0.26975  0.50232  0.77298  1.0000
  C   C772      1.0  0.33014  0.68170  0.73759  1.0000
  C   C773      1.0  0.01127  0.74058  0.73595  1.0000
  N   N62       1.0  0.25779  0.67147  0.73693  1.0000
  H   H767      1.0  0.02700  0.73178  0.73590  1.0000
  C   C774      1.0  0.25196  0.99860  0.73733  1.0000
  H   H768      1.0  0.53000  0.26945  0.15534  1.0000
  Fe  Fe129     1.0  0.85639  0.02936  0.06338  1.0000
  S   S258      1.0  0.83138  0.05740  0.06061  1.0000
  C   C775      1.0  0.93517  0.09097  0.10495  1.0000
  Fe  Fe130     1.0  0.89396  0.05889  0.06250  1.0000
  S   S259      1.0  0.87234  0.08923  0.05915  1.0000
  S   S260      1.0  0.92972  0.05625  0.06648  1.0000
  Fe  Fe131     1.0  0.84926  0.07277  0.07881  1.0000
  S   S261      1.0  0.83840  0.09380  0.09980  1.0000
  Fe  Fe132     1.0  0.85648  0.07126  0.04126  1.0000
  S   S262      1.0  0.84716  0.08706  0.01665  1.0000
  S   S263      1.0  0.87207  0.04335  0.08309  1.0000
  S   S264      1.0  0.88018  0.04236  0.04302  1.0000
  Fe  Fe133     1.0  0.53507  0.36074  0.04054  1.0000
  S   S265      1.0  0.53284  0.39494  0.04809  1.0000
  S   S266      1.0  0.52209  0.35706  0.01602  1.0000
  Fe  Fe134     1.0  0.54916  0.34158  0.07432  1.0000
  S   S267      1.0  0.54768  0.37446  0.08397  1.0000
  S   S268      1.0  0.55854  0.31031  0.08977  1.0000
  Fe  Fe135     1.0  0.51653  0.38046  0.07179  1.0000
  Fe  Fe136     1.0  0.56405  0.38565  0.05939  1.0000
  S   S269      1.0  0.59322  0.40657  0.05615  1.0000
  S   S270      1.0  0.51668  0.34671  0.06383  1.0000
  S   S271      1.0  0.56772  0.35223  0.05017  1.0000
  C   C776      1.0  0.93323  0.11308  0.09929  1.0000
  H   H769      1.0  0.51983  0.33676  0.16303  1.0000
  C   C777      1.0  0.55941  0.35036  0.99507  1.0000
  H   H770      1.0  0.97455  0.20887  0.22183  1.0000
  C   C778      1.0  0.81771  0.14606  0.22741  1.0000
  Fe  Fe137     1.0  0.59084  0.28247  0.18234  1.0000
  S   S272      1.0  0.57680  0.29551  0.20588  1.0000
  S   S273      1.0  0.59004  0.30895  0.16098  1.0000
  Fe  Fe138     1.0  0.60112  0.23732  0.19968  1.0000
  S   S274      1.0  0.61515  0.20193  0.19862  1.0000
  Fe  Fe139     1.0  0.60509  0.27777  0.21717  1.0000
  S   S275      1.0  0.57198  0.25202  0.18666  1.0000
  S   S276      1.0  0.62092  0.26695  0.19338  1.0000
  Fe  Fe140     1.0  0.75991  0.09385  0.18267  1.0000
  S   S277      1.0  0.77853  0.07951  0.20357  1.0000
  S   S278      1.0  0.76320  0.07927  0.15812  1.0000
  Fe  Fe141     1.0  0.73300  0.12712  0.20347  1.0000
  S   S279      1.0  0.74981  0.11450  0.22593  1.0000
  S   S280      1.0  0.71277  0.16003  0.20205  1.0000
  Fe  Fe142     1.0  0.78079  0.11440  0.20923  1.0000
  C   C779      1.0  0.63129  0.47264  0.09724  1.0000
  Fe  Fe143     1.0  0.74616  0.08041  0.21859  1.0000
  C   C780      1.0  0.75096  0.13035  0.14058  1.0000
  S   S281      1.0  0.76459  0.12854  0.18708  1.0000
  S   S282      1.0  0.72694  0.09312  0.19737  1.0000
  H   H771      1.0  0.94758  0.12267  0.09819  1.0000
  C   C781      1.0  0.97839  0.22392  0.22640  1.0000
  H   H772      1.0  0.68997  0.12346  0.16091  1.0000
  C   C782      1.0  0.64253  0.19061  0.19877  1.0000
  C   C783      1.0  0.66748  0.15803  0.20201  1.0000
  C   C784      1.0  0.68550  0.17106  0.20039  1.0000
  C   C785      1.0  0.68189  0.19389  0.19769  1.0000
  C   C786      1.0  0.66060  0.20362  0.19696  1.0000
  H   H773      1.0  0.69566  0.20418  0.19637  1.0000
  H   H774      1.0  0.65813  0.22118  0.19507  1.0000
  C   C787      1.0  0.91217  0.14520  0.08803  1.0000
  C   C788      1.0  0.73058  0.12579  0.14878  1.0000
  H   H775      1.0  0.68718  0.15049  0.16749  1.0000
  H   H776      1.0  0.94444  0.24173  0.20118  1.0000
  S   S283      1.0  0.58630  0.24746  0.22410  1.0000
  H   H777      1.0  0.51281  0.31571  0.11582  1.0000
  H   H778      1.0  0.65419  0.45825  0.07941  1.0000
  C   C789      1.0  0.64158  0.32602  0.22058  1.0000
  C   C790      1.0  0.65415  0.34456  0.21954  1.0000
  H   H779      1.0  0.63296  0.32278  0.21035  1.0000
  H   H780      1.0  0.65512  0.35549  0.20846  1.0000
  C   C791      1.0  0.52541  0.28608  0.15088  1.0000
  H   H781      1.0  0.75965  0.11854  0.13304  1.0000
  H   H782      1.0  0.73709  0.45932  0.22492  1.0000
  H   H783      1.0  0.52199  0.27755  0.12648  1.0000
  N   N63       1.0  0.52454  0.30253  0.16098  1.0000
  C   C792      1.0  0.73520  0.47599  0.22812  1.0000
  H   H784      1.0  0.74514  0.48999  0.20371  1.0000
  H   H785      1.0  0.70052  0.12882  0.17968  1.0000
  H   H786      1.0  0.61827  0.46221  0.09562  1.0000
  H   H787      1.0  0.99189  0.09735  0.07539  1.0000
  H   H788      1.0  0.53324  0.28560  0.98505  1.0000
  C   C793      1.0  0.56597  0.30996  0.10999  1.0000
  C   C794      1.0  0.57216  0.28997  0.11843  1.0000
  C   C795      1.0  0.57862  0.28917  0.13440  1.0000
  C   C796      1.0  0.57915  0.30844  0.14198  1.0000
  C   C797      1.0  0.57278  0.32839  0.13359  1.0000
  C   C798      1.0  0.56613  0.32916  0.11773  1.0000
  H   H789      1.0  0.57213  0.27503  0.11253  1.0000
  H   H790      1.0  0.58379  0.27374  0.14064  1.0000
  H   H791      1.0  0.57325  0.34340  0.13933  1.0000
  H   H792      1.0  0.56141  0.34464  0.11142  1.0000
  C   C799      1.0  0.98071  0.23226  0.18311  1.0000
  C   C800      1.0  0.53762  0.35824  0.99678  1.0000
  H   H793      1.0  0.92853  0.15151  0.08385  1.0000
  S   S284      1.0  0.81377  0.12579  0.21425  1.0000
  H   H794      1.0  0.79344  0.07713  0.00577  1.0000
  H   H795      1.0  0.56780  0.34541  0.00585  1.0000
  H   H796      1.0  0.68351  0.48303  0.08295  1.0000
  C   C801      1.0  0.58490  0.47378  0.07598  1.0000
  C   C802      1.0  0.57001  0.45774  0.08145  1.0000
  C   C803      1.0  0.57201  0.43732  0.07503  1.0000
  C   C804      1.0  0.58928  0.43265  0.06338  1.0000
  C   C805      1.0  0.60421  0.44868  0.05792  1.0000
  C   C806      1.0  0.60186  0.46931  0.06403  1.0000
  H   H797      1.0  0.55692  0.46109  0.09075  1.0000
  H   H798      1.0  0.56046  0.42506  0.07933  1.0000
  H   H799      1.0  0.61754  0.44516  0.04886  1.0000
  H   H800      1.0  0.81499  0.01917  0.04370  1.0000
  C   C807      1.0  0.81832  0.08829  0.11643  1.0000
  C   C808      1.0  0.80311  0.07239  0.11634  1.0000
  C   C809      1.0  0.78665  0.06949  0.12938  1.0000
  C   C810      1.0  0.78545  0.08213  0.14279  1.0000
  C   C811      1.0  0.80093  0.09774  0.14304  1.0000
  C   C812      1.0  0.81713  0.10091  0.12986  1.0000
  H   H801      1.0  0.80373  0.06264  0.10607  1.0000
  H   H802      1.0  0.77468  0.05748  0.12901  1.0000
  H   H803      1.0  0.80015  0.10765  0.15323  1.0000
  H   H804      1.0  0.82880  0.11327  0.13005  1.0000
  C   C813      1.0  0.84984  0.07288  0.99880  1.0000
  H   H805      1.0  0.94411  0.26563  0.18659  1.0000
  H   H806      1.0  0.66985  0.14049  0.20416  1.0000
  H   H807      1.0  0.95082  0.08356  0.10802  1.0000
  H   H808      1.0  0.86307  0.04273  0.01015  1.0000
  C   C814      1.0  0.96673  0.11853  0.06504  1.0000
  C   C815      1.0  0.94602  0.11958  0.05927  1.0000
  C   C816      1.0  0.93460  0.10050  0.05934  1.0000
  C   C817      1.0  0.94399  0.08030  0.06504  1.0000
  C   C818      1.0  0.96492  0.07922  0.07040  1.0000
  C   C819      1.0  0.97619  0.09828  0.07054  1.0000
  H   H809      1.0  0.93873  0.13518  0.05485  1.0000
  H   H810      1.0  0.91859  0.10143  0.05499  1.0000
  H   H811      1.0  0.97220  0.06364  0.07488  1.0000
  C   C820      1.0  0.80339  0.02781  0.99053  1.0000
  C   C821      1.0  0.89713  0.08797  0.10159  1.0000
  H   H812      1.0  0.84084  0.01879  0.03141  1.0000
  C   C822      1.0  0.65148  0.47038  0.08820  1.0000
  H   H813      1.0  0.75423  0.02384  0.21356  1.0000
  H   H814      1.0  0.50105  0.43221  0.04987  1.0000
  H   H815      1.0  0.61343  0.48158  0.05975  1.0000
  C   C823      1.0  0.80658  0.04797  0.01874  1.0000
  N   N64       1.0  0.71945  0.14064  0.15824  1.0000
  H   H816      1.0  0.89380  0.00240  0.05872  1.0000
  Fe  Fe144     1.0  0.55888  0.26442  0.21081  1.0000
  C   C824      1.0  0.82348  0.01473  0.03187  1.0000
  C   C825      1.0  0.51515  0.32869  0.13891  1.0000
  C   C826      1.0  0.81200  0.01640  0.00413  1.0000
  H   H817      1.0  0.53643  0.31046  0.99440  1.0000
  H   H818      1.0  0.90412  0.15519  0.09762  1.0000
  H   H819      1.0  0.95242  0.26696  0.20688  1.0000
  S   S285      1.0  0.52245  0.27255  0.21822  1.0000
  C   C827      1.0  0.52084  0.29052  0.13459  1.0000
  C   C828      1.0  0.51979  0.32366  0.15515  1.0000
  C   C829      1.0  0.72849  0.15981  0.16028  1.0000
  C   C830      1.0  0.99141  0.26583  0.19095  1.0000
  C   C831      1.0  0.74911  0.16463  0.15258  1.0000
  C   C832      1.0  0.76037  0.14976  0.14265  1.0000
  C   C833      1.0  0.62756  0.48911  0.10786  1.0000
  H   H820      1.0  0.77660  0.44933  0.22488  1.0000
  H   H821      1.0  0.71993  0.17135  0.16811  1.0000
  S   S286      1.0  0.97984  0.14270  0.06664  1.0000
  H   H822      1.0  0.75643  0.17959  0.15458  1.0000
  C   C834      1.0  0.66789  0.48424  0.09019  1.0000
  C   C835      1.0  0.69823  0.13556  0.16697  1.0000
  S   S287      1.0  0.58317  0.49831  0.08551  1.0000
  H   H823      1.0  0.52798  0.28034  0.18232  1.0000
  N   N65       1.0  0.91386  0.12218  0.09441  1.0000
  H   H824      1.0  0.88283  0.07838  0.10250  1.0000
  C   C836      1.0  0.89581  0.11004  0.09578  1.0000
  C   C837      1.0  0.91702  0.07832  0.10592  1.0000
  H   H825      1.0  0.98756  0.28082  0.19678  1.0000
  H   H826      1.0  0.51913  0.30752  0.18635  1.0000
  H   H827      1.0  0.62488  0.31493  0.13128  1.0000
  H   H828      1.0  0.79096  0.41180  0.21941  1.0000
  H   H829      1.0  0.88029  0.11725  0.09219  1.0000
  C   C838      1.0  0.95305  0.25673  0.19644  1.0000
  H   H830      1.0  0.61138  0.49146  0.11414  1.0000
  N   N66       1.0  0.97565  0.25135  0.19022  1.0000
  C   C839      1.0  0.51568  0.31197  0.12859  1.0000
  H   H831      1.0  0.91840  0.06100  0.10977  1.0000
  C   C840      1.0  0.52998  0.29779  0.17788  1.0000
  H   H832      1.0  0.82766  0.08376  0.22828  1.0000
  H   H833      1.0  0.90257  0.14718  0.07722  1.0000
  C   C841      1.0  0.64619  0.16775  0.20112  1.0000
  C   C842      1.0  0.85647  0.03935  0.98533  1.0000
  H   H834      1.0  0.63238  0.15750  0.20251  1.0000
  C   C843      1.0  0.85732  0.05096  0.99912  1.0000
  C   C844      1.0  0.75047  0.01400  0.22495  1.0000
  H   H835      1.0  0.82661  0.04383  0.22716  1.0000
  H   H836      1.0  0.79582  0.01365  0.23080  1.0000
  N   N67       1.0  0.81331  0.02647  0.01805  1.0000
  C   C845      1.0  0.79791  0.05986  0.00536  1.0000
  H   H837      1.0  0.77652  0.15304  0.13677  1.0000
  H   H838      1.0  0.72398  0.11012  0.14771  1.0000
  H   H839      1.0  0.61812  0.34116  0.13823  1.0000
  H   H840      1.0  0.66288  0.26413  0.22087  1.0000
  N   N68       1.0  0.61982  0.34063  0.11236  1.0000
  C   C846      1.0  0.61662  0.36264  0.10851  1.0000
  C   C847      1.0  0.61664  0.32624  0.10128  1.0000
  C   C848      1.0  0.61002  0.37074  0.09324  1.0000
  C   C849      1.0  0.60992  0.33378  0.08595  1.0000
  C   C850      1.0  0.60679  0.35618  0.08190  1.0000
  C   C851      1.0  0.62744  0.33264  0.12824  1.0000
  H   H841      1.0  0.61907  0.37404  0.11730  1.0000
  H   H842      1.0  0.61867  0.30877  0.10440  1.0000
  H   H843      1.0  0.60730  0.38818  0.09013  1.0000
  H   H844      1.0  0.60664  0.32232  0.07739  1.0000
  H   H845      1.0  0.60174  0.36229  0.07003  1.0000
  H   H846      1.0  0.64507  0.33530  0.12824  1.0000
  H   H847      1.0  0.80866  0.05630  0.02943  1.0000
  H   H848      1.0  0.54715  0.30163  0.17875  1.0000
  C   C852      1.0  0.73961  0.49347  0.21608  1.0000
  H   H849      1.0  0.51164  0.34548  0.13423  1.0000
  H   H850      1.0  0.96822  0.22080  0.18249  1.0000
  H   H851      1.0  0.51540  0.22791  0.23368  1.0000
  C   C853      1.0  0.84263  0.08336  0.98426  1.0000
  H   H852      1.0  0.86140  0.02215  0.98595  1.0000
  H   H853      1.0  0.85264  0.14442  0.22187  1.0000
  C   C854      1.0  0.79635  0.04969  0.99117  1.0000
  C   C855      1.0  0.66535  0.34914  0.23276  1.0000
  S   S288      1.0  0.68080  0.37280  0.23092  1.0000
  H   H854      1.0  0.68898  0.25547  0.22776  1.0000
  C   C856      1.0  0.78966  0.41682  0.23172  1.0000
  C   C857      1.0  0.67112  0.25486  0.23100  1.0000
  C   C858      1.0  0.83903  0.15204  0.22891  1.0000
  H   H855      1.0  0.69618  0.21765  0.23383  1.0000
  H   H856      1.0  0.63036  0.24282  0.23387  1.0000
  N   N69       1.0  0.66394  0.23243  0.23356  1.0000
  Fe  Fe145     1.0  0.93291  0.08806  0.41049  1.0000
  S   S289      1.0  0.90270  0.10841  0.41739  1.0000
  S   S290      1.0  0.93492  0.05296  0.40450  1.0000
  Fe  Fe146     1.0  0.96174  0.12546  0.41176  1.0000
  S   S291      1.0  0.93375  0.14913  0.41853  1.0000
  H   H857      1.0  0.76103  0.29825  0.27448  1.0000
  Fe  Fe147     1.0  0.92191  0.12104  0.43595  1.0000
  S   S292      1.0  0.90495  0.12303  0.46154  1.0000
  Fe  Fe148     1.0  0.91709  0.13449  0.39929  1.0000
  S   S293      1.0  0.89260  0.15102  0.38250  1.0000
  S   S294      1.0  0.95103  0.09846  0.43043  1.0000
  S   S295      1.0  0.94616  0.11322  0.39117  1.0000
  Fe  Fe149     1.0  0.74488  0.37414  0.26474  1.0000
  S   S296      1.0  0.77523  0.35231  0.25707  1.0000
  Fe  Fe150     1.0  0.70398  0.38682  0.28711  1.0000
  S   S297      1.0  0.68955  0.40869  0.26714  1.0000
  S   S298      1.0  0.68190  0.38143  0.31086  1.0000
  Fe  Fe151     1.0  0.70055  0.38210  0.25088  1.0000
  Fe  Fe152     1.0  0.90558  0.23163  0.25618  1.0000
  Fe  Fe153     1.0  0.72313  0.42136  0.26141  1.0000
  S   S299      1.0  0.71245  0.35905  0.27116  1.0000
  S   S300      1.0  0.73738  0.40039  0.28231  1.0000
  Fe  Fe154     1.0  0.89431  0.21569  0.29209  1.0000
  S   S301      1.0  0.89539  0.19924  0.26881  1.0000
  S   S302      1.0  0.91571  0.20036  0.31175  1.0000
  Fe  Fe155     1.0  0.86963  0.25700  0.27687  1.0000
  S   S303      1.0  0.85114  0.28803  0.28544  1.0000
  Fe  Fe156     1.0  0.86079  0.21238  0.26690  1.0000
  H   H858      1.0  0.66664  0.26339  0.24223  1.0000
  S   S304      1.0  0.85885  0.22612  0.29140  1.0000
  S   S305      1.0  0.90540  0.24777  0.27948  1.0000
  H   H859      1.0  0.78287  0.43322  0.27591  1.0000
  H   H860      1.0  0.85623  0.04595  0.41887  1.0000
  C   C859      1.0  0.87998  0.17440  0.41981  1.0000
  C   C860      1.0  0.64702  0.46367  0.34451  1.0000
  Fe  Fe157     1.0  0.64140  0.43560  0.39248  1.0000
  S   S306      1.0  0.60858  0.43528  0.38295  1.0000
  S   S307      1.0  0.67279  0.43129  0.37570  1.0000
  Fe  Fe158     1.0  0.62167  0.45030  0.42606  1.0000
  S   S308      1.0  0.58772  0.45091  0.41844  1.0000
  S   S309      1.0  0.62228  0.46521  0.45030  1.0000
  Fe  Fe159     1.0  0.59811  0.41947  0.40791  1.0000
  S   S310      1.0  0.57568  0.39161  0.41317  1.0000
  Fe  Fe160     1.0  0.60141  0.46687  0.39445  1.0000
  S   S311      1.0  0.63153  0.41737  0.41701  1.0000
  S   S312      1.0  0.63479  0.46845  0.40246  1.0000
  S   S313      1.0  0.62449  0.28831  0.23688  1.0000
  C   C861      1.0  0.62381  0.45015  0.46957  1.0000
  H   H861      1.0  0.77016  0.04232  0.26133  1.0000
  H   H862      1.0  0.64241  0.42243  0.46050  1.0000
  H   H863      1.0  0.78490  0.00962  0.25172  1.0000
  C   C862      1.0  0.98830  0.26319  0.23732  1.0000
  C   C863      1.0  0.52764  0.41376  0.38488  1.0000
  C   C864      1.0  0.54698  0.41253  0.39266  1.0000
  C   C865      1.0  0.55001  0.39658  0.40559  1.0000
  C   C866      1.0  0.53309  0.38288  0.41141  1.0000
  C   C867      1.0  0.78298  0.27877  0.28948  1.0000
  C   C868      1.0  0.96182  0.23612  0.23507  1.0000
  H   H864      1.0  0.55992  0.42324  0.38818  1.0000
  H   H865      1.0  0.53531  0.37064  0.42150  1.0000
  H   H866      1.0  0.65776  0.46830  0.35355  1.0000
  C   C869      1.0  0.72879  0.48011  0.24432  1.0000
  H   H867      1.0  0.87183  0.15132  0.44069  1.0000
  H   H868      1.0  0.77243  0.45989  0.25332  1.0000
  C   C870      1.0  0.68335  0.44946  0.29997  1.0000
  C   C871      1.0  0.80024  0.15599  0.23659  1.0000
  H   H869      1.0  0.78376  0.15156  0.23557  1.0000
  H   H870      1.0  0.57919  0.34831  0.39585  1.0000
  H   H871      1.0  0.52575  0.42547  0.37442  1.0000
  H   H872      1.0  0.94609  0.22375  0.29008  1.0000
  H   H873      1.0  0.69273  0.44574  0.28866  1.0000
  N   N70       1.0  0.79633  0.25779  0.26156  1.0000
  H   H874      1.0  0.90937  0.08732  0.38304  1.0000
  H   H875      1.0  0.68386  0.17992  0.23777  1.0000
  S   S314      1.0  0.87066  0.24360  0.25236  1.0000
  H   H876      1.0  0.51233  0.27023  0.27941  1.0000
  H   H877      1.0  0.85937  0.17228  0.24045  1.0000
  H   H878      1.0  0.89737  0.10023  0.36518  1.0000
  H   H879      1.0  0.67236  0.33825  0.25733  1.0000
  H   H880      1.0  0.79590  0.23019  0.24815  1.0000
  C   C872      1.0  0.67999  0.39536  0.32884  1.0000
  C   C873      1.0  0.66146  0.39286  0.34010  1.0000
  C   C874      1.0  0.65896  0.40383  0.35444  1.0000
  C   C875      1.0  0.67522  0.41711  0.35783  1.0000
  C   C876      1.0  0.69382  0.41954  0.34662  1.0000
  C   C877      1.0  0.69614  0.40888  0.33212  1.0000
  H   H881      1.0  0.64894  0.38236  0.33770  1.0000
  H   H882      1.0  0.64464  0.40172  0.36300  1.0000
  H   H883      1.0  0.70651  0.42974  0.34916  1.0000
  H   H884      1.0  0.71051  0.41089  0.32359  1.0000
  C   C878      1.0  0.65259  0.44356  0.32004  1.0000
  C   C879      1.0  0.79574  0.33411  0.26548  1.0000
  C   C880      1.0  0.79978  0.33298  0.28193  1.0000
  C   C881      1.0  0.81690  0.31895  0.28774  1.0000
  C   C882      1.0  0.82976  0.30535  0.27736  1.0000
  C   C883      1.0  0.82545  0.30620  0.26098  1.0000
  C   C884      1.0  0.80878  0.32071  0.25506  1.0000
  H   H885      1.0  0.83528  0.29603  0.25280  1.0000
  C   C885      1.0  0.91866  0.12664  0.47893  1.0000
  C   C886      1.0  0.89929  0.16437  0.36273  1.0000
  C   C887      1.0  0.88239  0.17318  0.35342  1.0000
  C   C888      1.0  0.88703  0.18416  0.33776  1.0000
  C   C889      1.0  0.90869  0.18652  0.33130  1.0000
  C   C890      1.0  0.92556  0.17775  0.34066  1.0000
  C   C891      1.0  0.92092  0.16671  0.35627  1.0000
  H   H886      1.0  0.86558  0.17150  0.35830  1.0000
  H   H887      1.0  0.87388  0.19083  0.33072  1.0000
  H   H888      1.0  0.94236  0.17950  0.33580  1.0000
  H   H889      1.0  0.93411  0.16007  0.36328  1.0000
  C   C892      1.0  0.89400  0.09026  0.37701  1.0000
  C   C893      1.0  0.97536  0.24111  0.28439  1.0000
  H   H890      1.0  0.78995  0.34308  0.29015  1.0000
  S   S315      1.0  0.72535  0.45869  0.26046  1.0000
  H   H891      1.0  0.94853  0.13679  0.46546  1.0000
  H   H892      1.0  0.86274  0.01403  0.36782  1.0000
  H   H893      1.0  0.80751  0.40087  0.28309  1.0000
  C   C894      1.0  0.87168  0.01713  0.40901  1.0000
  H   H894      1.0  0.57072  0.39287  0.36421  1.0000
  C   C895      1.0  0.91083  0.01795  0.40225  1.0000
  C   C896      1.0  0.91060  0.03906  0.40721  1.0000
  C   C897      1.0  0.89093  0.04900  0.41345  1.0000
  C   C898      1.0  0.87147  0.03807  0.41430  1.0000
  H   H895      1.0  0.91341  0.21558  0.41911  1.0000
  C   C899      1.0  0.99595  0.24139  0.27571  1.0000
  H   H896      1.0  0.89062  0.06512  0.41751  1.0000
  H   H897      1.0  0.79869  0.25589  0.23564  1.0000
  C   C900      1.0  0.51357  0.38439  0.40384  1.0000
  C   C901      1.0  0.89144  0.00696  0.40321  1.0000
  C   C902      1.0  0.73656  0.01085  0.25339  1.0000
  C   C903      1.0  0.79927  0.26203  0.28987  1.0000
  C   C904      1.0  0.95480  0.18948  0.27254  1.0000
  C   C905      1.0  0.86336  0.06642  0.37741  1.0000
  C   C906      1.0  0.77329  0.28482  0.27504  1.0000
  N   N71       1.0  0.89141  0.19231  0.41395  1.0000
  N   N72       1.0  0.79863  0.04067  0.24441  1.0000
  N   N73       1.0  0.96921  0.20709  0.27404  1.0000
  C   C907      1.0  0.96212  0.22375  0.28339  1.0000
  C   C908      1.0  0.78527  0.42863  0.26348  1.0000
  H   H898      1.0  0.77021  0.08223  0.26223  1.0000
  C   C909      1.0  0.89120  0.03315  0.36579  1.0000
  H   H899      1.0  0.92590  0.01031  0.39719  1.0000
  C   C910      1.0  0.64212  0.22907  0.23484  1.0000
  H   H900      1.0  0.87070  0.16638  0.41183  1.0000
  H   H901      1.0  0.94243  0.18754  0.28326  1.0000
  H   H902      1.0  0.58782  0.38154  0.37937  1.0000
  C   C911      1.0  0.56425  0.34823  0.38992  1.0000
  H   H903      1.0  0.88252  0.09999  0.38508  1.0000
  H   H904      1.0  0.50987  0.34971  0.37029  1.0000
  C   C912      1.0  0.54170  0.36288  0.36938  1.0000
  H   H905      1.0  0.79050  0.17922  0.25425  1.0000
  C   C913      1.0  0.90458  0.19373  0.44027  1.0000
  C   C914      1.0  0.61505  0.45982  0.48369  1.0000
  C   C915      1.0  0.93990  0.13383  0.47745  1.0000
  C   C916      1.0  0.67885  0.21509  0.23493  1.0000
  C   C917      1.0  0.50035  0.23775  0.23540  1.0000
  C   C918      1.0  0.52860  0.33432  0.38936  1.0000
  N   N74       1.0  0.56077  0.36260  0.37661  1.0000
  H   H906      1.0  0.85236  0.07922  0.38215  1.0000
  C   C919      1.0  0.78305  0.07383  0.25489  1.0000
  C   C920      1.0  0.54820  0.33396  0.39653  1.0000
  H   H907      1.0  0.90231  0.02003  0.36168  1.0000
  H   H908      1.0  0.64422  0.17361  0.23950  1.0000
  C   C921      1.0  0.67834  0.46917  0.32408  1.0000
  H   H909      1.0  0.94608  0.19318  0.26136  1.0000
  S   S316      1.0  0.58243  0.49522  0.38215  1.0000
  H   H910      1.0  0.61738  0.20532  0.23735  1.0000
  H   H911      1.0  0.81182  0.37967  0.26951  1.0000
  H   H912      1.0  0.87721  0.19549  0.39112  1.0000
  H   H913      1.0  0.68401  0.48099  0.33140  1.0000
  H   H914      1.0  0.89347  0.16899  0.45900  1.0000
  C   C922      1.0  0.63549  0.43000  0.47127  1.0000
  H   H915      1.0  0.51581  0.32370  0.39458  1.0000
  H   H916      1.0  0.55660  0.48753  0.41421  1.0000
  N   N75       1.0  0.79384  0.40828  0.26030  1.0000
  H   H917      1.0  0.63843  0.44926  0.35050  1.0000
  C   C923      1.0  0.88046  0.16584  0.43611  1.0000
  H   H918      1.0  0.98801  0.11840  0.44566  1.0000
  H   H919      1.0  0.82010  0.31849  0.30042  1.0000
  H   H920      1.0  0.90649  0.19429  0.38969  1.0000
  C   C924      1.0  0.79582  0.40219  0.24469  1.0000
  H   H921      1.0  0.53872  0.37448  0.35901  1.0000
  C   C925      1.0  0.85494  0.04652  0.37499  1.0000
  C   C926      1.0  0.57790  0.37721  0.36971  1.0000
  C   C927      1.0  0.78019  0.27407  0.26110  1.0000
  H   H922      1.0  0.70526  0.47312  0.30529  1.0000
  C   C928      1.0  0.63468  0.20790  0.23710  1.0000
  H   H923      1.0  0.63806  0.43482  0.32425  1.0000
  C   C929      1.0  0.51113  0.39938  0.39025  1.0000
  H   H924      1.0  0.96951  0.25436  0.29172  1.0000
  H   H925      1.0  0.98749  0.09187  0.40079  1.0000
  C   C930      1.0  0.89911  0.05319  0.36848  1.0000
  C   C931      1.0  0.66393  0.33489  0.24704  1.0000
  C   C932      1.0  0.81519  0.07466  0.23575  1.0000
  S   S317      1.0  0.73325  0.39642  0.24353  1.0000
  H   H926      1.0  0.99962  0.12385  0.46395  1.0000
  C   C933      1.0  0.52530  0.34883  0.37568  1.0000
  C   C934      1.0  0.86898  0.02980  0.36917  1.0000
  N   N76       1.0  0.65978  0.45845  0.32929  1.0000
  H   H927      1.0  0.58881  0.36922  0.36027  1.0000
  H   H928      1.0  0.97878  0.01272  0.40105  1.0000
  H   H929      1.0  0.78517  0.38457  0.27978  1.0000
  C   C935      1.0  0.80411  0.17171  0.24715  1.0000
  C   C936      1.0  0.66432  0.43875  0.30531  1.0000
  H   H930      1.0  0.77830  0.28745  0.30022  1.0000
  H   H931      1.0  0.82133  0.24342  0.24572  1.0000
  H   H932      1.0  0.65021  0.30560  0.25924  1.0000
  C   C937      1.0  0.80564  0.25154  0.27575  1.0000
  S   S318      1.0  0.84707  0.00431  0.40878  1.0000
  C   C938      1.0  0.65135  0.31637  0.24808  1.0000
  C   C939      1.0  0.79990  0.39264  0.27385  1.0000
  H   H933      1.0  0.99196  0.27861  0.24142  1.0000
  C   C940      1.0  0.90383  0.20181  0.42388  1.0000
  H   H934      1.0  0.83776  0.04374  0.37814  1.0000
  C   C941      1.0  0.69042  0.46481  0.30937  1.0000
  H   H935      1.0  0.91651  0.05546  0.36635  1.0000
  S   S319      1.0  0.82922  0.19758  0.26218  1.0000
  H   H936      1.0  0.55075  0.32309  0.40739  1.0000
  C   C942      1.0  0.98927  0.20736  0.26532  1.0000
  H   H937      1.0  0.89096  0.21883  0.39529  1.0000
  N   N77       1.0  0.88524  0.06943  0.37434  1.0000
  H   H938      1.0  0.65906  0.42627  0.29833  1.0000
  H   H939      1.0  0.81830  0.23854  0.27613  1.0000
  C   C943      1.0  0.78309  0.05122  0.25427  1.0000
  H   H940      1.0  0.96419  0.17358  0.27185  1.0000
  C   C944      1.0  0.89274  0.17569  0.44639  1.0000
  H   H941      1.0  0.91456  0.20114  0.44811  1.0000
  H   H942      1.0  0.95440  0.26544  0.24718  1.0000
  C   C945      1.0  0.82543  0.17772  0.24863  1.0000
  C   C946      1.0  0.96699  0.25568  0.24071  1.0000
  C   C947      1.0  0.80328  0.24635  0.24701  1.0000
  H   H943      1.0  0.72951  0.01840  0.26414  1.0000
  H   H944      1.0  0.52305  0.49685  0.40060  1.0000
  C   C948      1.0  0.79928  0.08558  0.24562  1.0000
  C   C949      1.0  0.77925  0.44376  0.25076  1.0000
  C   C950      1.0  0.50055  0.26866  0.27031  1.0000
  C   C951      1.0  0.89152  0.20070  0.39671  1.0000
  H   H945      1.0  0.80742  0.25760  0.30088  1.0000
  H   H946      1.0  0.80592  0.32150  0.24229  1.0000
  C   C952      1.0  0.64878  0.49822  0.48148  1.0000
  C   C953      1.0  0.64974  0.19012  0.23831  1.0000
  C   C954      1.0  0.84289  0.16784  0.23942  1.0000
  H   H947      1.0  0.81395  0.00881  0.24691  1.0000
  H   H948      1.0  0.80195  0.38583  0.24221  1.0000
  H   H949      1.0  0.77283  0.27917  0.24987  1.0000
  C   C955      1.0  0.79833  0.01704  0.24345  1.0000
  C   C956      1.0  0.67198  0.19368  0.23733  1.0000
  H   H950      1.0  0.63482  0.47731  0.34204  1.0000
  S   S320      1.0  0.93455  0.22760  0.23663  1.0000
  H   H951      1.0  0.99919  0.08287  0.43975  1.0000
  H   H952      1.0  0.99455  0.19462  0.25740  1.0000
  H   H953      1.0  0.79935  0.10318  0.24584  1.0000
  H   H954      1.0  0.60600  0.47540  0.48249  1.0000
  C   C957      1.0  0.74140  0.02408  0.23872  1.0000
  H   H955      1.0  0.50082  0.37335  0.40812  1.0000
  H   H956      1.0  0.66957  0.46926  0.47908  1.0000
  S   S321      1.0  0.73626  0.05299  0.23843  1.0000
  S   S322      1.0  0.99688  0.13374  0.41031  1.0000
  C   C958      1.0  0.64005  0.31188  0.23490  1.0000
  H   H957      1.0  0.50614  0.27799  0.25858  1.0000
  C   C959      1.0  0.78148  0.43779  0.23480  1.0000
  H   H958      1.0  0.50070  0.25125  0.26781  1.0000
  C   C960      1.0  0.81451  0.05209  0.23518  1.0000
  S   S323      1.0  0.88078  0.00627  0.53719  1.0000
  Fe  Fe161     1.0  0.96872  0.12302  0.58014  1.0000
  S   S324      1.0  0.95145  0.15329  0.56932  1.0000
  Fe  Fe162     1.0  0.93021  0.09542  0.57846  1.0000
  S   S325      1.0  0.91008  0.12330  0.56699  1.0000
  S   S326      1.0  0.91881  0.06188  0.58712  1.0000
  Fe  Fe163     1.0  0.94124  0.13135  0.55134  1.0000
  S   S327      1.0  0.95150  0.14053  0.52436  1.0000
  Fe  Fe164     1.0  0.92221  0.14259  0.58603  1.0000
  S   S328      1.0  0.89784  0.16292  0.60187  1.0000
  S   S329      1.0  0.96019  0.10172  0.56149  1.0000
  S   S330      1.0  0.94049  0.11407  0.59819  1.0000
  Fe  Fe165     1.0  0.72165  0.42455  0.71050  1.0000
  S   S331      1.0  0.74930  0.41882  0.69118  1.0000
  H   H959      1.0  0.96041  0.03613  0.57033  1.0000
  Fe  Fe166     1.0  0.69743  0.38525  0.70127  1.0000
  S   S332      1.0  0.72349  0.37714  0.68143  1.0000
  C   C961      1.0  0.55296  0.38629  0.51891  1.0000
  Fe  Fe167     1.0  0.74753  0.38266  0.69934  1.0000
  S   S333      1.0  0.77509  0.35931  0.70901  1.0000
  Fe  Fe168     1.0  0.72279  0.41348  0.67488  1.0000
  S   S334      1.0  0.71993  0.43088  0.64945  1.0000
  S   S335      1.0  0.72111  0.38871  0.71967  1.0000
  S   S336      1.0  0.69554  0.42131  0.69378  1.0000
  Fe  Fe169     1.0  0.90055  0.22122  0.68548  1.0000
  S   S337      1.0  0.90898  0.21099  0.71117  1.0000
  S   S338      1.0  0.92165  0.20592  0.66478  1.0000
  Fe  Fe170     1.0  0.86892  0.25937  0.69638  1.0000
  H   H960      1.0  0.74830  0.32273  0.72478  1.0000
  S   S339      1.0  0.84579  0.28540  0.68398  1.0000
  Fe  Fe171     1.0  0.91172  0.24666  0.71366  1.0000
  C   C962      1.0  0.65726  0.34900  0.71969  1.0000
  Fe  Fe172     1.0  0.87295  0.21682  0.71822  1.0000
  H   H961      1.0  0.85460  0.03189  0.60376  1.0000
  S   S340      1.0  0.90482  0.25680  0.68755  1.0000
  S   S341      1.0  0.86429  0.22414  0.69236  1.0000
  H   H962      1.0  0.86934  0.10278  0.61765  1.0000
  Fe  Fe173     1.0  0.62696  0.43352  0.54411  1.0000
  S   S342      1.0  0.60049  0.45985  0.54532  1.0000
  S   S343      1.0  0.63754  0.41810  0.52046  1.0000
  Fe  Fe174     1.0  0.63300  0.43253  0.58097  1.0000
  S   S344      1.0  0.60662  0.45913  0.58465  1.0000
  S   S345      1.0  0.64735  0.41291  0.60284  1.0000
  Fe  Fe175     1.0  0.58768  0.44141  0.56860  1.0000
  S   S346      1.0  0.55104  0.44009  0.57298  1.0000
  Fe  Fe176     1.0  0.62165  0.47527  0.56099  1.0000
  S   S347      1.0  0.61264  0.41360  0.56643  1.0000
  S   S348      1.0  0.64957  0.45010  0.55826  1.0000
  C   C963      1.0  0.63101  0.43017  0.50105  1.0000
  S   S349      1.0  0.87599  0.25210  0.72267  1.0000
  C   C964      1.0  0.61864  0.44992  0.49936  1.0000
  H   H963      1.0  0.93589  0.02065  0.55304  1.0000
  H   H964      1.0  0.61235  0.45794  0.51004  1.0000
  C   C965      1.0  0.51917  0.37870  0.56196  1.0000
  C   C966      1.0  0.54194  0.37875  0.56160  1.0000
  C   C967      1.0  0.55192  0.39734  0.56532  1.0000
  C   C968      1.0  0.53914  0.41593  0.56943  1.0000
  C   C969      1.0  0.51636  0.41565  0.57016  1.0000
  H   H965      1.0  0.68472  0.29669  0.72925  1.0000
  H   H966      1.0  0.55189  0.36450  0.55824  1.0000
  H   H967      1.0  0.56946  0.39731  0.56492  1.0000
  H   H968      1.0  0.87687  0.11770  0.59843  1.0000
  S   S350      1.0  0.66672  0.36631  0.70246  1.0000
  C   C970      1.0  0.90758  0.12307  0.49460  1.0000
  H   H969      1.0  0.80922  0.43698  0.70489  1.0000
  H   H970      1.0  0.74514  0.33275  0.69530  1.0000
  S   S351      1.0  0.71738  0.45016  0.72946  1.0000
  C   C971      1.0  0.83310  0.16985  0.71933  1.0000
  C   C972      1.0  0.81915  0.15308  0.71763  1.0000
  C   C973      1.0  0.98259  0.00756  0.57096  1.0000
  H   H971      1.0  0.84323  0.17666  0.70885  1.0000
  H   H972      1.0  0.81844  0.14725  0.70575  1.0000
  C   C974      1.0  0.63909  0.33664  0.71874  1.0000
  H   H973      1.0  0.71148  0.32537  0.68317  1.0000
  C   C975      1.0  0.96244  0.22574  0.68863  1.0000
  H   H974      1.0  0.68122  0.29316  0.68893  1.0000
  H   H975      1.0  0.50492  0.28147  0.71690  1.0000
  C   C976      1.0  0.71661  0.30896  0.72895  1.0000
  C   C977      1.0  0.70061  0.42513  0.63600  1.0000
  C   C978      1.0  0.69642  0.44027  0.62263  1.0000
  C   C979      1.0  0.68069  0.43657  0.61201  1.0000
  C   C980      1.0  0.66911  0.41752  0.61455  1.0000
  C   C981      1.0  0.67382  0.40208  0.62761  1.0000
  C   C982      1.0  0.68929  0.40592  0.63836  1.0000
  H   H976      1.0  0.70526  0.45507  0.62058  1.0000
  H   H977      1.0  0.67737  0.44856  0.60198  1.0000
  H   H978      1.0  0.66514  0.38718  0.62960  1.0000
  H   H979      1.0  0.69250  0.39399  0.64844  1.0000
  C   C983      1.0  0.79422  0.33848  0.70173  1.0000
  C   C984      1.0  0.80712  0.32623  0.71289  1.0000
  C   C985      1.0  0.82271  0.30981  0.70779  1.0000
  C   C986      1.0  0.82579  0.30544  0.69136  1.0000
  C   C987      1.0  0.81278  0.31762  0.68022  1.0000
  C   C988      1.0  0.79707  0.33392  0.68534  1.0000
  H   H980      1.0  0.96219  0.21819  0.73139  1.0000
  H   H981      1.0  0.83253  0.30072  0.71655  1.0000
  H   H982      1.0  0.81499  0.31453  0.66748  1.0000
  H   H983      1.0  0.78745  0.34317  0.67653  1.0000
  H   H984      1.0  0.63458  0.45078  0.62426  1.0000
  C   C989      1.0  0.86292  0.08905  0.58132  1.0000
  C   C990      1.0  0.87786  0.10127  0.60529  1.0000
  H   H985      1.0  0.84583  0.00501  0.50093  1.0000
  H   H986      1.0  0.54900  0.48999  0.56847  1.0000
  C   C991      1.0  0.73478  0.14327  0.71883  1.0000
  C   C992      1.0  0.91758  0.12668  0.50869  1.0000
  C   C993      1.0  0.58367  0.40701  0.52425  1.0000
  H   H987      1.0  0.55144  0.43612  0.53246  1.0000
  H   H988      1.0  0.87021  0.06069  0.61735  1.0000
  C   C994      1.0  0.90444  0.17271  0.62027  1.0000
  C   C995      1.0  0.92608  0.17339  0.62383  1.0000
  C   C996      1.0  0.93091  0.18300  0.63779  1.0000
  C   C997      1.0  0.91423  0.19188  0.64847  1.0000
  C   C998      1.0  0.89251  0.19069  0.64518  1.0000
  C   C999      1.0  0.88768  0.18121  0.63112  1.0000
  H   H989      1.0  0.93915  0.16693  0.61563  1.0000
  H   H990      1.0  0.94776  0.18381  0.64018  1.0000
  H   H991      1.0  0.87949  0.19747  0.65325  1.0000
  H   H992      1.0  0.87088  0.18075  0.62850  1.0000
  C   C1000     1.0  0.63908  0.42009  0.48696  1.0000
  C   C1001     1.0  0.93864  0.13430  0.50718  1.0000
  C   C1002     1.0  0.51575  0.40067  0.52295  1.0000
  C   C1003     1.0  0.88995  0.02217  0.55141  1.0000
  C   C1004     1.0  0.89620  0.04347  0.54636  1.0000
  C   C1005     1.0  0.90492  0.05597  0.55728  1.0000
  C   C1006     1.0  0.90739  0.04714  0.57326  1.0000
  C   C1007     1.0  0.90092  0.02596  0.57835  1.0000
  H   H993      1.0  0.80519  0.32952  0.72560  1.0000
  H   H994      1.0  0.89460  0.05019  0.53390  1.0000
  H   H995      1.0  0.90992  0.07230  0.55327  1.0000
  H   H996      1.0  0.90284  0.01908  0.59073  1.0000
  C   C1008     1.0  0.86526  0.06442  0.60511  1.0000
  N   N78       1.0  0.63689  0.43190  0.64718  1.0000
  C   C1009     1.0  0.64838  0.42878  0.66065  1.0000
  C   C1010     1.0  0.62438  0.41585  0.64336  1.0000
  C   C1011     1.0  0.64776  0.40904  0.67055  1.0000
  C   C1012     1.0  0.62357  0.39584  0.65293  1.0000
  C   C1013     1.0  0.63537  0.39246  0.66661  1.0000
  C   C1014     1.0  0.63735  0.45286  0.63713  1.0000
  H   H997      1.0  0.65857  0.44134  0.66357  1.0000
  H   H998      1.0  0.62457  0.46450  0.64216  1.0000
  H   H999      1.0  0.65708  0.40641  0.68109  1.0000
  H   H1000     1.0  0.61415  0.38296  0.64956  1.0000
  H   H1001     1.0  0.63514  0.37699  0.67413  1.0000
  H   H1002     1.0  0.65360  0.45992  0.63668  1.0000
  C   C1015     1.0  0.98784  0.25149  0.69582  1.0000
  H   H1003     1.0  0.51179  0.43257  0.53181  1.0000
  H   H1004     1.0  0.61556  0.41819  0.63252  1.0000
  C   C1016     1.0  0.67689  0.30553  0.69780  1.0000
  H   H1005     1.0  0.64860  0.40476  0.48814  1.0000
  H   H1006     1.0  0.71842  0.13735  0.72341  1.0000
  N   N79       1.0  0.69629  0.31040  0.70544  1.0000
  H   H1007     1.0  0.67631  0.44342  0.50245  1.0000
  S   S352      1.0  0.94068  0.26174  0.72363  1.0000
  H   H1008     1.0  0.99348  0.01417  0.57858  1.0000
  C   C1017     1.0  0.66146  0.48022  0.48758  1.0000
  C   C1018     1.0  0.75992  0.17032  0.72431  1.0000
  C   C1019     1.0  0.79720  0.43295  0.71507  1.0000
  H   H1009     1.0  0.69359  0.46204  0.51021  1.0000
  C   C1020     1.0  0.89211  0.01353  0.56748  1.0000
  H   H1010     1.0  0.65355  0.48651  0.52779  1.0000
  H   H1011     1.0  0.89536  0.09661  0.60652  1.0000
  H   H1012     1.0  0.79763  0.39886  0.71094  1.0000
  C   C1021     1.0  0.52330  0.41970  0.52780  1.0000
  N   N80       1.0  0.66286  0.47599  0.50404  1.0000
  H   H1013     1.0  0.99307  0.11627  0.53263  1.0000
  N   N81       1.0  0.98341  0.23037  0.69416  1.0000
  H   H1014     1.0  0.96300  0.22843  0.67511  1.0000
  C   C1022     1.0  0.73369  0.31914  0.71939  1.0000
  C   C1023     1.0  0.94975  0.13780  0.49150  1.0000
  C   C1024     1.0  0.65228  0.48964  0.51474  1.0000
  C   C1025     1.0  0.85650  0.04806  0.59748  1.0000
  H   H1015     1.0  0.85066  0.07634  0.56066  1.0000
  C   C1026     1.0  0.50639  0.39711  0.56642  1.0000
  H   H1016     1.0  0.58894  0.39804  0.53563  1.0000
  H   H1017     1.0  0.76827  0.16882  0.71224  1.0000
  C   C1027     1.0  0.85105  0.05241  0.58145  1.0000
  H   H1018     1.0  0.90881  0.12402  0.52065  1.0000
  N   N82       1.0  0.88191  0.25071  0.63697  1.0000
  C   C1028     1.0  0.87170  0.24265  0.62501  1.0000
  C   C1029     1.0  0.90404  0.24778  0.63725  1.0000
  C   C1030     1.0  0.88379  0.23174  0.61269  1.0000
  C   C1031     1.0  0.91664  0.23709  0.62507  1.0000
  C   C1032     1.0  0.90640  0.22899  0.61275  1.0000
  C   C1033     1.0  0.86881  0.26131  0.65008  1.0000
  H   H1019     1.0  0.85408  0.24432  0.62510  1.0000
  H   H1020     1.0  0.91204  0.25310  0.64720  1.0000
  H   H1021     1.0  0.87568  0.22478  0.60347  1.0000
  H   H1022     1.0  0.93407  0.23412  0.62567  1.0000
  H   H1023     1.0  0.91585  0.21977  0.60365  1.0000
  H   H1024     1.0  0.85527  0.27200  0.64528  1.0000
  H   H1025     1.0  0.86175  0.24881  0.65937  1.0000
  H   H1026     1.0  0.87868  0.27188  0.65634  1.0000
  C   C1034     1.0  0.79068  0.41158  0.71844  1.0000
  C   C1035     1.0  0.74297  0.48632  0.72058  1.0000
  H   H1027     1.0  0.86568  0.10490  0.57479  1.0000
  C   C1036     1.0  0.96412  0.01990  0.56630  1.0000
  C   C1037     1.0  0.75121  0.01415  0.72914  1.0000
  H   H1028     1.0  0.99411  0.08161  0.57899  1.0000
  H   H1029     1.0  0.52480  0.36865  0.51532  1.0000
  N   N83       1.0  0.86817  0.08466  0.59707  1.0000
  H   H1030     1.0  0.89113  0.11757  0.49586  1.0000
  H   H1031     1.0  0.74646  0.12883  0.71799  1.0000
  S   S353      1.0  0.79018  0.12165  0.72883  1.0000
  H   H1032     1.0  0.84493  0.03963  0.57521  1.0000
  H   H1033     1.0  0.97564  0.26465  0.69364  1.0000
  H   H1034     1.0  0.59331  0.40028  0.51358  1.0000
  H   H1035     1.0  0.63065  0.33848  0.70776  1.0000
  H   H1036     1.0  0.74989  0.47791  0.71020  1.0000
  H   H1037     1.0  0.99513  0.19699  0.69586  1.0000
  H   H1038     1.0  0.86022  0.12814  0.72489  1.0000
  C   C1038     1.0  0.71291  0.32049  0.69602  1.0000
  H   H1039     1.0  0.50634  0.42990  0.57342  1.0000
  C   C1039     1.0  0.73191  0.32484  0.70281  1.0000
  H   H1040     1.0  0.58789  0.42431  0.52403  1.0000
  C   C1040     1.0  0.50053  0.26549  0.72237  1.0000
  H   H1041     1.0  0.78220  0.19338  0.73038  1.0000
  N   N84       1.0  0.56025  0.40513  0.52346  1.0000
  C   C1041     1.0  0.85429  0.07301  0.57328  1.0000
  H   H1042     1.0  0.79286  0.46584  0.72226  1.0000
  C   C1042     1.0  0.80664  0.14343  0.73127  1.0000
  C   C1043     1.0  0.54574  0.42162  0.52809  1.0000
  H   H1043     1.0  0.76967  0.39010  0.73380  1.0000
  N   N85       1.0  0.74238  0.15813  0.72966  1.0000
  H   H1044     1.0  0.95802  0.20865  0.69244  1.0000
  C   C1044     1.0  0.72659  0.47674  0.73140  1.0000
  H   H1045     1.0  0.66384  0.29915  0.70698  1.0000
  H   H1046     1.0  0.96599  0.14382  0.49022  1.0000
  C   C1045     1.0  0.69798  0.30451  0.72170  1.0000
  H   H1047     1.0  0.51337  0.47274  0.57390  1.0000
  C   C1046     1.0  0.95013  0.01101  0.55665  1.0000
  H   H1048     1.0  0.94910  0.23646  0.69411  1.0000
  S   S354      1.0  0.50690  0.35596  0.55616  1.0000
  H   H1049     1.0  0.98830  0.15135  0.54109  1.0000
  H   H1050     1.0  0.67036  0.45097  0.52270  1.0000
  H   H1051     1.0  0.61812  0.31192  0.73086  1.0000
  H   H1052     1.0  0.73356  0.15160  0.70640  1.0000
  H   H1053     1.0  0.66996  0.32067  0.69134  1.0000
  C   C1047     1.0  0.78806  0.44910  0.72480  1.0000
  C   C1048     1.0  0.53062  0.38379  0.51856  1.0000
  C   C1049     1.0  0.51386  0.49039  0.57169  1.0000
  C   C1050     1.0  0.67655  0.45727  0.51013  1.0000
  C   C1051     1.0  0.96529  0.25252  0.73273  1.0000
  C   C1052     1.0  0.99858  0.21371  0.69729  1.0000
  C   C1053     1.0  0.63196  0.32155  0.73179  1.0000
  H   H1054     1.0  0.56443  0.37296  0.51573  1.0000
  C   C1054     1.0  0.51428  0.25377  0.73320  1.0000
  C   C1055     1.0  0.77481  0.40673  0.73138  1.0000
  H   H1055     1.0  0.50132  0.33784  0.59053  1.0000
  H   H1056     1.0  0.76003  0.02895  0.72698  1.0000
  H   H1057     1.0  0.87451  0.14849  0.73278  1.0000
  C   C1056     1.0  0.66795  0.34661  0.73395  1.0000
  C   C1057     1.0  0.74029  0.17262  0.75581  1.0000
  Fe  Fe177     1.0  0.87830  0.02404  0.89961  1.0000
  S   S355      1.0  0.84322  0.02134  0.90927  1.0000
  Fe  Fe178     1.0  0.87720  0.07242  0.90290  1.0000
  S   S356      1.0  0.84188  0.07407  0.91293  1.0000
  S   S357      1.0  0.89799  0.10163  0.89986  1.0000
  Fe  Fe179     1.0  0.85076  0.04319  0.92822  1.0000
  S   S358      1.0  0.84330  0.03339  0.95538  1.0000
  Fe  Fe180     1.0  0.83717  0.05240  0.89306  1.0000
  S   S359      1.0  0.80686  0.05534  0.87892  1.0000
  S   S360      1.0  0.88624  0.04326  0.91966  1.0000
  S   S361      1.0  0.87187  0.05330  0.88197  1.0000
  S   S362      1.0  0.62850  0.47597  0.90823  1.0000
  Fe  Fe181     1.0  0.51441  0.35557  0.90496  1.0000
  S   S363      1.0  0.54021  0.32852  0.90921  1.0000
  Fe  Fe182     1.0  0.54750  0.39004  0.89615  1.0000
  S   S364      1.0  0.57575  0.36608  0.89974  1.0000
  S   S365      1.0  0.54877  0.42643  0.88986  1.0000
  Fe  Fe183     1.0  0.55795  0.34367  0.88605  1.0000
  S   S366      1.0  0.57916  0.32697  0.86594  1.0000
  Fe  Fe184     1.0  0.55563  0.35307  0.92240  1.0000
  S   S367      1.0  0.57132  0.34548  0.94624  1.0000
  S   S368      1.0  0.53092  0.36894  0.88087  1.0000
  S   S369      1.0  0.52870  0.37872  0.91974  1.0000
  Fe  Fe185     1.0  0.60322  0.22614  0.76756  1.0000
  S   S370      1.0  0.60171  0.25165  0.74604  1.0000
  S   S371      1.0  0.61922  0.19185  0.76412  1.0000
  Fe  Fe186     1.0  0.57608  0.25627  0.79068  1.0000
  S   S372      1.0  0.57314  0.28337  0.77081  1.0000
  S   S373      1.0  0.55783  0.26015  0.81575  1.0000
  Fe  Fe187     1.0  0.56588  0.25737  0.75481  1.0000
  C   C1058     1.0  0.84313  0.11070  0.75326  1.0000
  Fe  Fe188     1.0  0.60867  0.27533  0.76381  1.0000
  C   C1059     1.0  0.83438  0.11860  0.78129  1.0000
  S   S374      1.0  0.56693  0.23052  0.77521  1.0000
  S   S375      1.0  0.61204  0.24949  0.78485  1.0000
  Fe  Fe189     1.0  0.77216  0.08372  0.78567  1.0000
  S   S376      1.0  0.77961  0.07049  0.76105  1.0000
  S   S377      1.0  0.80025  0.07748  0.80210  1.0000
  Fe  Fe190     1.0  0.73008  0.10958  0.77482  1.0000
  S   S378      1.0  0.73497  0.09757  0.74968  1.0000
  S   S379      1.0  0.70698  0.13805  0.78344  1.0000
  Fe  Fe191     1.0  0.74392  0.06428  0.76225  1.0000
  N   N86       1.0  0.76569  0.42272  0.74070  1.0000
  Fe  Fe192     1.0  0.77037  0.10441  0.75050  1.0000
  S   S380      1.0  0.63489  0.30005  0.76263  1.0000
  S   S381      1.0  0.73670  0.07588  0.78771  1.0000
  S   S382      1.0  0.76521  0.11799  0.77473  1.0000
  H   H1058     1.0  0.58645  0.34048  0.97824  1.0000
  C   C1060     1.0  0.83134  0.10629  0.76845  1.0000
  N   N87       1.0  0.99452  0.00957  0.89179  1.0000
  C   C1061     1.0  0.64477  0.17817  0.76838  1.0000
  C   C1062     1.0  0.65907  0.18658  0.77806  1.0000
  C   C1063     1.0  0.67805  0.17416  0.78237  1.0000
  C   C1064     1.0  0.68338  0.15341  0.77676  1.0000
  C   C1065     1.0  0.66947  0.14533  0.76662  1.0000
  C   C1066     1.0  0.65021  0.15752  0.76264  1.0000
  H   H1059     1.0  0.65528  0.20245  0.78251  1.0000
  H   H1060     1.0  0.68865  0.18063  0.79022  1.0000
  H   H1061     1.0  0.67313  0.12936  0.76230  1.0000
  H   H1062     1.0  0.63929  0.15075  0.75520  1.0000
  C   C1067     1.0  0.66064  0.33175  0.74708  1.0000
  S   S383      1.0  0.53792  0.26634  0.73823  1.0000
  H   H1063     1.0  0.51868  0.22370  0.74832  1.0000
  H   H1064     1.0  0.96048  0.06898  0.95128  1.0000
  C   C1068     1.0  0.99932  0.26191  0.74318  1.0000
  C   C1069     1.0  0.66165  0.49367  0.87072  1.0000
  H   H1065     1.0  0.82515  0.11539  0.79310  1.0000
  N   N88       1.0  0.57121  0.42707  0.93777  1.0000
  C   C1070     1.0  0.51970  0.31479  0.95690  1.0000
  H   H1066     1.0  0.75682  0.40755  0.76440  1.0000
  C   C1071     1.0  0.50276  0.32447  0.94815  1.0000
  C   C1072     1.0  0.54914  0.43433  0.93376  1.0000
  H   H1067     1.0  0.83723  0.02476  0.86365  1.0000
  C   C1073     1.0  0.57303  0.30734  0.85283  1.0000
  C   C1074     1.0  0.55234  0.29900  0.85345  1.0000
  C   C1075     1.0  0.54803  0.28438  0.84215  1.0000
  C   C1076     1.0  0.56418  0.27821  0.82994  1.0000
  C   C1077     1.0  0.58494  0.28635  0.82943  1.0000
  C   C1078     1.0  0.58934  0.30071  0.84087  1.0000
  H   H1068     1.0  0.53965  0.30388  0.86260  1.0000
  H   H1069     1.0  0.53198  0.27800  0.84277  1.0000
  H   H1070     1.0  0.59765  0.28146  0.82033  1.0000
  H   H1071     1.0  0.60543  0.30694  0.84036  1.0000
  C   C1079     1.0  0.55877  0.35260  0.96537  1.0000
  C   C1080     1.0  0.53746  0.36179  0.96702  1.0000
  H   H1072     1.0  0.52870  0.36585  0.95633  1.0000
  C   C1081     1.0  0.60710  0.46223  0.90188  1.0000
  C   C1082     1.0  0.60849  0.43938  0.90227  1.0000
  C   C1083     1.0  0.59077  0.42815  0.89844  1.0000
  C   C1084     1.0  0.57178  0.43979  0.89389  1.0000
  C   C1085     1.0  0.57069  0.46266  0.89306  1.0000
  C   C1086     1.0  0.58824  0.47385  0.89712  1.0000
  H   H1073     1.0  0.62309  0.43031  0.90587  1.0000
  H   H1074     1.0  0.59181  0.41053  0.89902  1.0000
  H   H1075     1.0  0.55610  0.47173  0.88942  1.0000
  H   H1076     1.0  0.87190  0.15225  0.76153  1.0000
  C   C1087     1.0  0.80526  0.06224  0.85759  1.0000
  C   C1088     1.0  0.78478  0.06320  0.85129  1.0000
  C   C1089     1.0  0.78282  0.06804  0.83441  1.0000
  C   C1090     1.0  0.80140  0.07181  0.82358  1.0000
  C   C1091     1.0  0.82189  0.07078  0.82988  1.0000
  C   C1092     1.0  0.82383  0.06613  0.84676  1.0000
  H   H1077     1.0  0.77029  0.06027  0.85954  1.0000
  H   H1078     1.0  0.76696  0.06877  0.82978  1.0000
  H   H1079     1.0  0.83638  0.07368  0.82164  1.0000
  H   H1080     1.0  0.83968  0.06563  0.85138  1.0000
  C   C1093     1.0  0.84191  0.07178  0.97043  1.0000
  C   C1094     1.0  0.84843  0.04959  0.97103  1.0000
  S   S384      1.0  0.73131  0.03089  0.75780  1.0000
  H   H1081     1.0  0.83511  0.07970  0.95966  1.0000
  H   H1082     1.0  0.74036  0.43197  0.75880  1.0000
  C   C1095     1.0  0.96923  0.08487  0.90870  1.0000
  C   C1096     1.0  0.95497  0.06821  0.90816  1.0000
  C   C1097     1.0  0.93349  0.07327  0.90438  1.0000
  C   C1098     1.0  0.92586  0.09503  0.90173  1.0000
  C   C1099     1.0  0.94034  0.11171  0.90171  1.0000
  C   C1100     1.0  0.96209  0.10663  0.90505  1.0000
  H   H1083     1.0  0.96039  0.05137  0.91096  1.0000
  H   H1084     1.0  0.92284  0.06029  0.90365  1.0000
  H   H1085     1.0  0.93461  0.12859  0.89947  1.0000
  H   H1086     1.0  0.97307  0.11957  0.90531  1.0000
  C   C1101     1.0  0.92649  0.06139  0.95391  1.0000
  N   N89       1.0  0.85748  0.12705  0.75090  1.0000
  H   H1087     1.0  0.79946  0.01195  0.86869  1.0000
  H   H1088     1.0  0.62912  0.40768  0.94888  1.0000
  C   C1102     1.0  0.60723  0.43540  0.94314  1.0000
  H   H1089     1.0  0.86914  0.08535  0.93948  1.0000
  H   H1090     1.0  0.87137  0.10540  0.95382  1.0000
  H   H1091     1.0  0.92949  0.04463  0.95883  1.0000
  H   H1092     1.0  0.82234  0.17358  0.76013  1.0000
  C   C1103     1.0  0.61281  0.41314  0.94590  1.0000
  C   C1104     1.0  0.87904  0.09861  0.94252  1.0000
  H   H1093     1.0  0.58712  0.49148  0.89658  1.0000
  H   H1094     1.0  0.68190  0.35610  0.73483  1.0000
  H   H1095     1.0  0.64882  0.48249  0.87471  1.0000
  C   C1105     1.0  0.87002  0.13115  0.73498  1.0000
  C   C1106     1.0  0.86078  0.13905  0.76347  1.0000
  H   H1096     1.0  0.96044  0.01860  0.89199  1.0000
  C   C1107     1.0  0.57644  0.40523  0.94070  1.0000
  H   H1097     1.0  0.87578  0.01365  0.85591  1.0000
  C   C1108     1.0  0.84269  0.00776  0.86579  1.0000
  C   C1109     1.0  0.93966  0.09659  0.94362  1.0000
  C   C1110     1.0  0.82138  0.16801  0.74820  1.0000
  H   H1098     1.0  0.54346  0.35266  0.83868  1.0000
  H   H1099     1.0  0.54899  0.45060  0.92665  1.0000
  C   C1111     1.0  0.71784  0.48812  0.74478  1.0000
  H   H1100     1.0  0.79785  0.14421  0.75708  1.0000
  H   H1101     1.0  0.71770  0.30464  0.74190  1.0000
  H   H1102     1.0  0.70520  0.48095  0.75328  1.0000
  H   H1103     1.0  0.56452  0.39328  0.93980  1.0000
  C   C1112     1.0  0.75809  0.18519  0.75042  1.0000
  N   N90       1.0  0.90142  0.09040  0.94487  1.0000
  C   C1113     1.0  0.77237  0.44363  0.73773  1.0000
  H   H1104     1.0  0.87871  0.11148  0.93212  1.0000
  H   H1105     1.0  0.53144  0.32811  0.81943  1.0000
  C   C1114     1.0  0.99283  0.22424  0.74061  1.0000
  C   C1115     1.0  0.86446  0.00155  0.86124  1.0000
  H   H1106     1.0  0.91524  0.12059  0.93580  1.0000
  H   H1107     1.0  0.84026  0.10134  0.74327  1.0000
  C   C1116     1.0  0.50833  0.23304  0.74006  1.0000
  H   H1108     1.0  0.76449  0.19541  0.75864  1.0000
  C   C1117     1.0  0.74913  0.41712  0.75420  1.0000
  H   H1109     1.0  0.53801  0.43508  0.94513  1.0000
  C   C1118     1.0  0.73262  0.15908  0.74521  1.0000
  H   H1110     1.0  0.71895  0.14915  0.74958  1.0000
  C   C1119     1.0  0.84920  0.13508  0.77883  1.0000
  H   H1111     1.0  0.58168  0.36369  0.83566  1.0000
  H   H1112     1.0  0.54282  0.42298  0.92587  1.0000
  C   C1120     1.0  0.80753  0.15126  0.74651  1.0000
  H   H1113     1.0  0.95307  0.10725  0.94025  1.0000
  C   C1121     1.0  0.73593  0.01145  0.74280  1.0000
  N   N91       1.0  0.58952  0.18821  0.80541  1.0000
  C   C1122     1.0  0.58267  0.20584  0.81387  1.0000
  C   C1123     1.0  0.61071  0.18016  0.80520  1.0000
  C   C1124     1.0  0.59721  0.21584  0.82240  1.0000
  C   C1125     1.0  0.62568  0.18976  0.81361  1.0000
  C   C1126     1.0  0.61886  0.20776  0.82222  1.0000
  C   C1127     1.0  0.57433  0.17783  0.79635  1.0000
  H   H1114     1.0  0.56595  0.21249  0.81393  1.0000
  H   H1115     1.0  0.61625  0.16648  0.79820  1.0000
  H   H1116     1.0  0.59173  0.22998  0.82893  1.0000
  H   H1117     1.0  0.64253  0.18342  0.81320  1.0000
  H   H1118     1.0  0.63036  0.21555  0.82862  1.0000
  H   H1119     1.0  0.57374  0.16018  0.80054  1.0000
  H   H1120     1.0  0.55751  0.18537  0.79793  1.0000
  H   H1121     1.0  0.57983  0.17952  0.78307  1.0000
  N   N92       1.0  0.58392  0.33272  0.80371  1.0000
  C   C1128     1.0  0.59068  0.34614  0.81429  1.0000
  C   C1129     1.0  0.56287  0.32640  0.80538  1.0000
  C   C1130     1.0  0.57612  0.35382  0.82682  1.0000
  C   C1131     1.0  0.54788  0.33379  0.81777  1.0000
  C   C1132     1.0  0.55460  0.34759  0.82854  1.0000
  C   C1133     1.0  0.59942  0.32407  0.79098  1.0000
  H   H1122     1.0  0.60753  0.35054  0.81339  1.0000
  H   H1123     1.0  0.55775  0.31500  0.79745  1.0000
  H   H1124     1.0  0.73265  0.17305  0.76820  1.0000
  C   C1134     1.0  0.64277  0.31903  0.74600  1.0000
  C   C1135     1.0  0.90523  0.06946  0.95150  1.0000
  H   H1125     1.0  0.59264  0.32645  0.77892  1.0000
  H   H1126     1.0  0.61517  0.33221  0.78957  1.0000
  H   H1127     1.0  0.60302  0.30631  0.79397  1.0000
  H   H1128     1.0  0.79053  0.05894  0.98045  1.0000
  H   H1129     1.0  0.66901  0.32995  0.75809  1.0000
  H   H1130     1.0  0.50404  0.32516  0.93493  1.0000
  N   N93       1.0  0.51806  0.31403  0.97360  1.0000
  H   H1131     1.0  0.60138  0.38055  0.94691  1.0000
  H   H1132     1.0  0.76519  0.45634  0.74513  1.0000
  H   H1133     1.0  0.85150  0.14489  0.78869  1.0000
  C   C1136     1.0  0.58616  0.44212  0.93920  1.0000
  H   H1134     1.0  0.99402  0.19328  0.80718  1.0000
  H   H1135     1.0  0.55186  0.30570  0.97550  1.0000
  H   H1136     1.0  0.77784  0.00351  0.76576  1.0000
  C   C1137     1.0  0.91824  0.10403  0.94114  1.0000
  H   H1137     1.0  0.61925  0.44741  0.94369  1.0000
  C   C1138     1.0  0.56990  0.34750  0.97941  1.0000
  H   H1138     1.0  0.58213  0.45945  0.93680  1.0000
  C   C1139     1.0  0.66678  0.49964  0.85411  1.0000
  S   S385      1.0  0.99525  0.07791  0.91511  1.0000
  C   C1140     1.0  0.94381  0.07505  0.94983  1.0000
  H   H1139     1.0  0.73648  0.40750  0.74992  1.0000
  H   H1140     1.0  0.89181  0.05877  0.95474  1.0000
  H   H1141     1.0  0.81971  0.09356  0.77025  1.0000
  C   C1141     1.0  0.97888  0.26812  0.73720  1.0000
  C   C1142     1.0  0.53573  0.30334  0.98258  1.0000
  C   C1143     1.0  0.52693  0.36449  0.98266  1.0000
  H   H1142     1.0  0.97369  0.28525  0.73578  1.0000
  H   H1143     1.0  0.80318  0.02007  0.97927  1.0000
  S   S386      1.0  0.85442  0.19518  0.73815  1.0000
  C   C1144     1.0  0.59731  0.39793  0.94475  1.0000
  C   C1145     1.0  0.97235  0.23045  0.73469  1.0000
  H   H1144     1.0  0.99865  0.20627  0.83405  1.0000
  H   H1145     1.0  0.80532  0.00770  0.88971  1.0000
  H   H1146     1.0  0.53435  0.30830  0.95023  1.0000
  H   H1147     1.0  0.98831  0.04395  0.88576  1.0000
  C   C1146     1.0  0.83461  0.17702  0.73472  1.0000
  H   H1148     1.0  0.88514  0.12040  0.73442  1.0000
  C   C1147     1.0  0.97287  0.00534  0.89272  1.0000
  H   H1149     1.0  0.65790  0.49320  0.84508  1.0000
  H   H1150     1.0  0.66876  0.49780  0.89512  1.0000
  H   H1151     1.0  0.99818  0.20715  0.74176  1.0000
  C   C1148     1.0  0.76793  0.18417  0.73454  1.0000
  H   H1152     1.0  0.51010  0.37067  0.98389  1.0000
  H   H1153     1.0  0.83670  0.10029  0.98394  1.0000
  Fe  Fe193     1.0  0.91820  0.85415  0.07314  1.0000
  S   S387      1.0  0.94465  0.87729  0.07378  1.0000
  S   S388      1.0  0.89983  0.84697  0.09821  1.0000
  Fe  Fe194     1.0  0.92510  0.85546  0.03558  1.0000
  S   S389      1.0  0.95246  0.87822  0.03369  1.0000
  S   S390      1.0  0.90926  0.84787  0.01311  1.0000
  Fe  Fe195     1.0  0.96370  0.85753  0.05544  1.0000
  Fe  Fe196     1.0  0.93127  0.89618  0.05221  1.0000
  S   S391      1.0  0.93239  0.93270  0.05051  1.0000
  S   S392      1.0  0.93818  0.83268  0.05605  1.0000
  S   S393      1.0  0.90296  0.87507  0.05288  1.0000
  Fe  Fe197     1.0  0.59864  0.57481  0.06509  1.0000
  S   S394      1.0  0.63439  0.57729  0.05701  1.0000
  S   S395      1.0  0.57506  0.60405  0.06218  1.0000
  Fe  Fe198     1.0  0.60300  0.52626  0.07383  1.0000
  S   S396      1.0  0.63896  0.52468  0.06631  1.0000
  H   H1154     1.0  0.89442  0.98965  0.09616  1.0000
  Fe  Fe199     1.0  0.63992  0.55495  0.07965  1.0000
  S   S397      1.0  0.66885  0.55611  0.09505  1.0000
  Fe  Fe200     1.0  0.63042  0.54715  0.04440  1.0000
  S   S398      1.0  0.64707  0.54380  0.01882  1.0000
  S   S399      1.0  0.60429  0.55488  0.08867  1.0000
  S   S400      1.0  0.59434  0.54631  0.05099  1.0000
  Fe  Fe201     1.0  0.70700  0.60264  0.17775  1.0000
  S   S401      1.0  0.69880  0.58465  0.20242  1.0000
  S   S402      1.0  0.68074  0.60226  0.15985  1.0000
  Fe  Fe202     1.0  0.74893  0.62066  0.18921  1.0000
  S   S403      1.0  0.74359  0.60230  0.21415  1.0000
  S   S404      1.0  0.77295  0.64811  0.18110  1.0000
  Fe  Fe203     1.0  0.73426  0.57373  0.20137  1.0000
  S   S405      1.0  0.74312  0.53670  0.20408  1.0000
  Fe  Fe204     1.0  0.70844  0.61447  0.21296  1.0000
  C   C1149     1.0  0.50769  0.61426  0.10072  1.0000
  S   S406      1.0  0.74242  0.59110  0.17614  1.0000
  S   S407      1.0  0.71388  0.63346  0.18864  1.0000
  Fe  Fe205     1.0  0.89347  0.75843  0.17362  1.0000
  S   S408      1.0  0.89709  0.78380  0.19075  1.0000
  S   S409      1.0  0.90691  0.76023  0.14672  1.0000
  Fe  Fe206     1.0  0.86904  0.72798  0.20016  1.0000
  S   S410      1.0  0.85215  0.69520  0.20612  1.0000
  Fe  Fe207     1.0  0.86238  0.77755  0.20027  1.0000
  H   H1155     1.0  0.51607  0.55424  0.07795  1.0000
  Fe  Fe208     1.0  0.90670  0.75574  0.20887  1.0000
  H   H1156     1.0  0.52089  0.70220  0.19816  1.0000
  S   S411      1.0  0.85796  0.75417  0.18158  1.0000
  S   S412      1.0  0.90491  0.73040  0.19106  1.0000
  H   H1157     1.0  0.68208  0.71878  0.20697  1.0000
  C   C1150     1.0  0.87281  0.93987  0.09874  1.0000
  S   S413      1.0  0.99920  0.84962  0.05906  1.0000
  C   C1151     1.0  0.95370  0.84018  0.11497  1.0000
  H   H1158     1.0  0.88703  0.90095  0.08168  1.0000
  H   H1159     1.0  0.56172  0.61339  0.02756  1.0000
  C   C1152     1.0  0.60014  0.55108  0.98681  1.0000
  H   H1160     1.0  0.51668  0.64675  0.09231  1.0000
  H   H1161     1.0  0.58256  0.55330  0.98738  1.0000
  H   H1162     1.0  0.78599  0.78395  0.21204  1.0000
  H   H1163     1.0  0.52433  0.60734  0.09946  1.0000
  S   S414      1.0  0.83526  0.80408  0.20286  1.0000
  H   H1164     1.0  0.73574  0.64537  0.23296  1.0000
  H   H1165     1.0  0.99711  0.79924  0.21347  1.0000
  H   H1166     1.0  0.98473  0.89519  0.05933  1.0000
  C   C1153     1.0  0.66514  0.65969  0.21657  1.0000
  C   C1154     1.0  0.65042  0.67800  0.21486  1.0000
  H   H1167     1.0  0.72007  0.53541  0.17119  1.0000
  H   H1168     1.0  0.67264  0.65242  0.20585  1.0000
  H   H1169     1.0  0.64673  0.68471  0.20279  1.0000
  C   C1155     1.0  0.79326  0.66206  0.18962  1.0000
  C   C1156     1.0  0.80410  0.65297  0.20299  1.0000
  C   C1157     1.0  0.82148  0.66374  0.20822  1.0000
  C   C1158     1.0  0.82813  0.68395  0.20039  1.0000
  C   C1159     1.0  0.81666  0.69348  0.18746  1.0000
  C   C1160     1.0  0.79959  0.68250  0.18202  1.0000
  H   H1170     1.0  0.79966  0.63725  0.20896  1.0000
  H   H1171     1.0  0.83016  0.65610  0.21821  1.0000
  H   H1172     1.0  0.82143  0.70899  0.18129  1.0000
  H   H1173     1.0  0.79136  0.68981  0.17170  1.0000
  H   H1174     1.0  0.57477  0.60278  0.98856  1.0000
  C   C1161     1.0  0.60518  0.59778  0.02043  1.0000
  H   H1175     1.0  0.62830  0.51457  0.13179  1.0000
  C   C1162     1.0  0.73694  0.51538  0.21987  1.0000
  C   C1163     1.0  0.96659  0.83248  0.10160  1.0000
  C   C1164     1.0  0.67034  0.65112  0.23211  1.0000
  S   S415      1.0  0.62394  0.71202  0.22595  1.0000
  C   C1165     1.0  0.53775  0.76905  0.20768  1.0000
  C   C1166     1.0  0.67177  0.56927  0.11300  1.0000
  C   C1167     1.0  0.65443  0.58090  0.12107  1.0000
  C   C1168     1.0  0.65755  0.59082  0.13534  1.0000
  C   C1169     1.0  0.67796  0.58926  0.14179  1.0000
  C   C1170     1.0  0.69527  0.57749  0.13378  1.0000
  C   C1171     1.0  0.69213  0.56751  0.11953  1.0000
  H   H1176     1.0  0.63868  0.58249  0.11623  1.0000
  H   H1177     1.0  0.64406  0.59998  0.14135  1.0000
  H   H1178     1.0  0.71119  0.57645  0.13832  1.0000
  H   H1179     1.0  0.70572  0.55869  0.11335  1.0000
  C   C1172     1.0  0.61044  0.54776  0.00142  1.0000
  C   C1173     1.0  0.63321  0.54556  0.00086  1.0000
  H   H1180     1.0  0.60079  0.54734  0.01309  1.0000
  N   N94       1.0  0.58706  0.59928  0.01202  1.0000
  C   C1174     1.0  0.52026  0.57043  0.07280  1.0000
  C   C1175     1.0  0.54219  0.57585  0.07077  1.0000
  C   C1176     1.0  0.54771  0.59686  0.06444  1.0000
  C   C1177     1.0  0.53125  0.61232  0.05989  1.0000
  H   H1181     1.0  0.81316  0.76560  0.22966  1.0000
  H   H1182     1.0  0.64041  0.59574  0.01884  1.0000
  H   H1183     1.0  0.55478  0.56382  0.07433  1.0000
  H   H1184     1.0  0.53545  0.62858  0.05495  1.0000
  H   H1185     1.0  0.58040  0.73392  0.21693  1.0000
  C   C1178     1.0  0.90125  0.82233  0.11119  1.0000
  C   C1179     1.0  0.89221  0.82234  0.12750  1.0000
  C   C1180     1.0  0.89360  0.80341  0.13846  1.0000
  C   C1181     1.0  0.90381  0.78413  0.13314  1.0000
  C   C1182     1.0  0.91250  0.78396  0.11673  1.0000
  C   C1183     1.0  0.91140  0.80301  0.10582  1.0000
  H   H1186     1.0  0.88421  0.83715  0.13176  1.0000
  H   H1187     1.0  0.88677  0.80377  0.15102  1.0000
  H   H1188     1.0  0.92035  0.76909  0.11248  1.0000
  H   H1189     1.0  0.91829  0.80273  0.09327  1.0000
  C   C1184     1.0  0.90839  0.94941  0.05294  1.0000
  C   C1185     1.0  0.88769  0.94086  0.05502  1.0000
  C   C1186     1.0  0.86905  0.95469  0.05829  1.0000
  C   C1187     1.0  0.87115  0.97701  0.05956  1.0000
  C   C1188     1.0  0.89185  0.98545  0.05727  1.0000
  C   C1189     1.0  0.91035  0.97175  0.05381  1.0000
  H   H1190     1.0  0.88606  0.92364  0.05422  1.0000
  H   H1191     1.0  0.85306  0.94806  0.06007  1.0000
  C   C1190     1.0  0.96748  0.79651  0.11482  1.0000
  H   H1192     1.0  0.92633  0.97842  0.05231  1.0000
  C   C1191     1.0  0.96109  0.75379  0.23007  1.0000
  C   C1192     1.0  0.56514  0.73998  0.21215  1.0000
  H   H1193     1.0  0.51006  0.76055  0.19626  1.0000
  C   C1193     1.0  0.94788  0.82567  0.12852  1.0000
  H   H1194     1.0  0.64978  0.52932  0.22376  1.0000
  N   N95       1.0  0.53320  0.73354  0.19916  1.0000
  C   C1194     1.0  0.71011  0.69866  0.19859  1.0000
  C   C1195     1.0  0.65485  0.54761  0.20020  1.0000
  H   H1195     1.0  0.95529  0.83933  0.00163  1.0000
  H   H1196     1.0  0.93084  0.88854  0.99855  1.0000
  H   H1197     1.0  0.80394  0.83902  0.20943  1.0000
  N   N96       1.0  0.68838  0.53874  0.18423  1.0000
  C   C1196     1.0  0.75455  0.99110  0.22586  1.0000
  C   C1197     1.0  0.70360  0.54337  0.16971  1.0000
  C   C1198     1.0  0.93541  0.89627  0.98603  1.0000
  H   H1198     1.0  0.97124  0.84381  0.09113  1.0000
  H   H1199     1.0  0.53130  0.78554  0.20942  1.0000
  H   H1200     1.0  0.60354  0.59592  0.03366  1.0000
  H   H1201     1.0  0.93734  0.83126  0.13879  1.0000
  H   H1202     1.0  0.63994  0.55780  0.20178  1.0000
  N   N97       1.0  0.86125  0.67608  0.16509  1.0000
  C   C1199     1.0  0.84688  0.68400  0.15405  1.0000
  C   C1200     1.0  0.87886  0.68763  0.16719  1.0000
  C   C1201     1.0  0.84966  0.70428  0.14509  1.0000
  C   C1202     1.0  0.88239  0.70769  0.15815  1.0000
  C   C1203     1.0  0.86758  0.71616  0.14718  1.0000
  C   C1204     1.0  0.85848  0.65460  0.17412  1.0000
  H   H1203     1.0  0.83289  0.67486  0.15240  1.0000
  H   H1204     1.0  0.89012  0.68150  0.17607  1.0000
  H   H1205     1.0  0.83798  0.71078  0.13664  1.0000
  H   H1206     1.0  0.89644  0.71674  0.15971  1.0000
  H   H1207     1.0  0.87003  0.73197  0.14039  1.0000
  H   H1208     1.0  0.86324  0.65464  0.18678  1.0000
  H   H1209     1.0  0.84113  0.65018  0.17533  1.0000
  H   H1210     1.0  0.86867  0.64193  0.16779  1.0000
  C   C1205     1.0  0.77026  0.80301  0.23102  1.0000
  H   H1211     1.0  0.75872  0.81128  0.22311  1.0000
  C   C1206     1.0  0.69494  0.70691  0.21045  1.0000
  H   H1212     1.0  0.70860  0.51267  0.19441  1.0000
  H   H1213     1.0  0.97231  0.77929  0.11478  1.0000
  H   H1214     1.0  0.70937  0.70426  0.18578  1.0000
  S   S416      1.0  0.84810  0.99401  0.06494  1.0000
  N   N98       1.0  0.64383  0.50242  0.10994  1.0000
  H   H1215     1.0  0.94994  0.79222  0.13885  1.0000
  H   H1216     1.0  0.72656  0.91694  0.22617  1.0000
  C   C1207     1.0  0.97174  0.73431  0.22538  1.0000
  H   H1217     1.0  0.55872  0.70934  0.20377  1.0000
  H   H1218     1.0  0.75126  0.65027  0.21364  1.0000
  C   C1208     1.0  0.56546  0.59834  0.02117  1.0000
  H   H1219     1.0  0.66492  0.56357  0.17662  1.0000
  H   H1220     1.0  0.68442  0.50658  0.21988  1.0000
  C   C1209     1.0  0.55275  0.72614  0.20475  1.0000
  C   C1210     1.0  0.52577  0.75478  0.20035  1.0000
  C   C1211     1.0  0.55749  0.76154  0.21366  1.0000
  H   H1221     1.0  0.56648  0.77228  0.21988  1.0000
  N   N99       1.0  0.97308  0.81086  0.10157  1.0000
  C   C1212     1.0  0.66378  0.50022  0.10122  1.0000
  H   H1222     1.0  0.70590  0.56120  0.16764  1.0000
  H   H1223     1.0  0.56514  0.58409  0.03055  1.0000
  C   C1213     1.0  0.81246  0.83511  0.22027  1.0000
  H   H1224     1.0  0.94033  0.91307  0.98708  1.0000
  C   C1214     1.0  0.98607  0.80335  0.08713  1.0000
  C   C1215     1.0  0.82959  0.81898  0.22019  1.0000
  C   C1216     1.0  0.50932  0.60678  0.06171  1.0000
  C   C1217     1.0  0.62606  0.59805  0.01211  1.0000
  C   C1218     1.0  0.63937  0.51988  0.12088  1.0000
  C   C1219     1.0  0.66906  0.55082  0.18599  1.0000
  H   H1225     1.0  0.63166  0.53442  0.11425  1.0000
  N   N100      1.0  0.89151  0.92724  0.09557  1.0000
  C   C1220     1.0  0.62830  0.60018  0.99507  1.0000
  C   C1221     1.0  0.91122  0.93659  0.09247  1.0000
  H   H1226     1.0  0.97722  0.80774  0.07607  1.0000
  H   H1227     1.0  0.90558  0.89459  0.09721  1.0000
  H   H1228     1.0  0.50295  0.72444  0.19176  1.0000
  C   C1222     1.0  0.89019  0.90380  0.09428  1.0000
  C   C1223     1.0  0.70935  0.91229  0.22911  1.0000
  H   H1229     1.0  0.92588  0.92681  0.08895  1.0000
  C   C1224     1.0  0.74323  0.65837  0.22427  1.0000
  H   H1230     1.0  0.92820  0.96652  0.08999  1.0000
  H   H1231     1.0  0.66309  0.54412  0.98500  1.0000
  C   C1225     1.0  0.94560  0.83965  0.99137  1.0000
  H   H1232     1.0  0.65464  0.52496  0.12520  1.0000
  H   H1233     1.0  0.87696  0.89676  0.10297  1.0000
  H   H1234     1.0  0.89327  0.89013  0.99566  1.0000
  S   S417      1.0  0.87162  0.75122  0.21951  1.0000
  H   H1235     1.0  0.96371  0.72414  0.21809  1.0000
  C   C1226     1.0  0.52048  0.71873  0.19146  1.0000
  C   C1227     1.0  0.69593  0.69928  0.22682  1.0000
  H   H1236     1.0  0.73779  0.67647  0.19401  1.0000
  H   H1237     1.0  0.98950  0.78540  0.08821  1.0000
  C   C1228     1.0  0.64077  0.68787  0.22865  1.0000
  C   C1229     1.0  0.72605  0.68279  0.20332  1.0000
  H   H1238     1.0  0.85870  0.97257  0.10115  1.0000
  H   H1239     1.0  0.55234  0.59657  0.01317  1.0000
  C   C1230     1.0  0.58907  0.60182  0.99529  1.0000
  H   H1240     1.0  0.76141  0.98356  0.21506  1.0000
  C   C1231     1.0  0.66038  0.53167  0.21252  1.0000
  H   H1241     1.0  0.69717  0.53789  0.15878  1.0000
  S   S418      1.0  0.93449  0.76306  0.22431  1.0000
  C   C1232     1.0  0.89370  0.97206  0.09644  1.0000
  C   C1233     1.0  0.64547  0.54589  0.98555  1.0000
  C   C1234     1.0  0.95496  0.80373  0.12854  1.0000
  H   H1242     1.0  0.94782  0.85716  0.11466  1.0000
  C   C1235     1.0  0.67976  0.51890  0.21035  1.0000
  C   C1236     1.0  0.92293  0.84310  0.99376  1.0000
  C   C1237     1.0  0.69349  0.52251  0.19595  1.0000
  H   H1243     1.0  0.52706  0.71760  0.17855  1.0000
  C   C1238     1.0  0.50321  0.63653  0.09658  1.0000
  H   H1244     1.0  0.82290  0.99673  0.03189  1.0000
  C   C1239     1.0  0.78540  0.78736  0.22474  1.0000
  C   C1240     1.0  0.71180  0.68309  0.23108  1.0000
  H   H1245     1.0  0.67651  0.51118  0.10246  1.0000
  C   C1241     1.0  0.91265  0.95908  0.09302  1.0000
  C   C1242     1.0  0.99270  0.72776  0.23034  1.0000
  C   C1243     1.0  0.87362  0.96244  0.09928  1.0000
  N   N101      1.0  0.72652  0.67499  0.21937  1.0000
  H   H1246     1.0  0.64441  0.59944  0.98850  1.0000
  H   H1247     1.0  0.85707  0.93263  0.10046  1.0000
  C   C1244     1.0  0.60971  0.60229  0.98657  1.0000
  H   H1248     1.0  0.75599  0.66594  0.23010  1.0000
  H   H1249     1.0  0.70092  0.91418  0.21776  1.0000
  C   C1245     1.0  0.50375  0.58587  0.06834  1.0000
  H   H1250     1.0  0.70994  0.89475  0.23386  1.0000
  H   H1251     1.0  0.71225  0.95506  0.22980  1.0000
  H   H1252     1.0  0.81821  0.99965  0.00330  1.0000
  Fe  Fe209     1.0  0.85426  0.92359  0.41890  1.0000
  S   S419      1.0  0.87775  0.94992  0.41789  1.0000
  S   S420      1.0  0.84852  0.90378  0.44343  1.0000
  Fe  Fe210     1.0  0.84669  0.93224  0.38230  1.0000
  S   S421      1.0  0.86966  0.95979  0.37910  1.0000
  S   S422      1.0  0.83650  0.92330  0.35777  1.0000
  Fe  Fe211     1.0  0.89172  0.93779  0.39418  1.0000
  S   S423      1.0  0.92802  0.93834  0.38707  1.0000
  Fe  Fe212     1.0  0.85385  0.96948  0.40304  1.0000
  C   C1246     1.0  0.64553  0.67894  0.24420  1.0000
  S   S424      1.0  0.87017  0.90945  0.39608  1.0000
  S   S425      1.0  0.82884  0.94400  0.40546  1.0000
  C   C1247     1.0  0.53996  0.63466  0.32580  1.0000
  H   H1253     1.0  0.80730  0.91314  0.46101  1.0000
  Fe  Fe213     1.0  0.60709  0.72687  0.24830  1.0000
  S   S426      1.0  0.62147  0.72817  0.27202  1.0000
  Fe  Fe214     1.0  0.56423  0.75055  0.25964  1.0000
  S   S427      1.0  0.57575  0.75405  0.28456  1.0000
  Fe  Fe215     1.0  0.60845  0.76320  0.27130  1.0000
  S   S428      1.0  0.62922  0.78716  0.28247  1.0000
  Fe  Fe216     1.0  0.58834  0.71910  0.28377  1.0000
  S   S429      1.0  0.58904  0.69115  0.30399  1.0000
  S   S430      1.0  0.57495  0.71502  0.25985  1.0000
  Fe  Fe217     1.0  0.75217  0.89991  0.29570  1.0000
  S   S431      1.0  0.77968  0.90961  0.27709  1.0000
  S   S432      1.0  0.75207  0.90639  0.32256  1.0000
  Fe  Fe218     1.0  0.72777  0.87765  0.27102  1.0000
  S   S433      1.0  0.75414  0.88658  0.25094  1.0000
  S   S434      1.0  0.70197  0.85825  0.26076  1.0000
  Fe  Fe219     1.0  0.77801  0.87585  0.26917  1.0000
  H   H1254     1.0  0.74869  0.83651  0.24310  1.0000
  Fe  Fe220     1.0  0.75325  0.91990  0.26043  1.0000
  C   C1248     1.0  0.75490  0.82511  0.25307  1.0000
  S   S435      1.0  0.75205  0.86529  0.28885  1.0000
  S   S436      1.0  0.72537  0.91185  0.27942  1.0000
  Fe  Fe221     1.0  0.54176  0.65186  0.39326  1.0000
  S   S437      1.0  0.54755  0.61869  0.38416  1.0000
  S   S438      1.0  0.53956  0.68255  0.37556  1.0000
  Fe  Fe222     1.0  0.53304  0.63325  0.42920  1.0000
  S   S439      1.0  0.53802  0.59884  0.42249  1.0000
  S   S440      1.0  0.52016  0.63692  0.45570  1.0000
  Fe  Fe223     1.0  0.56647  0.61063  0.40592  1.0000
  S   S441      1.0  0.59664  0.58817  0.40514  1.0000
  C   C1249     1.0  0.97194  0.76660  0.23970  1.0000
  S   S442      1.0  0.56331  0.64475  0.41401  1.0000
  S   S443      1.0  0.51103  0.64311  0.40915  1.0000
  H   H1255     1.0  0.99372  0.81107  0.34766  1.0000
  C   C1250     1.0  0.59296  0.56270  0.39808  1.0000
  C   C1251     1.0  0.57421  0.55904  0.39068  1.0000
  C   C1252     1.0  0.57151  0.53852  0.38527  1.0000
  C   C1253     1.0  0.58720  0.52135  0.38768  1.0000
  C   C1254     1.0  0.60594  0.52504  0.39505  1.0000
  C   C1255     1.0  0.60889  0.54570  0.40010  1.0000
  H   H1256     1.0  0.56179  0.57201  0.38909  1.0000
  H   H1257     1.0  0.55698  0.53582  0.37956  1.0000
  H   H1258     1.0  0.54224  0.60087  0.33547  1.0000
  H   H1259     1.0  0.62346  0.54846  0.40575  1.0000
  C   C1256     1.0  0.53692  0.63535  0.47206  1.0000
  H   H1260     1.0  0.55288  0.55014  0.43238  1.0000
  C   C1257     1.0  0.85143  0.87592  0.33765  1.0000
  H   H1261     1.0  0.87116  0.86702  0.46800  1.0000
  C   C1258     1.0  0.55761  0.64387  0.47008  1.0000
  H   H1262     1.0  0.50370  0.53341  0.40321  1.0000
  H   H1263     1.0  0.56458  0.64963  0.45801  1.0000
  C   C1259     1.0  0.57506  0.68933  0.32379  1.0000
  C   C1260     1.0  0.55954  0.70537  0.32892  1.0000
  C   C1261     1.0  0.54899  0.70319  0.34489  1.0000
  C   C1262     1.0  0.55375  0.68494  0.35581  1.0000
  C   C1263     1.0  0.56927  0.66893  0.35066  1.0000
  C   C1264     1.0  0.57988  0.67115  0.33474  1.0000
  H   H1264     1.0  0.55570  0.71943  0.32060  1.0000
  H   H1265     1.0  0.53696  0.71563  0.34878  1.0000
  H   H1266     1.0  0.57308  0.65480  0.35894  1.0000
  H   H1267     1.0  0.59186  0.65864  0.33087  1.0000
  C   C1265     1.0  0.64993  0.80637  0.27602  1.0000
  C   C1266     1.0  0.66044  0.81557  0.28797  1.0000
  C   C1267     1.0  0.67656  0.83109  0.28362  1.0000
  C   C1268     1.0  0.68232  0.83796  0.26717  1.0000
  C   C1269     1.0  0.67184  0.82874  0.25522  1.0000
  C   C1270     1.0  0.65592  0.81303  0.25956  1.0000
  H   H1268     1.0  0.68426  0.83794  0.29304  1.0000
  H   H1269     1.0  0.71184  0.67651  0.24375  1.0000
  H   H1270     1.0  0.64805  0.80630  0.25017  1.0000
  H   H1271     1.0  0.51566  0.60644  0.35938  1.0000
  C   C1271     1.0  0.57706  0.51268  0.43175  1.0000
  H   H1272     1.0  0.77293  0.85815  0.32219  1.0000
  H   H1273     1.0  0.66932  0.96252  0.27327  1.0000
  H   H1274     1.0  0.61826  0.51207  0.39680  1.0000
  C   C1272     1.0  0.99297  0.76015  0.24454  1.0000
  C   C1273     1.0  0.66029  0.66067  0.24590  1.0000
  N   N102      1.0  0.69804  0.92605  0.24117  1.0000
  H   H1275     1.0  0.64709  0.50099  0.46845  1.0000
  Fe  Fe224     1.0  0.51852  0.60942  0.40141  1.0000
  H   H1276     1.0  0.65602  0.81071  0.30075  1.0000
  C   C1274     1.0  0.85529  0.98627  0.45273  1.0000
  C   C1275     1.0  0.82479  0.97811  0.47927  1.0000
  C   C1276     1.0  0.82701  0.86758  0.31772  1.0000
  H   H1277     1.0  0.83127  0.97648  0.43800  1.0000
  H   H1278     1.0  0.77859  0.86284  0.35094  1.0000
  C   C1277     1.0  0.81196  0.92187  0.34824  1.0000
  C   C1278     1.0  0.79164  0.91908  0.35712  1.0000
  C   C1279     1.0  0.77329  0.91512  0.34903  1.0000
  C   C1280     1.0  0.77501  0.91384  0.33199  1.0000
  C   C1281     1.0  0.79519  0.91730  0.32308  1.0000
  C   C1282     1.0  0.81346  0.92132  0.33115  1.0000
  H   H1279     1.0  0.79016  0.91937  0.37026  1.0000
  H   H1280     1.0  0.75776  0.91254  0.35606  1.0000
  H   H1281     1.0  0.79682  0.91651  0.31000  1.0000
  H   H1282     1.0  0.82900  0.92366  0.32409  1.0000
  C   C1283     1.0  0.94367  0.91491  0.39364  1.0000
  C   C1284     1.0  0.96630  0.91395  0.38951  1.0000
  C   C1285     1.0  0.97924  0.89560  0.39487  1.0000
  C   C1286     1.0  0.96950  0.87799  0.40418  1.0000
  C   C1287     1.0  0.94687  0.87887  0.40819  1.0000
  C   C1288     1.0  0.93398  0.89737  0.40303  1.0000
  H   H1283     1.0  0.97378  0.92735  0.38203  1.0000
  H   H1284     1.0  0.58667  0.52737  0.43180  1.0000
  H   H1285     1.0  0.93928  0.86530  0.41541  1.0000
  H   H1286     1.0  0.91655  0.89803  0.40632  1.0000
  C   C1289     1.0  0.84161  0.91731  0.46132  1.0000
  C   C1290     1.0  0.81988  0.91796  0.46799  1.0000
  C   C1291     1.0  0.67330  0.93012  0.26519  1.0000
  S   S444      1.0  0.59593  0.76253  0.24654  1.0000
  H   H1287     1.0  0.51279  0.68248  0.46972  1.0000
  N   N103      1.0  0.51081  0.64073  0.35309  1.0000
  H   H1288     1.0  0.76275  0.83523  0.26104  1.0000
  N   N104      1.0  0.61936  0.72396  0.32459  1.0000
  C   C1292     1.0  0.60689  0.72072  0.33919  1.0000
  C   C1293     1.0  0.61827  0.74373  0.31553  1.0000
  C   C1294     1.0  0.59222  0.73723  0.34473  1.0000
  C   C1295     1.0  0.60380  0.76060  0.32071  1.0000
  C   C1296     1.0  0.59058  0.75724  0.33535  1.0000
  C   C1297     1.0  0.63465  0.70649  0.31894  1.0000
  H   H1289     1.0  0.60773  0.70506  0.34641  1.0000
  H   H1290     1.0  0.62848  0.74652  0.30413  1.0000
  H   H1291     1.0  0.58186  0.73428  0.35606  1.0000
  H   H1292     1.0  0.60277  0.77612  0.31328  1.0000
  H   H1293     1.0  0.57906  0.77010  0.33936  1.0000
  H   H1294     1.0  0.62880  0.69014  0.32365  1.0000
  H   H1295     1.0  0.63589  0.70683  0.30539  1.0000
  H   H1296     1.0  0.65101  0.70831  0.32299  1.0000
  H   H1297     1.0  0.87578  0.99483  0.47043  1.0000
  H   H1298     1.0  0.95946  0.95648  0.40791  1.0000
  C   C1298     1.0  0.54819  0.50328  0.41562  1.0000
  C   C1299     1.0  0.51563  0.65807  0.34197  1.0000
  N   N105      1.0  0.77061  0.80845  0.24667  1.0000
  C   C1300     1.0  0.52668  0.54369  0.41849  1.0000
  C   C1301     1.0  0.96224  0.97349  0.40260  1.0000
  C   C1302     1.0  0.86412  0.86961  0.48030  1.0000
  C   C1303     1.0  0.98091  0.83325  0.37373  1.0000
  H   H1299     1.0  0.72106  0.50548  0.26056  1.0000
  N   N106      1.0  0.55677  0.51827  0.42404  1.0000
  N   N107      1.0  0.84495  0.98465  0.48167  1.0000
  H   H1300     1.0  0.99652  0.94476  0.40053  1.0000
  H   H1301     1.0  0.95615  0.97546  0.39029  1.0000
  H   H1302     1.0  0.83118  0.86638  0.47472  1.0000
  H   H1303     1.0  0.73713  0.97812  0.26574  1.0000
  H   H1304     1.0  0.80411  0.86138  0.30073  1.0000
  H   H1305     1.0  0.97066  0.83481  0.36331  1.0000
  C   C1304     1.0  0.74088  0.98796  0.25435  1.0000
  H   H1306     1.0  0.63808  0.68627  0.25492  1.0000
  C   C1305     1.0  0.83415  0.82493  0.24830  1.0000
  C   C1306     1.0  0.81296  0.86820  0.34553  1.0000
  H   H1307     1.0  0.80387  0.96911  0.46176  1.0000
  H   H1308     1.0  0.66412  0.65407  0.25797  1.0000
  H   H1309     1.0  0.84037  0.86958  0.30821  1.0000
  S   S445      1.0  0.53085  0.76475  0.25182  1.0000
  H   H1310     1.0  0.85189  0.87677  0.35101  1.0000
  C   C1307     1.0  0.81961  0.97496  0.46357  1.0000
  H   H1311     1.0  0.74076  0.81731  0.26022  1.0000
  C   C1308     1.0  0.80062  0.78230  0.25071  1.0000
  H   H1312     1.0  0.85526  0.89237  0.33168  1.0000
  H   H1313     1.0  0.84255  0.82083  0.25918  1.0000
  S   S446      1.0  0.98527  0.85456  0.41060  1.0000
  H   H1314     1.0  0.57340  0.50537  0.44447  1.0000
  H   H1315     1.0  0.53433  0.66916  0.31949  1.0000
  C   C1309     1.0  0.80655  0.86289  0.31340  1.0000
  C   C1310     1.0  0.78910  0.86087  0.32545  1.0000
  C   C1311     1.0  0.81662  0.84063  0.24850  1.0000
  N   N108      1.0  0.82999  0.87018  0.33362  1.0000
  H   H1316     1.0  0.68090  0.89988  0.25446  1.0000
  H   H1317     1.0  0.55180  0.63250  0.31537  1.0000
  N   N109      1.0  0.99763  0.81533  0.37257  1.0000
  C   C1312     1.0  0.54611  0.53819  0.42573  1.0000
  C   C1313     1.0  0.68385  0.91716  0.25347  1.0000
  H   H1318     1.0  0.81502  0.87121  0.35800  1.0000
  S   S447      1.0  0.75503  0.94899  0.24069  1.0000
  C   C1314     1.0  0.53466  0.61698  0.33708  1.0000
  C   C1315     1.0  0.83503  0.97897  0.45025  1.0000
  H   H1319     1.0  0.87477  0.92196  0.46583  1.0000
  C   C1316     1.0  0.51834  0.52887  0.40933  1.0000
  H   H1320     1.0  0.67599  0.83384  0.24245  1.0000
  H   H1321     1.0  0.96985  0.83053  0.38515  1.0000
  H   H1322     1.0  0.98877  0.84895  0.37409  1.0000
  H   H1323     1.0  0.58775  0.50079  0.42489  1.0000
  H   H1324     1.0  0.52363  0.72165  0.24081  1.0000
  H   H1325     1.0  0.72760  0.53620  0.23912  1.0000
  H   H1326     1.0  0.89176  0.99092  0.39890  1.0000
  C   C1317     1.0  0.86000  0.98911  0.46862  1.0000
  C   C1318     1.0  0.78536  0.79815  0.25656  1.0000
  H   H1327     1.0  0.78596  0.80281  0.26885  1.0000
  H   H1328     1.0  0.50870  0.67431  0.34402  1.0000
  H   H1329     1.0  0.81293  0.77487  0.25832  1.0000
  S   S448      1.0  0.80760  0.85219  0.26694  1.0000
  C   C1319     1.0  0.79230  0.86344  0.34163  1.0000
  C   C1320     1.0  0.85785  0.92296  0.47076  1.0000
  H   H1330     1.0  0.86428  0.86372  0.33352  1.0000
  C   C1321     1.0  0.74989  0.97789  0.24055  1.0000
  H   H1331     1.0  0.99668  0.89498  0.39166  1.0000
  C   C1322     1.0  0.72598  0.50200  0.24809  1.0000
  C   C1323     1.0  0.51971  0.62027  0.35063  1.0000
  C   C1324     1.0  0.80070  0.77702  0.23465  1.0000
  S   S449      1.0  0.69035  0.62952  0.23476  1.0000
  N   N110      1.0  0.98540  0.97822  0.40133  1.0000
  C   C1325     1.0  0.51017  0.73283  0.23763  1.0000
  C   C1326     1.0  0.52909  0.50845  0.40791  1.0000
  C   C1327     1.0  0.72972  0.51952  0.23594  1.0000
  H   H1332     1.0  0.66251  0.92286  0.27515  1.0000
  H   H1333     1.0  0.95228  0.98453  0.41064  1.0000
  H   H1334     1.0  0.79258  0.85808  0.23432  1.0000
  C   C1328     1.0  0.50940  0.75426  0.24209  1.0000
  H   H1335     1.0  0.58453  0.65327  0.48227  1.0000
  C   C1329     1.0  0.70127  0.94794  0.23971  1.0000
  C   C1330     1.0  0.53015  0.65528  0.32811  1.0000
  H   H1336     1.0  0.86721  0.98971  0.44234  1.0000
  H   H1337     1.0  0.69429  0.97861  0.25027  1.0000
  H   H1338     1.0  0.96393  0.78164  0.24350  1.0000
  H   H1339     1.0  0.51825  0.55950  0.41965  1.0000
  H   H1340     1.0  0.68384  0.70519  0.23607  1.0000
  C   C1331     1.0  0.51024  0.67983  0.48295  1.0000
  C   C1332     1.0  0.80596  0.84589  0.23436  1.0000
  C   C1333     1.0  0.67711  0.95234  0.26412  1.0000
  C   C1334     1.0  0.99121  0.99942  0.40051  1.0000
  C   C1335     1.0  0.69107  0.96138  0.25124  1.0000
  C   C1336     1.0  0.56882  0.64606  0.48387  1.0000
  H   H1341     1.0  0.85389  0.80175  0.23426  1.0000
  C   C1337     1.0  0.84064  0.81412  0.23420  1.0000
  Fe  Fe225     1.0  0.84371  0.93829  0.53434  1.0000
  S   S450      1.0  0.87851  0.94672  0.52948  1.0000
  S   S451      1.0  0.82249  0.93281  0.51432  1.0000
  Fe  Fe226     1.0  0.84285  0.94263  0.57146  1.0000
  S   S452      1.0  0.87815  0.95155  0.56907  1.0000
  S   S453      1.0  0.82060  0.94694  0.59498  1.0000
  Fe  Fe227     1.0  0.86993  0.97269  0.54657  1.0000
  Fe  Fe228     1.0  0.88369  0.92478  0.55220  1.0000
  S   S454      1.0  0.91253  0.90055  0.54950  1.0000
  S   S455      1.0  0.83449  0.96596  0.54989  1.0000
  S   S456      1.0  0.84906  0.91413  0.55604  1.0000
  H   H1342     1.0  0.83879  0.88345  0.52293  1.0000
  H   H1343     1.0  0.86769  0.98415  0.49969  1.0000
  Fe  Fe229     1.0  0.61304  0.75926  0.69080  1.0000
  S   S457      1.0  0.59645  0.75545  0.71637  1.0000
  S   S458      1.0  0.64376  0.77934  0.68357  1.0000
  Fe  Fe230     1.0  0.58752  0.72138  0.68010  1.0000
  S   S459      1.0  0.57028  0.71526  0.70539  1.0000
  S   S460      1.0  0.57767  0.69566  0.66409  1.0000
  Fe  Fe231     1.0  0.56523  0.75152  0.70495  1.0000
  S   S461      1.0  0.53226  0.76824  0.71339  1.0000
  Fe  Fe232     1.0  0.60267  0.71933  0.71467  1.0000
  C   C1338     1.0  0.88776  0.68397  0.73186  1.0000
  S   S462      1.0  0.58120  0.75802  0.67912  1.0000
  S   S463      1.0  0.62044  0.72285  0.68968  1.0000
  Fe  Fe233     1.0  0.72170  0.88016  0.69797  1.0000
  S   S464      1.0  0.68708  0.86766  0.69776  1.0000
  Fe  Fe234     1.0  0.76657  0.88827  0.67920  1.0000
  S   S465      1.0  0.78001  0.90080  0.70069  1.0000
  S   S466      1.0  0.78716  0.88076  0.65563  1.0000
  Fe  Fe235     1.0  0.76313  0.87346  0.71574  1.0000
  C   C1339     1.0  0.63947  0.50778  0.50907  1.0000
  Fe  Fe236     1.0  0.74785  0.92032  0.70416  1.0000
  C   C1340     1.0  0.60934  0.65146  0.63409  1.0000
  S   S467      1.0  0.75227  0.85895  0.69415  1.0000
  S   S468      1.0  0.73524  0.90898  0.68163  1.0000
  Fe  Fe237     1.0  0.55029  0.60991  0.57391  1.0000
  S   S469      1.0  0.57558  0.63399  0.56489  1.0000
  S   S470      1.0  0.55714  0.57722  0.58767  1.0000
  N   N111      1.0  0.51532  0.53556  0.56616  1.0000
  S   S471      1.0  0.53536  0.66682  0.55350  1.0000
  Fe  Fe238     1.0  0.55674  0.64011  0.54268  1.0000
  S   S472      1.0  0.57290  0.64518  0.51680  1.0000
  Fe  Fe239     1.0  0.55197  0.65859  0.57663  1.0000
  S   S473      1.0  0.56482  0.68602  0.58935  1.0000
  S   S474      1.0  0.53361  0.61375  0.55080  1.0000
  S   S475      1.0  0.52763  0.63399  0.58698  1.0000
  C   C1341     1.0  0.80270  0.80834  0.70617  1.0000
  C   C1342     1.0  0.57641  0.55915  0.57813  1.0000
  C   C1343     1.0  0.57942  0.53775  0.58532  1.0000
  H   H1344     1.0  0.92470  0.97445  0.55210  1.0000
  C   C1344     1.0  0.60668  0.52932  0.56320  1.0000
  C   C1345     1.0  0.60378  0.55079  0.55607  1.0000
  C   C1346     1.0  0.58850  0.56562  0.56342  1.0000
  H   H1345     1.0  0.57010  0.53267  0.59670  1.0000
  N   N112      1.0  0.86824  0.87887  0.50743  1.0000
  H   H1346     1.0  0.61332  0.55595  0.54481  1.0000
  H   H1347     1.0  0.58625  0.58208  0.55776  1.0000
  C   C1347     1.0  0.55948  0.63975  0.49971  1.0000
  H   H1348     1.0  0.53193  0.62522  0.51372  1.0000
  C   C1348     1.0  0.53923  0.63030  0.50162  1.0000
  C   C1349     1.0  0.57197  0.69480  0.64345  1.0000
  C   C1350     1.0  0.56170  0.67659  0.63927  1.0000
  C   C1351     1.0  0.55864  0.67399  0.62286  1.0000
  C   C1352     1.0  0.56588  0.68960  0.61040  1.0000
  C   C1353     1.0  0.57555  0.70814  0.61464  1.0000
  C   C1354     1.0  0.57854  0.71079  0.63106  1.0000
  H   H1349     1.0  0.55651  0.66414  0.64876  1.0000
  H   H1350     1.0  0.55109  0.65971  0.61982  1.0000
  H   H1351     1.0  0.58117  0.72035  0.60510  1.0000
  H   H1352     1.0  0.58649  0.72487  0.63404  1.0000
  C   C1355     1.0  0.65565  0.80345  0.68871  1.0000
  C   C1356     1.0  0.64344  0.82015  0.69639  1.0000
  C   C1357     1.0  0.65339  0.83941  0.69922  1.0000
  C   C1358     1.0  0.67582  0.84220  0.69483  1.0000
  C   C1359     1.0  0.68816  0.82525  0.68753  1.0000
  C   C1360     1.0  0.67810  0.80620  0.68436  1.0000
  H   H1353     1.0  0.62617  0.81854  0.69974  1.0000
  H   H1354     1.0  0.64355  0.85234  0.70481  1.0000
  H   H1355     1.0  0.70537  0.82695  0.68403  1.0000
  H   H1356     1.0  0.68779  0.79353  0.67836  1.0000
  H   H1357     1.0  0.60390  0.64945  0.58815  1.0000
  H   H1358     1.0  0.87452  0.88231  0.53211  1.0000
  H   H1359     1.0  0.58632  0.60083  0.61529  1.0000
  H   H1360     1.0  0.63094  0.51839  0.51767  1.0000
  H   H1361     1.0  0.52068  0.72252  0.72074  1.0000
  C   C1361     1.0  0.59431  0.52280  0.57777  1.0000
  C   C1362     1.0  0.84160  0.86926  0.48408  1.0000
  H   H1362     1.0  0.62411  0.68218  0.62719  1.0000
  C   C1363     1.0  0.64949  0.67804  0.71938  1.0000
  C   C1364     1.0  0.66888  0.66478  0.71831  1.0000
  H   H1363     1.0  0.64368  0.68661  0.70847  1.0000
  H   H1364     1.0  0.67789  0.66325  0.70651  1.0000
  H   H1365     1.0  0.51205  0.62147  0.48949  1.0000
  N   N113      1.0  0.98054  0.84001  0.57317  1.0000
  C   C1365     1.0  0.83249  0.87386  0.49960  1.0000
  N   N114      1.0  0.59815  0.63317  0.61207  1.0000
  H   H1366     1.0  0.79060  0.82195  0.70902  1.0000
  C   C1366     1.0  0.99552  0.82728  0.58152  1.0000
  C   C1367     1.0  0.81170  0.92814  0.61173  1.0000
  C   C1368     1.0  0.79827  0.93603  0.62493  1.0000
  C   C1369     1.0  0.79079  0.92185  0.63852  1.0000
  C   C1370     1.0  0.79663  0.89951  0.63905  1.0000
  C   C1371     1.0  0.80989  0.89156  0.62579  1.0000
  C   C1372     1.0  0.81744  0.90577  0.61223  1.0000
  H   H1367     1.0  0.79373  0.95330  0.62469  1.0000
  H   H1368     1.0  0.78060  0.92824  0.64859  1.0000
  H   H1369     1.0  0.81445  0.87431  0.62603  1.0000
  H   H1370     1.0  0.82771  0.89942  0.60219  1.0000
  C   C1373     1.0  0.93734  0.90825  0.55554  1.0000
  C   C1374     1.0  0.95701  0.89903  0.54859  1.0000
  C   C1375     1.0  0.97704  0.90449  0.55340  1.0000
  C   C1376     1.0  0.97753  0.91895  0.56541  1.0000
  C   C1377     1.0  0.95784  0.92817  0.57239  1.0000
  C   C1378     1.0  0.93779  0.92297  0.56738  1.0000
  H   H1371     1.0  0.95676  0.88797  0.53921  1.0000
  H   H1372     1.0  0.59655  0.50638  0.58344  1.0000
  H   H1373     1.0  0.95807  0.93930  0.58174  1.0000
  H   H1374     1.0  0.92269  0.92992  0.57298  1.0000
  C   C1379     1.0  0.50464  0.67037  0.51655  1.0000
  C   C1380     1.0  0.74448  0.97782  0.72106  1.0000
  C   C1381     1.0  0.58682  0.61552  0.60637  1.0000
  H   H1375     1.0  0.53037  0.76772  0.67500  1.0000
  H   H1376     1.0  0.91297  0.69925  0.71546  1.0000
  H   H1377     1.0  0.62761  0.52592  0.48777  1.0000
  N   N115      1.0  0.70151  0.89675  0.65395  1.0000
  C   C1382     1.0  0.70982  0.87561  0.65549  1.0000
  C   C1383     1.0  0.71295  0.91248  0.64451  1.0000
  C   C1384     1.0  0.72979  0.86966  0.64709  1.0000
  C   C1385     1.0  0.73297  0.90707  0.63592  1.0000
  C   C1386     1.0  0.74126  0.88547  0.63711  1.0000
  C   C1387     1.0  0.68104  0.90293  0.66340  1.0000
  H   H1378     1.0  0.70115  0.86329  0.66343  1.0000
  H   H1379     1.0  0.70684  0.92940  0.64383  1.0000
  C   C1388     1.0  0.52271  0.68173  0.50953  1.0000
  C   C1389     1.0  0.84612  0.87886  0.51116  1.0000
  H   H1380     1.0  0.74489  0.58174  0.71398  1.0000
  H   H1381     1.0  0.67161  0.91610  0.65657  1.0000
  H   H1382     1.0  0.67045  0.88881  0.66626  1.0000
  H   H1383     1.0  0.68462  0.90858  0.67520  1.0000
  H   H1384     1.0  0.96030  0.84867  0.59431  1.0000
  Fe  Fe240     1.0  0.51315  0.63996  0.56289  1.0000
  C   C1390     1.0  0.61579  0.66714  0.60627  1.0000
  C   C1391     1.0  0.50811  0.75564  0.72243  1.0000
  H   H1385     1.0  0.86501  0.93204  0.49434  1.0000
  H   H1386     1.0  0.94549  0.96691  0.53643  1.0000
  H   H1387     1.0  0.74229  0.91956  0.62866  1.0000
  C   C1392     1.0  0.68400  0.72154  0.71633  1.0000
  H   H1388     1.0  0.59516  0.61019  0.59473  1.0000
  C   C1393     1.0  0.90763  0.69379  0.72803  1.0000
  C   C1394     1.0  0.69837  0.53842  0.71661  1.0000
  C   C1395     1.0  0.98800  0.77069  0.72572  1.0000
  C   C1396     1.0  0.51977  0.71460  0.67313  1.0000
  C   C1397     1.0  0.97247  0.97831  0.55621  1.0000
  C   C1398     1.0  0.87729  0.87454  0.49218  1.0000
  H   H1389     1.0  0.56978  0.62119  0.60429  1.0000
  H   H1390     1.0  0.64524  0.76299  0.71661  1.0000
  H   H1391     1.0  0.76736  0.99980  0.70795  1.0000
  S   S476      1.0  0.75218  0.95656  0.70787  1.0000
  C   C1399     1.0  0.53432  0.52281  0.56587  1.0000
  H   H1392     1.0  0.81492  0.87457  0.50244  1.0000
  H   H1393     1.0  0.52752  0.69950  0.66906  1.0000
  C   C1400     1.0  0.67808  0.54661  0.72305  1.0000
  H   H1394     1.0  0.96936  0.85038  0.54986  1.0000
  H   H1395     1.0  0.73658  0.85300  0.64856  1.0000
  H   H1396     1.0  0.99658  0.82684  0.53475  1.0000
  C   C1401     1.0  0.93811  0.98071  0.54321  1.0000
  C   C1402     1.0  0.96580  0.85563  0.58177  1.0000
  H   H1397     1.0  0.73249  0.59171  0.69545  1.0000
  C   C1403     1.0  0.53119  0.73365  0.67080  1.0000
  S   S477      1.0  0.73173  0.89342  0.72064  1.0000
  C   C1404     1.0  0.71503  0.55276  0.71184  1.0000
  H   H1398     1.0  0.77168  0.79843  0.73011  1.0000
  H   H1399     1.0  0.81538  0.86059  0.71633  1.0000
  H   H1400     1.0  0.53999  0.69426  0.48695  1.0000
  C   C1405     1.0  0.60597  0.64951  0.60104  1.0000
  C   C1406     1.0  0.84014  0.83847  0.72661  1.0000
  H   H1401     1.0  0.69623  0.71374  0.70812  1.0000
  H   H1402     1.0  0.79740  0.80013  0.69595  1.0000
  H   H1403     1.0  0.89802  0.87526  0.51889  1.0000
  C   C1407     1.0  0.72970  0.58903  0.70895  1.0000
  C   C1408     1.0  0.61743  0.66811  0.62290  1.0000
  H   H1404     1.0  0.59261  0.62161  0.63726  1.0000
  C   C1409     1.0  0.88226  0.88505  0.51939  1.0000
  N   N116      1.0  0.80471  0.79257  0.72050  1.0000
  C   C1410     1.0  0.82404  0.78084  0.72238  1.0000
  C   C1411     1.0  0.78693  0.78893  0.73150  1.0000
  C   C1412     1.0  0.50661  0.73295  0.72430  1.0000
  N   N117      1.0  0.95421  0.99037  0.55192  1.0000
  H   H1405     1.0  0.87737  0.68183  0.72234  1.0000
  C   C1413     1.0  0.75534  0.99752  0.71835  1.0000
  C   C1414     1.0  0.63769  0.51203  0.49233  1.0000
  H   H1406     1.0  0.81846  0.81592  0.70213  1.0000
  H   H1407     1.0  0.60969  0.65263  0.64711  1.0000
  C   C1415     1.0  0.59956  0.63406  0.62844  1.0000
  H   H1408     1.0  0.83824  0.78389  0.71380  1.0000
  H   H1409     1.0  0.54769  0.73339  0.66487  1.0000
  H   H1410     1.0  0.97594  0.96205  0.55232  1.0000
  H   H1411     1.0  0.72637  0.60514  0.71396  1.0000
  H   H1412     1.0  0.88727  0.99719  0.57150  1.0000
  H   H1413     1.0  0.67360  0.74617  0.69787  1.0000
  H   H1414     1.0  0.53494  0.68607  0.51708  1.0000
  C   C1416     1.0  0.85238  0.92839  0.48697  1.0000
  C   C1417     1.0  0.65514  0.74905  0.72123  1.0000
  C   C1418     1.0  0.83062  0.92817  0.49374  1.0000
  H   H1415     1.0  0.54996  0.53020  0.56348  1.0000
  C   C1419     1.0  0.81441  0.92351  0.48402  1.0000
  C   C1420     1.0  0.67128  0.73962  0.71057  1.0000
  H   H1416     1.0  0.73095  0.54625  0.70722  1.0000
  H   H1417     1.0  0.76365  0.51367  0.71502  1.0000
  N   N118      1.0  0.71168  0.57458  0.71364  1.0000
  H   H1418     1.0  0.88569  0.90259  0.51693  1.0000
  C   C1421     1.0  0.52802  0.62812  0.48785  1.0000
  H   H1419     1.0  0.89472  0.87537  0.48900  1.0000
  H   H1420     1.0  0.97437  0.87079  0.58261  1.0000
  H   H1421     1.0  0.79756  0.92334  0.48913  1.0000
  H   H1422     1.0  0.75693  0.88112  0.63071  1.0000
  H   H1423     1.0  0.99211  0.89779  0.54756  1.0000
  C   C1422     1.0  0.98688  0.98664  0.56582  1.0000
  H   H1424     1.0  0.93085  0.99303  0.53426  1.0000
  C   C1423     1.0  0.69159  0.58286  0.71939  1.0000
  C   C1424     1.0  0.75076  0.50665  0.72337  1.0000
  H   H1425     1.0  0.51450  0.56602  0.57619  1.0000
  H   H1426     1.0  0.70141  0.52101  0.71569  1.0000
  C   C1425     1.0  0.51607  0.55940  0.56405  1.0000
  H   H1427     1.0  0.62106  0.68050  0.59751  1.0000
  H   H1428     1.0  0.85290  0.84350  0.71729  1.0000
  C   C1426     1.0  0.85008  0.98786  0.49823  1.0000
  H   H1429     1.0  0.68873  0.60020  0.72054  1.0000
  S   S478      1.0  0.62603  0.51107  0.55382  1.0000
  H   H1430     1.0  0.50271  0.56688  0.55689  1.0000
  C   C1427     1.0  0.98063  0.83970  0.55660  1.0000
  S   S479      1.0  0.70197  0.63850  0.73043  1.0000
  H   H1431     1.0  0.81280  0.97466  0.48960  1.0000
  H   H1432     1.0  0.98573  0.78538  0.71764  1.0000
  C   C1428     1.0  0.67456  0.56901  0.72434  1.0000
  C   C1429     1.0  0.52554  0.68637  0.49261  1.0000
  C   C1430     1.0  0.81894  0.84822  0.72607  1.0000
  H   H1433     1.0  0.84090  0.97680  0.50756  1.0000
  H   H1434     1.0  0.95096  0.86013  0.57528  1.0000
  H   H1435     1.0  0.50274  0.66636  0.52968  1.0000
  H   H1436     1.0  0.53177  0.56459  0.55744  1.0000
  C   C1431     1.0  0.99597  0.82638  0.54797  1.0000
  H   H1437     1.0  0.66517  0.53560  0.72712  1.0000
  C   C1432     1.0  0.52138  0.75295  0.67626  1.0000
  H   H1438     1.0  0.79341  0.95671  0.73054  1.0000
  H   H1439     1.0  0.99631  0.82831  0.59450  1.0000
  C   C1433     1.0  0.68048  0.71314  0.73261  1.0000
  C   C1434     1.0  0.67682  0.65378  0.73239  1.0000
  H   H1440     1.0  0.65889  0.57563  0.72936  1.0000
  C   C1435     1.0  0.53389  0.50007  0.56862  1.0000
  C   C1436     1.0  0.50009  0.75298  0.68386  1.0000
  Fe  Fe241     1.0  0.91134  0.87719  0.90288  1.0000
  S   S480      1.0  0.91352  0.84048  0.90793  1.0000
  S   S481      1.0  0.88153  0.89879  0.90946  1.0000
  Fe  Fe242     1.0  0.95924  0.88015  0.89157  1.0000
  S   S482      1.0  0.96538  0.84404  0.89572  1.0000
  H   H1441     1.0  0.71825  0.51717  0.75767  1.0000
  Fe  Fe243     1.0  0.93441  0.84121  0.88373  1.0000
  S   S483      1.0  0.93879  0.81704  0.86397  1.0000
  Fe  Fe244     1.0  0.94408  0.84642  0.91931  1.0000
  S   S484      1.0  0.95640  0.83072  0.94293  1.0000
  S   S485      1.0  0.92981  0.87758  0.87797  1.0000
  S   S486      1.0  0.94040  0.88278  0.91587  1.0000
  C   C1437     1.0  0.97256  0.74371  0.74657  1.0000
  Fe  Fe245     1.0  0.59124  0.55013  0.89605  1.0000
  S   S487      1.0  0.61016  0.57504  0.90580  1.0000
  S   S488      1.0  0.56186  0.55685  0.88189  1.0000
  C   C1438     1.0  0.87173  0.97977  0.86416  1.0000
  S   S489      1.0  0.64302  0.53409  0.91838  1.0000
  Fe  Fe246     1.0  0.61160  0.55088  0.92814  1.0000
  S   S490      1.0  0.59905  0.55994  0.95363  1.0000
  Fe  Fe247     1.0  0.63967  0.55604  0.89509  1.0000
  S   S491      1.0  0.66862  0.57218  0.88057  1.0000
  S   S492      1.0  0.59036  0.52733  0.91886  1.0000
  S   S493      1.0  0.62049  0.53285  0.88378  1.0000
  Fe  Fe248     1.0  0.71611  0.61720  0.75128  1.0000
  S   S494      1.0  0.71938  0.62493  0.77695  1.0000
  N   N119      1.0  0.68881  0.51690  0.87732  1.0000
  Fe  Fe249     1.0  0.74062  0.57209  0.75536  1.0000
  S   S495      1.0  0.74659  0.57686  0.78139  1.0000
  H   H1442     1.0  0.90759  0.90625  0.93590  1.0000
  Fe  Fe250     1.0  0.71148  0.58978  0.78423  1.0000
  S   S496      1.0  0.68395  0.57740  0.80288  1.0000
  Fe  Fe251     1.0  0.75441  0.61198  0.77240  1.0000
  S   S497      1.0  0.78250  0.62898  0.78204  1.0000
  S   S498      1.0  0.70536  0.58328  0.75863  1.0000
  Fe  Fe252     1.0  0.88394  0.76462  0.79247  1.0000
  S   S499      1.0  0.90691  0.78058  0.77273  1.0000
  S   S500      1.0  0.87666  0.77764  0.81761  1.0000
  Fe  Fe253     1.0  0.86656  0.73414  0.76916  1.0000
  S   S501      1.0  0.88912  0.74818  0.74799  1.0000
  S   S502      1.0  0.84152  0.71195  0.76085  1.0000
  Fe  Fe254     1.0  0.91530  0.74672  0.76525  1.0000
  S   S503      1.0  0.95030  0.73257  0.75966  1.0000
  Fe  Fe255     1.0  0.87905  0.78087  0.75702  1.0000
  C   C1439     1.0  0.90442  0.90262  0.94900  1.0000
  S   S504      1.0  0.89360  0.73019  0.78609  1.0000
  S   S505      1.0  0.85534  0.76731  0.77709  1.0000
  C   C1440     1.0  0.51230  0.52797  0.90415  1.0000
  H   H1443     1.0  0.88875  0.97488  0.86115  1.0000
  H   H1444     1.0  0.75138  0.97859  0.78097  1.0000
  H   H1445     1.0  0.70790  0.54139  0.88473  1.0000
  C   C1441     1.0  0.50626  0.59482  0.88683  1.0000
  H   H1446     1.0  0.89300  0.84561  0.98209  1.0000
  H   H1447     1.0  0.51804  0.51481  0.89671  1.0000
  H   H1448     1.0  0.58377  0.59393  0.85363  1.0000
  C   C1442     1.0  0.61975  0.60397  0.83514  1.0000
  H   H1449     1.0  0.86537  0.67011  0.75110  1.0000
  C   C1443     1.0  0.68331  0.51400  0.84920  1.0000
  H   H1450     1.0  0.51812  0.56695  0.87402  1.0000
  H   H1451     1.0  0.63914  0.75031  0.76052  1.0000
  H   H1452     1.0  0.80931  0.74926  0.75735  1.0000
  H   H1453     1.0  0.67107  0.64745  0.75850  1.0000
  H   H1454     1.0  0.74641  0.94274  0.77091  1.0000
  H   H1455     1.0  0.93794  0.90371  0.95366  1.0000
  C   C1444     1.0  0.79820  0.65256  0.77599  1.0000
  C   C1445     1.0  0.79763  0.66444  0.76067  1.0000
  C   C1446     1.0  0.81084  0.68252  0.75637  1.0000
  C   C1447     1.0  0.82470  0.68928  0.76733  1.0000
  C   C1448     1.0  0.82513  0.67755  0.78270  1.0000
  C   C1449     1.0  0.81213  0.65930  0.78691  1.0000
  H   H1456     1.0  0.78714  0.65954  0.75206  1.0000
  C   C1450     1.0  0.64568  0.66920  0.74866  1.0000
  H   H1457     1.0  0.83537  0.68250  0.79143  1.0000
  H   H1458     1.0  0.81274  0.65037  0.79881  1.0000
  C   C1451     1.0  0.63196  0.61171  0.86026  1.0000
  C   C1452     1.0  0.92052  0.69688  0.74049  1.0000
  C   C1453     1.0  0.72527  0.50870  0.74735  1.0000
  C   C1454     1.0  0.67347  0.57243  0.85902  1.0000
  C   C1455     1.0  0.69224  0.58188  0.85095  1.0000
  C   C1456     1.0  0.69614  0.58304  0.83376  1.0000
  C   C1457     1.0  0.68124  0.57477  0.82453  1.0000
  C   C1458     1.0  0.66276  0.56488  0.83266  1.0000
  C   C1459     1.0  0.65885  0.56376  0.84979  1.0000
  H   H1459     1.0  0.70368  0.58863  0.85798  1.0000
  H   H1460     1.0  0.71043  0.59071  0.82765  1.0000
  H   H1461     1.0  0.65116  0.55843  0.82561  1.0000
  H   H1462     1.0  0.64438  0.55644  0.85578  1.0000
  C   C1460     1.0  0.61246  0.55214  0.97151  1.0000
  C   C1461     1.0  0.76144  0.97335  0.77037  1.0000
  H   H1463     1.0  0.68983  0.69867  0.73708  1.0000
  C   C1462     1.0  0.63518  0.54912  0.97094  1.0000
  C   C1463     1.0  0.66397  0.72279  0.74287  1.0000
  C   C1464     1.0  0.83570  0.97139  0.87637  1.0000
  H   H1464     1.0  0.64487  0.55000  0.95927  1.0000
  H   H1465     1.0  0.87008  0.89947  0.94792  1.0000
  C   C1465     1.0  0.53235  0.60988  0.90209  1.0000
  C   C1466     1.0  0.54815  0.59368  0.89739  1.0000
  C   C1467     1.0  0.54300  0.57810  0.88733  1.0000
  C   C1468     1.0  0.52216  0.57892  0.88186  1.0000
  H   H1466     1.0  0.61951  0.74012  0.74865  1.0000
  H   H1467     1.0  0.53632  0.62192  0.90990  1.0000
  H   H1468     1.0  0.56420  0.59323  0.90163  1.0000
  C   C1469     1.0  0.85732  0.96456  0.87181  1.0000
  H   H1469     1.0  0.66797  0.62876  0.82837  1.0000
  C   C1470     1.0  0.92104  0.80765  0.85064  1.0000
  C   C1471     1.0  0.89830  0.80962  0.85356  1.0000
  C   C1472     1.0  0.88502  0.80043  0.84329  1.0000
  C   C1473     1.0  0.89424  0.78948  0.82983  1.0000
  C   C1474     1.0  0.91696  0.78802  0.82666  1.0000
  C   C1475     1.0  0.93024  0.79683  0.83711  1.0000
  H   H1470     1.0  0.89095  0.81773  0.86396  1.0000
  H   H1471     1.0  0.86748  0.80159  0.84593  1.0000
  H   H1472     1.0  0.92434  0.77958  0.81643  1.0000
  H   H1473     1.0  0.94780  0.79512  0.83475  1.0000
  C   C1476     1.0  0.88754  0.92637  0.90507  1.0000
  C   C1477     1.0  0.87315  0.94293  0.91100  1.0000
  C   C1478     1.0  0.87794  0.96499  0.90728  1.0000
  C   C1479     1.0  0.89696  0.97046  0.89741  1.0000
  C   C1480     1.0  0.91126  0.95386  0.89153  1.0000
  C   C1481     1.0  0.90670  0.93191  0.89551  1.0000
  H   H1474     1.0  0.85834  0.93871  0.91848  1.0000
  H   H1475     1.0  0.86684  0.97770  0.91189  1.0000
  H   H1476     1.0  0.92579  0.95789  0.88365  1.0000
  H   H1477     1.0  0.91793  0.91930  0.89090  1.0000
  C   C1482     1.0  0.95571  0.83608  0.97570  1.0000
  C   C1483     1.0  0.94335  0.83663  0.96222  1.0000
  C   C1484     1.0  0.92075  0.84057  0.96457  1.0000
  H   H1478     1.0  0.97320  0.83284  0.97402  1.0000
  H   H1479     1.0  0.91101  0.84072  0.95435  1.0000
  C   C1485     1.0  0.72883  0.97533  0.73451  1.0000
  C   C1486     1.0  0.92143  0.90134  0.95913  1.0000
  C   C1487     1.0  0.99330  0.73267  0.74636  1.0000
  H   H1480     1.0  0.59308  0.59957  0.87249  1.0000
  H   H1481     1.0  0.68730  0.51899  0.83633  1.0000
  S   S506      1.0  0.75135  0.60598  0.74629  1.0000
  H   H1482     1.0  0.92318  0.69324  0.76632  1.0000
  C   C1488     1.0  0.88110  0.67727  0.74817  1.0000
  C   C1489     1.0  0.82596  0.76514  0.73566  1.0000
  S   S507      1.0  0.61468  0.69864  0.73663  1.0000
  N   N120      1.0  0.95826  0.78544  0.90063  1.0000
  H   H1483     1.0  0.87717  0.65879  0.77848  1.0000
  C   C1490     1.0  0.97365  0.78677  0.88749  1.0000
  C   C1491     1.0  0.88323  0.89898  0.95581  1.0000
  C   C1492     1.0  0.70054  0.52575  0.88960  1.0000
  H   H1484     1.0  0.95099  0.78978  0.92600  1.0000
  C   C1493     1.0  0.93583  0.78047  0.89846  1.0000
  C   C1494     1.0  0.96337  0.78992  0.91568  1.0000
  H   H1485     1.0  0.96944  0.78396  0.87543  1.0000
  C   C1495     1.0  0.53488  0.56307  0.93240  1.0000
  N   N121      1.0  0.51974  0.55413  0.92245  1.0000
  N   N122      1.0  0.91734  0.89694  0.97568  1.0000
  H   H1486     1.0  0.93499  0.77236  0.88708  1.0000
  H   H1487     1.0  0.97735  0.94972  0.89679  1.0000
  H   H1488     1.0  0.92549  0.79585  0.89745  1.0000
  H   H1489     1.0  0.70693  0.53382  0.85712  1.0000
  H   H1490     1.0  0.99549  0.71781  0.75428  1.0000
  H   H1491     1.0  0.92893  0.76950  0.90891  1.0000
  H   H1492     1.0  0.79501  0.98596  0.87987  1.0000
  C   C1496     1.0  0.63407  0.75006  0.74801  1.0000
  H   H1493     1.0  0.81027  0.69132  0.74443  1.0000
  H   H1494     1.0  0.63679  0.67099  0.76046  1.0000
  C   C1497     1.0  0.69434  0.52240  0.86104  1.0000
  C   C1498     1.0  0.67295  0.50246  0.88223  1.0000
  C   C1499     1.0  0.91325  0.69021  0.75669  1.0000
  C   C1500     1.0  0.87918  0.89459  0.97271  1.0000
  H   H1495     1.0  0.68916  0.52963  0.90036  1.0000
  N   N123      1.0  0.82856  0.99269  0.87306  1.0000
  H   H1496     1.0  0.66056  0.71548  0.75526  1.0000
  H   H1497     1.0  0.86281  0.89150  0.97815  1.0000
  N   N124      1.0  0.88221  0.83684  0.77750  1.0000
  C   C1501     1.0  0.87918  0.82796  0.79336  1.0000
  C   C1502     1.0  0.86485  0.84589  0.76965  1.0000
  C   C1503     1.0  0.85831  0.82795  0.80171  1.0000
  C   C1504     1.0  0.84377  0.84616  0.77765  1.0000
  C   C1505     1.0  0.84050  0.83699  0.79376  1.0000
  C   C1506     1.0  0.90409  0.83708  0.76877  1.0000
  H   H1498     1.0  0.89283  0.82051  0.79963  1.0000
  H   H1499     1.0  0.86722  0.85254  0.75698  1.0000
  H   H1500     1.0  0.85597  0.82059  0.81421  1.0000
  H   H1501     1.0  0.83001  0.85300  0.77125  1.0000
  H   H1502     1.0  0.82420  0.83668  0.80003  1.0000
  H   H1503     1.0  0.91653  0.82807  0.77609  1.0000
  H   H1504     1.0  0.90421  0.82913  0.75720  1.0000
  H   H1505     1.0  0.90896  0.85416  0.76582  1.0000
  H   H1506     1.0  0.64076  0.61312  0.81326  1.0000
  C   C1507     1.0  0.82830  0.81583  0.75104  1.0000
  S   S508      1.0  0.98472  0.90451  0.88305  1.0000
  C   C1508     1.0  0.66507  0.65586  0.74758  1.0000
  C   C1509     1.0  0.80722  0.82579  0.75065  1.0000
  C   C1510     1.0  0.51127  0.61031  0.89700  1.0000
  N   N125      1.0  0.65172  0.74066  0.73717  1.0000
  S   S509      1.0  0.75220  0.54402  0.73927  1.0000
  S   S510      1.0  0.90283  0.99776  0.89134  1.0000
  H   H1507     1.0  0.62931  0.76711  0.74353  1.0000
  H   H1508     1.0  0.61129  0.60319  0.97331  1.0000
  C   C1511     1.0  0.52653  0.53683  0.91363  1.0000
  H   H1509     1.0  0.60273  0.57480  0.86347  1.0000
  H   H1510     1.0  0.60823  0.59665  0.82847  1.0000
  C   C1512     1.0  0.63800  0.61341  0.82645  1.0000
  C   C1513     1.0  0.63793  0.68049  0.73458  1.0000
  H   H1511     1.0  0.89953  0.67164  0.78534  1.0000
  C   C1514     1.0  0.77637  0.98737  0.76182  1.0000
  H   H1512     1.0  0.82479  0.95958  0.88272  1.0000
  C   C1515     1.0  0.65031  0.62138  0.85196  1.0000
  C   C1516     1.0  0.59826  0.59242  0.86076  1.0000
  N   N126      1.0  0.61682  0.60344  0.85182  1.0000
  H   H1513     1.0  0.77427  0.77072  0.75376  1.0000
  H   H1514     1.0  0.63028  0.61027  0.87353  1.0000
  C   C1517     1.0  0.98211  0.96656  0.89557  1.0000
  H   H1515     1.0  0.87439  0.68729  0.78193  1.0000
  C   C1518     1.0  0.75864  0.95319  0.76456  1.0000
  H   H1516     1.0  0.71359  0.51380  0.89361  1.0000
  C   C1519     1.0  0.65334  0.62217  0.83494  1.0000
  Fe  Fe256     1.0  0.62144  0.51232  0.90758  1.0000
  H   H1517     1.0  0.66261  0.62730  0.85873  1.0000
  C   C1520     1.0  0.98448  0.79540  0.91792  1.0000
  C   C1521     1.0  0.76607  0.92659  0.74427  1.0000
  C   C1522     1.0  0.80796  0.76139  0.74698  1.0000
  N   N127      1.0  0.77039  0.94719  0.75061  1.0000
  H   H1518     1.0  0.54325  0.53027  0.91342  1.0000
  C   C1523     1.0  0.78502  0.96089  0.74210  1.0000
  H   H1519     1.0  0.74977  0.92804  0.73950  1.0000
  H   H1520     1.0  0.53430  0.55402  0.94471  1.0000
  C   C1524     1.0  0.91057  0.84329  0.98032  1.0000
  N   N128      1.0  0.89385  0.68033  0.76032  1.0000
  H   H1521     1.0  0.53081  0.58070  0.93371  1.0000
  C   C1525     1.0  0.74197  0.51806  0.73674  1.0000
  C   C1526     1.0  0.78834  0.98109  0.74764  1.0000
  H   H1522     1.0  0.86311  0.94775  0.87471  1.0000
  S   S511      1.0  0.77525  0.85234  0.73742  1.0000
  H   H1523     1.0  0.95430  0.77155  0.73612  1.0000
  H   H1524     1.0  0.55192  0.56189  0.92658  1.0000
  H   H1525     1.0  0.83171  0.80340  0.76070  1.0000
  H   H1526     1.0  0.76648  0.91283  0.75398  1.0000
  S   S512      1.0  0.87150  0.80998  0.73914  1.0000
  H   H1527     1.0  0.79448  0.82077  0.75998  1.0000
  C   C1527     1.0  0.99485  0.79246  0.88927  1.0000
  C   C1528     1.0  0.96636  0.98381  0.89456  1.0000
  C   C1529     1.0  0.88593  0.67419  0.77737  1.0000
  H   H1528     1.0  0.94918  0.98059  0.89523  1.0000
  H   H1529     1.0  0.94960  0.88632  0.98081  1.0000
  H   H1530     1.0  0.98831  0.79933  0.92983  1.0000
  C   C1530     1.0  0.97008  0.76287  0.73621  1.0000
  C   C1531     1.0  0.78830  0.77337  0.74494  1.0000
  C   C1532     1.0  0.84482  0.82208  0.73898  1.0000
  H   H1531     1.0  0.93589  0.70476  0.73768  1.0000
  H   H1532     1.0  0.84133  0.75601  0.73727  1.0000
  C   C1533     1.0  0.89650  0.89387  0.98255  1.0000
  C   C1534     1.0  0.80237  0.84173  0.73803  1.0000
  H   H1533     1.0  0.71255  0.98977  0.75562  1.0000
  C   C1535     1.0  0.72456  0.99204  0.74522  1.0000
  H   H1534     1.0  0.72006  0.96051  0.73672  1.0000
  H   H1535     1.0  0.77824  0.92247  0.73402  1.0000
  H   H1536     1.0  0.79924  0.99229  0.74052  1.0000
  C   C1536     1.0  0.80598  0.99979  0.87811  1.0000
