data_image0
_chemical_formula_structural       FeCSCHFeS2FeS2FeSFeS3FeS2FeS2FeSFeS4CHFeS2FeCS2FeSHFeS2CNC3H5CHCH3C7H4C2HC6H4C6H4CNC8H4C6H6CNC6H9FeHC2HCHNHC2SCSHCH4C3NH3CHCHCH2C3FeHC2HNHCHC5H2SH5NHCNCHCSFeH2SNH2CH3CH3C2H2CHCSCH2CH5C2HCH3CSC3H2CH2C2HSHC3H5C2FeC3H3SCHC2HSFeS2FeS2FeSFeS3FeS2FeS2FeSFeS3FeCSHSFeS2FeH2FeS2CHCH2NC2FeH2C2H2SHCNC6H4C6H6CHCH2C6H4C6H4CSCHFeC7H4CNC6H8C3NC6H3CHNCHSCH3C4HCHCHC3H6C2H3CNHC2H2SNC2HC2H2CHSHCH7CHFeNHCH6CHCFeHNHCSHFeH2CHC2SHC2NH6CSHCH2CH2C6HC3HNCHCSH2CSH2C2HCFeCSHSNHCHSFeS2C2FeSFeS2CFeS2H2FeNCFeS2FeS2FeHFeS3CHC4H2CNHCHC8H2CH2S2H2C6H4C2SCHCSC2H2FeHC4H4C3HC3H2C2H2CHNC5FeH3CHCH5C2H2CH4C3H2SHCFeSCH2C3S2H3CH4Fe2SFeS2CFeS3HSH3S2H2SHFeS2FeHSFeCFeS3HFeCSCH2CS2CH4SH2C7H2CHC3H4C2HNC7H2CHC6H4C2NC2H4C2H3CH5C2HSHCHCH2C5HC2SNCH2CNHNC3SC2H3CHC2FeCHCFeH3CHSFeNC2HSHCSNHFeS2C2SH2C7H5SH2C2H2SCFeHNFeC2HCSH3CH2C2HCFeHC3FeS2HFeCSC2HCH2C2HCSNH2CH3FeH2CH2C2H2C2HSCS2H3FeSCSHC2HSHC7H4CFeC4HCHC3HNHCH3SCNCH3CSHCFeCSH2SHC3HCH2SHFeC3HSHC2FeSHC2H3C2HSCSHS2FeHFeS4FeSFeSHSFeCSFeHCFeS2FeS2FeHFeS3FeS2C6H4SC3H2C8H2C3H2C6H4CHCH2C4HSH2CNC5H3NH3FeHCH2C4SH3CH2CHCSHCHC4H3FeH2C4H3C2H2C2H4NCHC2SC2H3CNC3H2C2HSCHCFeCSFeS2FeSHS2CSHCSCNFeHSFeS2FeCFeS3FeSCFeCHCHSCH2C7HCH2CH2C2H5CHC3H2C2H3CH2C2SCH2C7H4C2H5CHNC3SCHCHCSHSH2C4HC2FeH3FeHNH4C4FeC2NH5CHCH2CS2H2CHCHCN2H2CHFeHS2FeS2FeS2FeSFeS3FeS2FeS2FeSFeS3HFeSHFeS2FeS2CFeCSHC2H5NSHC2H2C6H4CH3C6H4C6H4C6H4C6H10FeNCH2C2HC2NC6H8NC5H5NC2HC3H3CFeCHCNC6H3CH4SCHCSC4H3C3HSHNCFeSC2H3CNC6H5C2H3CSC2H3CHCHCH4CH3C2NH2SH2C2S2CHC2FeCSHFe2S2FeS2FeSFeS3FeS2FeS2FeSFeS3FeS2HS2HFeS2C2HSH4SH2CH3NC4H4C8H4C2H3C6H4C6H4C4H2C6H4FeHSC6H4NC4H8CHCHCH2CHCH4CSHCH5C2SCNC6H8CHC3NC4H2CH2CNH2CNC2H4CH2CNCHNCHCHSCHNHNC2HSH2CHCH3CHFeH3FeC2HCFeSHC2HCHCHSC2S
_chemical_formula_sum              "Fe128 C768 S256 H768 N64"
_cell_length_a       60.9439
_cell_length_b       61.0489
_cell_length_c       39.4098
_cell_angle_alpha    88.8721
_cell_angle_beta     89.0476
_cell_angle_gamma    89.8484

_space_group_name_H-M_alt    "P 1"
_space_group_IT_number       1

loop_
  _space_group_symop_operation_xyz
  'x, y, z'

loop_
  _atom_site_type_symbol
  _atom_site_label
  _atom_site_symmetry_multiplicity
  _atom_site_fract_x
  _atom_site_fract_y
  _atom_site_fract_z
  _atom_site_occupancy
  Fe  Fe1       1.0  0.39135  0.29976  0.35677  1.0000
  C   C1        1.0  0.39492  0.10484  0.07436  1.0000
  S   S1        1.0  0.40759  0.26686  0.36138  1.0000
  C   C2        1.0  0.32622  0.04085  0.27362  1.0000
  H   H1        1.0  0.25102  0.13299  0.44105  1.0000
  Fe  Fe2       1.0  0.32552  0.12211  0.37133  1.0000
  S   S2        1.0  0.35625  0.10270  0.38111  1.0000
  S   S3        1.0  0.29150  0.11041  0.38506  1.0000
  Fe  Fe3       1.0  0.34973  0.15949  0.33667  1.0000
  S   S4        1.0  0.38246  0.14322  0.34271  1.0000
  S   S5        1.0  0.34287  0.19309  0.31459  1.0000
  Fe  Fe4       1.0  0.36536  0.11239  0.32710  1.0000
  S   S6        1.0  0.38161  0.08746  0.29239  1.0000
  Fe  Fe5       1.0  0.37054  0.13503  0.39589  1.0000
  S   S7        1.0  0.39337  0.14337  0.43866  1.0000
  S   S8        1.0  0.33351  0.12949  0.31660  1.0000
  S   S9        1.0  0.33894  0.15351  0.39063  1.0000
  Fe  Fe6       1.0  0.18693  0.16930  0.33579  1.0000
  S   S10       1.0  0.17232  0.13576  0.33506  1.0000
  S   S11       1.0  0.22241  0.17830  0.32681  1.0000
  Fe  Fe7       1.0  0.14303  0.19043  0.35165  1.0000
  S   S12       1.0  0.12473  0.15841  0.35396  1.0000
  S   S13       1.0  0.12736  0.22376  0.35441  1.0000
  Fe  Fe8       1.0  0.15439  0.14607  0.38263  1.0000
  S   S14       1.0  0.15818  0.12225  0.42716  1.0000
  Fe  Fe9       1.0  0.14423  0.15105  0.30649  1.0000
  S   S15       1.0  0.13269  0.13742  0.25647  1.0000
  S   S16       1.0  0.17061  0.17894  0.38455  1.0000
  S   S17       1.0  0.16085  0.18373  0.30297  1.0000
  S   S18       1.0  0.20045  0.29556  0.32632  1.0000
  C   C3        1.0  0.36747  0.12905  0.49309  1.0000
  H   H2        1.0  0.27267  0.12630  0.49277  1.0000
  Fe  Fe10      1.0  0.35305  0.02636  0.11837  1.0000
  S   S19       1.0  0.33594  0.03560  0.06995  1.0000
  S   S20       1.0  0.33885  0.04698  0.16134  1.0000
  Fe  Fe11      1.0  0.36948  0.03480  0.04568  1.0000
  C   C4        1.0  0.44517  0.28237  0.24783  1.0000
  S   S21       1.0  0.38668  0.02815  0.09445  1.0000
  S   S22       1.0  0.31797  0.31704  0.30963  1.0000
  Fe  Fe12      1.0  0.04988  0.13782  0.05969  1.0000
  S   S23       1.0  0.03919  0.11789  0.10544  1.0000
  H   H3        1.0  0.41223  0.18568  0.44138  1.0000
  Fe  Fe13      1.0  0.03437  0.15042  0.13024  1.0000
  S   S24       1.0  0.04144  0.15758  0.18557  1.0000
  S   S25       1.0  0.04808  0.17018  0.08595  1.0000
  C   C5        1.0  0.25648  0.03629  0.07070  1.0000
  N   N1        1.0  0.45852  0.31496  0.29123  1.0000
  C   C6        1.0  0.21361  0.14897  0.49923  1.0000
  C   C7        1.0  0.08673  0.09086  0.05072  1.0000
  C   C8        1.0  0.09704  0.07024  0.05130  1.0000
  H   H4        1.0  0.34989  0.10506  0.09330  1.0000
  H   H5        1.0  0.07661  0.09577  0.07199  1.0000
  H   H6        1.0  0.09474  0.05936  0.07307  1.0000
  H   H7        1.0  0.48049  0.32624  0.32820  1.0000
  H   H8        1.0  0.38092  0.07339  0.14217  1.0000
  C   C9        1.0  0.39100  0.08322  0.12485  1.0000
  H   H9        1.0  0.16415  0.31704  0.39585  1.0000
  C   C10       1.0  0.34235  0.04129  0.29830  1.0000
  H   H10       1.0  0.45473  0.06489  0.05307  1.0000
  H   H11       1.0  0.41713  0.04996  0.05073  1.0000
  H   H12       1.0  0.33557  0.21530  0.43214  1.0000
  C   C11       1.0  0.45809  0.24812  0.01684  1.0000
  C   C12       1.0  0.17962  0.27606  0.33344  1.0000
  C   C13       1.0  0.15745  0.28203  0.33553  1.0000
  C   C14       1.0  0.14130  0.26593  0.34155  1.0000
  C   C15       1.0  0.14733  0.24386  0.34545  1.0000
  C   C16       1.0  0.16948  0.23797  0.34335  1.0000
  C   C17       1.0  0.18555  0.25401  0.33747  1.0000
  H   H13       1.0  0.15270  0.29897  0.33224  1.0000
  H   H14       1.0  0.12419  0.27060  0.34327  1.0000
  H   H15       1.0  0.17437  0.22107  0.34668  1.0000
  H   H16       1.0  0.20266  0.24930  0.33653  1.0000
  C   C18       1.0  0.15681  0.13095  0.46957  1.0000
  C   C19       1.0  0.27625  0.33193  0.32048  1.0000
  H   H17       1.0  0.19701  0.15536  0.50125  1.0000
  C   C20       1.0  0.06647  0.15066  0.20541  1.0000
  C   C21       1.0  0.06908  0.15531  0.23993  1.0000
  C   C22       1.0  0.08925  0.15141  0.25600  1.0000
  C   C23       1.0  0.10683  0.14230  0.23783  1.0000
  C   C24       1.0  0.10403  0.13719  0.20354  1.0000
  C   C25       1.0  0.08401  0.14149  0.18729  1.0000
  H   H18       1.0  0.05557  0.16234  0.25419  1.0000
  H   H19       1.0  0.09117  0.15530  0.28245  1.0000
  H   H20       1.0  0.11751  0.13002  0.18935  1.0000
  H   H21       1.0  0.08222  0.13777  0.16075  1.0000
  C   C26       1.0  0.27219  0.12911  0.36888  1.0000
  C   C27       1.0  0.27910  0.14918  0.35485  1.0000
  C   C28       1.0  0.26371  0.16417  0.34210  1.0000
  C   C29       1.0  0.24131  0.15913  0.34305  1.0000
  C   C30       1.0  0.23436  0.13902  0.35707  1.0000
  C   C31       1.0  0.24978  0.12403  0.37001  1.0000
  H   H22       1.0  0.29633  0.15330  0.35393  1.0000
  H   H23       1.0  0.26926  0.17971  0.33168  1.0000
  H   H24       1.0  0.21713  0.13496  0.35782  1.0000
  H   H25       1.0  0.24435  0.10846  0.38067  1.0000
  C   C32       1.0  0.38564  0.14135  0.48208  1.0000
  N   N2        1.0  0.22331  0.01646  0.06017  1.0000
  C   C33       1.0  0.13230  0.19143  0.21487  1.0000
  C   C34       1.0  0.15653  0.26755  0.42145  1.0000
  C   C35       1.0  0.37051  0.07790  0.25411  1.0000
  C   C36       1.0  0.38161  0.06130  0.23640  1.0000
  C   C37       1.0  0.37251  0.05206  0.20732  1.0000
  C   C38       1.0  0.35213  0.05932  0.19575  1.0000
  C   C39       1.0  0.34128  0.07628  0.21296  1.0000
  C   C40       1.0  0.35043  0.08559  0.24192  1.0000
  H   H26       1.0  0.39714  0.05522  0.24570  1.0000
  H   H27       1.0  0.38097  0.03891  0.19448  1.0000
  H   H28       1.0  0.32554  0.08206  0.20412  1.0000
  H   H29       1.0  0.34177  0.09839  0.25520  1.0000
  C   C41       1.0  0.39053  0.24641  0.34564  1.0000
  C   C42       1.0  0.37024  0.25195  0.33178  1.0000
  C   C43       1.0  0.35604  0.23548  0.32128  1.0000
  C   C44       1.0  0.36186  0.21337  0.32513  1.0000
  C   C45       1.0  0.38223  0.20782  0.33876  1.0000
  C   C46       1.0  0.39666  0.22434  0.34864  1.0000
  H   H30       1.0  0.36538  0.26893  0.32928  1.0000
  H   H31       1.0  0.34035  0.23993  0.31075  1.0000
  H   H32       1.0  0.38691  0.19082  0.34171  1.0000
  H   H33       1.0  0.41236  0.21996  0.35931  1.0000
  H   H34       1.0  0.29176  0.09983  0.30665  1.0000
  H   H35       1.0  0.17526  0.10322  0.48835  1.0000
  C   C47       1.0  0.11597  0.28274  0.44373  1.0000
  N   N3        1.0  0.27570  0.23196  0.28820  1.0000
  C   C48       1.0  0.27693  0.25436  0.28693  1.0000
  C   C49       1.0  0.25574  0.22172  0.28782  1.0000
  C   C50       1.0  0.25785  0.26707  0.28431  1.0000
  C   C51       1.0  0.23636  0.23392  0.28554  1.0000
  C   C52       1.0  0.23747  0.25674  0.28352  1.0000
  C   C53       1.0  0.29581  0.21898  0.29183  1.0000
  H   H36       1.0  0.29272  0.26256  0.28794  1.0000
  H   H37       1.0  0.25464  0.20400  0.28935  1.0000
  H   H38       1.0  0.25881  0.28483  0.28310  1.0000
  H   H39       1.0  0.22058  0.22566  0.28571  1.0000
  H   H40       1.0  0.22256  0.26642  0.28165  1.0000
  H   H41       1.0  0.30938  0.22586  0.27572  1.0000
  H   H42       1.0  0.30103  0.21870  0.31871  1.0000
  H   H43       1.0  0.29355  0.20174  0.28397  1.0000
  H   H44       1.0  0.46821  0.29685  0.21174  1.0000
  Fe  Fe14      1.0  0.35159  0.32390  0.32989  1.0000
  H   H45       1.0  0.35752  0.12087  0.47474  1.0000
  C   C54       1.0  0.13310  0.29726  0.43571  1.0000
  C   C55       1.0  0.25606  0.13266  0.49489  1.0000
  H   H46       1.0  0.08565  0.17792  0.00906  1.0000
  C   C56       1.0  0.46793  0.31352  0.25957  1.0000
  H   H47       1.0  0.18510  0.29721  0.40436  1.0000
  N   N4        1.0  0.38221  0.09235  0.09612  1.0000
  H   H48       1.0  0.07955  0.01769  0.00894  1.0000
  C   C57       1.0  0.41277  0.22099  0.44203  1.0000
  C   C58       1.0  0.42631  0.09876  0.10990  1.0000
  S   S26       1.0  0.07645  0.13079  0.02080  1.0000
  C   C59       1.0  0.16661  0.11805  0.49511  1.0000
  S   S27       1.0  0.40676  0.33024  0.37645  1.0000
  H   H49       1.0  0.38803  0.11175  0.05129  1.0000
  C   C60       1.0  0.03237  0.07957  0.02173  1.0000
  H   H50       1.0  0.35675  0.08452  0.06224  1.0000
  H   H51       1.0  0.05824  0.20651  0.20941  1.0000
  H   H52       1.0  0.35128  0.07654  0.10549  1.0000
  H   H53       1.0  0.46162  0.28264  0.02626  1.0000
  C   C61       1.0  0.40066  0.24012  0.43660  1.0000
  C   C62       1.0  0.41318  0.08618  0.13209  1.0000
  C   C63       1.0  0.03218  0.23253  0.04306  1.0000
  N   N5        1.0  0.11172  0.20002  0.22915  1.0000
  H   H54       1.0  0.27749  0.07920  0.33161  1.0000
  H   H55       1.0  0.12647  0.21013  0.27507  1.0000
  H   H56       1.0  0.09299  0.19218  0.18571  1.0000
  C   C64       1.0  0.42188  0.06332  0.03390  1.0000
  H   H57       1.0  0.42338  0.27219  0.28893  1.0000
  C   C65       1.0  0.28632  0.08244  0.30710  1.0000
  H   H58       1.0  0.44363  0.10096  0.11485  1.0000
  C   C66       1.0  0.35888  0.08951  0.08898  1.0000
  H   H59       1.0  0.34206  0.23222  0.39490  1.0000
  H   H60       1.0  0.14236  0.23517  0.42551  1.0000
  C   C67       1.0  0.13974  0.25258  0.42914  1.0000
  C   C68       1.0  0.26483  0.01814  0.08830  1.0000
  C   C69       1.0  0.07321  0.20770  0.22384  1.0000
  Fe  Fe15      1.0  0.01343  0.17149  0.06788  1.0000
  H   H61       1.0  0.26650  0.05080  0.06684  1.0000
  C   C70       1.0  0.41712  0.10831  0.08097  1.0000
  C   C71       1.0  0.11026  0.06361  0.02388  1.0000
  H   H62       1.0  0.42010  0.07867  0.15472  1.0000
  N   N6        1.0  0.15297  0.28957  0.42448  1.0000
  H   H63       1.0  0.36988  0.25365  0.42088  1.0000
  C   C72       1.0  0.43599  0.28368  0.28041  1.0000
  H   H64       1.0  0.42416  0.32068  0.19146  1.0000
  C   C73       1.0  0.33976  0.05501  0.32597  1.0000
  C   C74       1.0  0.09296  0.19955  0.21055  1.0000
  C   C75       1.0  0.40295  0.20069  0.43742  1.0000
  C   C76       1.0  0.37888  0.23865  0.42619  1.0000
  C   C77       1.0  0.38114  0.19982  0.42702  1.0000
  H   H65       1.0  0.14191  0.18281  0.23482  1.0000
  H   H66       1.0  0.14227  0.20498  0.20358  1.0000
  S   S28       1.0  0.35840  0.30695  0.37941  1.0000
  H   H67       1.0  0.35724  0.03166  0.29536  1.0000
  H   H68       1.0  0.37370  0.18397  0.42318  1.0000
  H   H69       1.0  0.42730  0.11779  0.06324  1.0000
  H   H70       1.0  0.27135  0.31511  0.31743  1.0000
  H   H71       1.0  0.10017  0.28894  0.45231  1.0000
  N   N7        1.0  0.36954  0.21866  0.42097  1.0000
  H   H72       1.0  0.05803  0.25671  0.04307  1.0000
  C   C78       1.0  0.34676  0.21734  0.40982  1.0000
  N   N8        1.0  0.22282  0.14461  0.46814  1.0000
  C   C79       1.0  0.04681  0.04296  0.02855  1.0000
  H   H73       1.0  0.12921  0.17900  0.19525  1.0000
  C   C80       1.0  0.39854  0.15176  0.50620  1.0000
  S   S29       1.0  0.01611  0.14029  0.03853  1.0000
  Fe  Fe16      1.0  0.19153  0.33110  0.33202  1.0000
  H   H74       1.0  0.40830  0.25603  0.43907  1.0000
  H   H75       1.0  0.04744  0.02767  0.04296  1.0000
  S   S30       1.0  0.38340  0.31347  0.30542  1.0000
  N   N9        1.0  0.30539  0.06787  0.30405  1.0000
  H   H76       1.0  0.13807  0.16012  0.45894  1.0000
  H   H77       1.0  0.43574  0.30099  0.32722  1.0000
  C   C81       1.0  0.21027  0.14821  0.43711  1.0000
  H   H78       1.0  0.04068  0.22112  0.05958  1.0000
  H   H79       1.0  0.20692  0.13228  0.42499  1.0000
  H   H80       1.0  0.21950  0.15897  0.41884  1.0000
  C   C82       1.0  0.11157  0.20922  0.26055  1.0000
  H   H81       1.0  0.48002  0.32545  0.25081  1.0000
  H   H82       1.0  0.45063  0.24440  0.04144  1.0000
  H   H83       1.0  0.29573  0.05448  0.25688  1.0000
  C   C83       1.0  0.46137  0.29727  0.23737  1.0000
  C   C84       1.0  0.17030  0.30527  0.41533  1.0000
  H   H84       1.0  0.29460  0.31256  0.39639  1.0000
  H   H85       1.0  0.42982  0.22188  0.44936  1.0000
  C   C85       1.0  0.07280  0.21660  0.25621  1.0000
  H   H86       1.0  0.19415  0.15610  0.44230  1.0000
  C   C86       1.0  0.28978  0.32903  0.40320  1.0000
  S   S31       1.0  0.37997  0.06183  0.00879  1.0000
  C   C87       1.0  0.09212  0.21747  0.27467  1.0000
  H   H87       1.0  0.01976  0.11640  0.18809  1.0000
  H   H88       1.0  0.43959  0.27000  0.23060  1.0000
  C   C88       1.0  0.11932  0.26026  0.44016  1.0000
  H   H89       1.0  0.40823  0.33195  0.24671  1.0000
  H   H90       1.0  0.17508  0.31461  0.43798  1.0000
  H   H91       1.0  0.31914  0.07890  0.35001  1.0000
  H   H92       1.0  0.10609  0.24879  0.44559  1.0000
  H   H93       1.0  0.34460  0.20324  0.39273  1.0000
  C   C89       1.0  0.44325  0.07175  0.03507  1.0000
  C   C90       1.0  0.32101  0.06817  0.32855  1.0000
  H   H94       1.0  0.09213  0.22435  0.29990  1.0000
  C   C91       1.0  0.44300  0.30009  0.30198  1.0000
  H   H95       1.0  0.41275  0.16113  0.49793  1.0000
  H   H96       1.0  0.07851  0.20075  0.03556  1.0000
  H   H97       1.0  0.32847  0.03078  0.25140  1.0000
  C   C92       1.0  0.30779  0.05444  0.27678  1.0000
  S   S32       1.0  0.12215  0.03726  0.02495  1.0000
  C   C93       1.0  0.03310  0.05980  0.03998  1.0000
  C   C94       1.0  0.04198  0.25275  0.03365  1.0000
  C   C95       1.0  0.23555  0.03517  0.05670  1.0000
  H   H98       1.0  0.13037  0.31476  0.43814  1.0000
  H   H99       1.0  0.35260  0.05602  0.34465  1.0000
  C   C96       1.0  0.01138  0.22720  0.03120  1.0000
  H   H100      1.0  0.28145  0.01836  0.09786  1.0000
  H   H101      1.0  0.27452  0.08033  0.28625  1.0000
  C   C97       1.0  0.40694  0.07201  0.01071  1.0000
  C   C98       1.0  0.14575  0.15014  0.47841  1.0000
  H   H102      1.0  0.17215  0.26144  0.41200  1.0000
  S   S33       1.0  0.47692  0.09857  0.01540  1.0000
  H   H103      1.0  0.05754  0.22270  0.26702  1.0000
  C   C99       1.0  0.24373  0.13651  0.46570  1.0000
  C   C100      1.0  0.46582  0.33194  0.31425  1.0000
  C   C101      1.0  0.44985  0.08891  0.01309  1.0000
  H   H104      1.0  0.25548  0.32131  0.41002  1.0000
  H   H105      1.0  0.02313  0.05767  0.06288  1.0000
  H   H106      1.0  0.47991  0.02197  0.01362  1.0000
  H   H107      1.0  0.22947  0.04908  0.04208  1.0000
  H   H108      1.0  0.19874  0.02887  0.02636  1.0000
  C   C102      1.0  0.08974  0.10508  0.02279  1.0000
  C   C103      1.0  0.26790  0.33396  0.41082  1.0000
  Fe  Fe17      1.0  0.00478  0.12208  0.08586  1.0000
  C   C104      1.0  0.03129  0.26785  0.01199  1.0000
  C   C105      1.0  0.20153  0.01526  0.04499  1.0000
  C   C106      1.0  0.44777  0.00774  0.01720  1.0000
  H   H109      1.0  0.01458  0.08053  0.16127  1.0000
  H   H110      1.0  0.49963  0.23403  0.07062  1.0000
  H   H111      1.0  0.02191  0.09276  0.03046  1.0000
  S   S34       1.0  0.46224  0.33404  0.15332  1.0000
  C   C107      1.0  0.43126  0.33430  0.20455  1.0000
  H   H112      1.0  0.18850  0.01591  0.06499  1.0000
  C   C108      1.0  0.46428  0.26956  0.00835  1.0000
  C   C109      1.0  0.08201  0.19580  0.00903  1.0000
  H   H113      1.0  0.45259  0.33627  0.33274  1.0000
  S   S35       1.0  0.33687  0.29871  0.70320  1.0000
  Fe  Fe18      1.0  0.39568  0.19623  0.66949  1.0000
  S   S36       1.0  0.41410  0.16535  0.65701  1.0000
  S   S37       1.0  0.40989  0.23001  0.66309  1.0000
  Fe  Fe19      1.0  0.35633  0.17215  0.69793  1.0000
  S   S38       1.0  0.37196  0.13949  0.68977  1.0000
  S   S39       1.0  0.32163  0.17465  0.71796  1.0000
  Fe  Fe20      1.0  0.40280  0.15440  0.70944  1.0000
  S   S40       1.0  0.42648  0.13565  0.74345  1.0000
  Fe  Fe21      1.0  0.38154  0.15333  0.63835  1.0000
  S   S41       1.0  0.37023  0.13166  0.59586  1.0000
  S   S42       1.0  0.38615  0.18593  0.72259  1.0000
  S   S43       1.0  0.36436  0.18542  0.64594  1.0000
  Fe  Fe22      1.0  0.21799  0.13117  0.64544  1.0000
  S   S44       1.0  0.19132  0.10856  0.62902  1.0000
  S   S45       1.0  0.25239  0.12988  0.62371  1.0000
  Fe  Fe23      1.0  0.18725  0.15760  0.68936  1.0000
  S   S46       1.0  0.15786  0.13727  0.67739  1.0000
  S   S47       1.0  0.18734  0.18790  0.72077  1.0000
  Fe  Fe24      1.0  0.18059  0.10845  0.68426  1.0000
  S   S48       1.0  0.17216  0.07547  0.70908  1.0000
  Fe  Fe25      1.0  0.17099  0.13905  0.62357  1.0000
  S   S49       1.0  0.14852  0.14959  0.58111  1.0000
  S   S50       1.0  0.20900  0.12868  0.70084  1.0000
  S   S51       1.0  0.19857  0.16161  0.63542  1.0000
  Fe  Fe26      1.0  0.14650  0.29824  0.66127  1.0000
  C   C110      1.0  0.43498  0.09761  0.98977  1.0000
  S   S52       1.0  0.13270  0.26482  0.65240  1.0000
  H   H114      1.0  0.44489  0.23246  0.78891  1.0000
  S   S53       1.0  0.15203  0.31016  0.71383  1.0000
  Fe  Fe27      1.0  0.48853  0.15586  0.91801  1.0000
  S   S54       1.0  0.47589  0.15901  0.97174  1.0000
  S   S55       1.0  0.46626  0.17278  0.87929  1.0000
  Fe  Fe28      1.0  0.49030  0.12568  0.98079  1.0000
  H   H115      1.0  0.32568  0.12456  0.71131  1.0000
  H   H116      1.0  0.31537  0.09920  0.72940  1.0000
  Fe  Fe29      1.0  0.15112  0.03410  0.90266  1.0000
  S   S56       1.0  0.16647  0.04435  0.95123  1.0000
  S   S57       1.0  0.14764  0.06340  0.86629  1.0000
  C   C111      1.0  0.41355  0.08917  0.98862  1.0000
  H   H117      1.0  0.34324  0.10079  0.71450  1.0000
  C   C112      1.0  0.37279  0.30649  0.60916  1.0000
  H   H118      1.0  0.35153  0.10408  0.65332  1.0000
  H   H119      1.0  0.27384  0.08675  0.63257  1.0000
  N   N10       1.0  0.39353  0.29882  0.60288  1.0000
  C   C113      1.0  0.06133  0.22129  0.97268  1.0000
  C   C114      1.0  0.47505  0.05117  0.96301  1.0000
  Fe  Fe30      1.0  0.03671  0.32144  0.96365  1.0000
  H   H120      1.0  0.30117  0.08571  0.58501  1.0000
  H   H121      1.0  0.03866  0.30916  0.75662  1.0000
  C   C115      1.0  0.47913  0.25676  0.95515  1.0000
  C   C116      1.0  0.20682  0.06975  0.82850  1.0000
  H   H122      1.0  0.44000  0.11082  0.97263  1.0000
  H   H123      1.0  0.34024  0.09471  0.59577  1.0000
  S   S58       1.0  0.06429  0.33093  0.92762  1.0000
  H   H124      1.0  0.10907  0.12013  0.66792  1.0000
  C   C117      1.0  0.47267  0.18671  0.76529  1.0000
  N   N11       1.0  0.05942  0.04581  0.99976  1.0000
  C   C118      1.0  0.16536  0.07227  0.75282  1.0000
  C   C119      1.0  0.16025  0.09028  0.77287  1.0000
  C   C120      1.0  0.15436  0.08712  0.80733  1.0000
  C   C121      1.0  0.15403  0.06603  0.82236  1.0000
  C   C122      1.0  0.15932  0.04801  0.80240  1.0000
  C   C123      1.0  0.16477  0.05113  0.76770  1.0000
  H   H125      1.0  0.16050  0.10662  0.76172  1.0000
  H   H126      1.0  0.15015  0.10115  0.82250  1.0000
  H   H127      1.0  0.15906  0.03169  0.81363  1.0000
  H   H128      1.0  0.16857  0.03708  0.75234  1.0000
  C   C124      1.0  0.17228  0.20923  0.70148  1.0000
  C   C125      1.0  0.17508  0.23082  0.71201  1.0000
  C   C126      1.0  0.16337  0.24803  0.69647  1.0000
  C   C127      1.0  0.14836  0.24362  0.67098  1.0000
  C   C128      1.0  0.14545  0.22201  0.66066  1.0000
  C   C129      1.0  0.15761  0.20488  0.67554  1.0000
  H   H129      1.0  0.18632  0.23423  0.73218  1.0000
  H   H130      1.0  0.16578  0.26463  0.70455  1.0000
  H   H131      1.0  0.13395  0.21851  0.64086  1.0000
  H   H132      1.0  0.15541  0.18828  0.66716  1.0000
  H   H133      1.0  0.09134  0.11966  0.63183  1.0000
  H   H134      1.0  0.25611  0.13410  0.54963  1.0000
  C   C130      1.0  0.15330  0.14288  0.53828  1.0000
  H   H135      1.0  0.34511  0.25823  0.61071  1.0000
  C   C131      1.0  0.14527  0.07178  0.62977  1.0000
  H   H136      1.0  0.17273  0.11413  0.54883  1.0000
  H   H137      1.0  0.04106  0.24338  0.94324  1.0000
  C   C132      1.0  0.43589  0.14503  0.78299  1.0000
  C   C133      1.0  0.45310  0.13374  0.79914  1.0000
  C   C134      1.0  0.46204  0.14150  0.82942  1.0000
  C   C135      1.0  0.45380  0.16064  0.84389  1.0000
  C   C136      1.0  0.43619  0.17157  0.82825  1.0000
  C   C137      1.0  0.42731  0.16387  0.79791  1.0000
  H   H138      1.0  0.45978  0.11908  0.78789  1.0000
  H   H139      1.0  0.47561  0.13294  0.84113  1.0000
  H   H140      1.0  0.42964  0.18634  0.83929  1.0000
  H   H141      1.0  0.41400  0.17265  0.78593  1.0000
  C   C138      1.0  0.30247  0.16305  0.69080  1.0000
  C   C139      1.0  0.30885  0.15518  0.65899  1.0000
  C   C140      1.0  0.29331  0.14556  0.63801  1.0000
  C   C141      1.0  0.27139  0.14357  0.64891  1.0000
  C   C142      1.0  0.26502  0.15172  0.68049  1.0000
  C   C143      1.0  0.28052  0.16130  0.70146  1.0000
  H   H142      1.0  0.32579  0.15631  0.65056  1.0000
  H   H143      1.0  0.29839  0.13943  0.61353  1.0000
  H   H144      1.0  0.24818  0.15056  0.68898  1.0000
  H   H145      1.0  0.27553  0.16715  0.72616  1.0000
  C   C144      1.0  0.09312  0.26255  0.71783  1.0000
  S   S59       1.0  0.12256  0.01754  0.92972  1.0000
  C   C145      1.0  0.37579  0.13675  0.55221  1.0000
  H   H146      1.0  0.40208  0.09593  0.97052  1.0000
  Fe  Fe31      1.0  0.13981  0.02557  0.97777  1.0000
  C   C146      1.0  0.47844  0.21777  0.94096  1.0000
  C   C147      1.0  0.35814  0.27985  0.69564  1.0000
  C   C148      1.0  0.37972  0.28666  0.68889  1.0000
  C   C149      1.0  0.39593  0.27122  0.68022  1.0000
  C   C150      1.0  0.39053  0.24900  0.67818  1.0000
  C   C151      1.0  0.36915  0.24218  0.68616  1.0000
  C   C152      1.0  0.35303  0.25755  0.69479  1.0000
  H   H147      1.0  0.38389  0.30378  0.68995  1.0000
  H   H148      1.0  0.41250  0.27657  0.67439  1.0000
  H   H149      1.0  0.36483  0.22509  0.68501  1.0000
  H   H150      1.0  0.33643  0.25218  0.70003  1.0000
  C   C153      1.0  0.05799  0.32274  0.71500  1.0000
  N   N12       1.0  0.25205  0.22539  0.70477  1.0000
  C   C154      1.0  0.24140  0.24501  0.70851  1.0000
  C   C155      1.0  0.27393  0.22356  0.71169  1.0000
  C   C156      1.0  0.25287  0.26361  0.71844  1.0000
  C   C157      1.0  0.28585  0.24180  0.72183  1.0000
  C   C158      1.0  0.27528  0.26199  0.72491  1.0000
  C   C159      1.0  0.23989  0.20596  0.69462  1.0000
  H   H151      1.0  0.22394  0.24640  0.70379  1.0000
  H   H152      1.0  0.28235  0.20795  0.70941  1.0000
  H   H153      1.0  0.24436  0.27914  0.72128  1.0000
  H   H154      1.0  0.30317  0.24021  0.72743  1.0000
  H   H155      1.0  0.28444  0.27631  0.73250  1.0000
  H   H156      1.0  0.23647  0.19517  0.71714  1.0000
  H   H157      1.0  0.22387  0.21034  0.68312  1.0000
  H   H158      1.0  0.24939  0.19660  0.67543  1.0000
  C   C160      1.0  0.44825  0.19822  0.72207  1.0000
  C   C161      1.0  0.04272  0.22698  0.95414  1.0000
  C   C162      1.0  0.05176  0.30625  0.73819  1.0000
  N   N13       1.0  0.31946  0.10007  0.67535  1.0000
  C   C163      1.0  0.29788  0.09552  0.66957  1.0000
  C   C164      1.0  0.33453  0.09984  0.64920  1.0000
  C   C165      1.0  0.29105  0.08988  0.63716  1.0000
  C   C166      1.0  0.32822  0.09448  0.61644  1.0000
  C   C167      1.0  0.30634  0.08946  0.61044  1.0000
  C   C168      1.0  0.32624  0.10644  0.70929  1.0000
  H   H159      1.0  0.28569  0.09679  0.68980  1.0000
  H   H160      1.0  0.01071  0.21650  0.93880  1.0000
  H   H161      1.0  0.22535  0.01743  0.82125  1.0000
  C   C169      1.0  0.37966  0.26210  0.59989  1.0000
  H   H162      1.0  0.46536  0.20509  0.94141  1.0000
  N   N14       1.0  0.08061  0.28311  0.71675  1.0000
  C   C170      1.0  0.36274  0.12656  0.52805  1.0000
  H   H163      1.0  0.20879  0.05354  0.91032  1.0000
  S   S60       1.0  0.04514  0.29255  0.99969  1.0000
  C   C171      1.0  0.46630  0.20440  0.78527  1.0000
  H   H164      1.0  0.41041  0.32632  0.62198  1.0000
  H   H165      1.0  0.41170  0.32356  0.57661  1.0000
  H   H166      1.0  0.12333  0.07277  0.97452  1.0000
  C   C172      1.0  0.39708  0.27697  0.59771  1.0000
  C   C173      1.0  0.13268  0.08842  0.64442  1.0000
  C   C174      1.0  0.05868  0.06513  0.98158  1.0000
  C   C175      1.0  0.13546  0.08565  0.57433  1.0000
  H   H167      1.0  0.47304  0.20618  0.81040  1.0000
  C   C176      1.0  0.09915  0.32806  0.77046  1.0000
  H   H168      1.0  0.04527  0.09793  0.97867  1.0000
  C   C177      1.0  0.46351  0.02216  0.00338  1.0000
  H   H169      1.0  0.49399  0.20999  0.94932  1.0000
  C   C178      1.0  0.22541  0.14518  0.52897  1.0000
  C   C179      1.0  0.44135  0.21597  0.74148  1.0000
  C   C180      1.0  0.39351  0.14969  0.54113  1.0000
  H   H170      1.0  0.06340  0.01708  0.97070  1.0000
  H   H171      1.0  0.26424  0.03836  0.97349  1.0000
  H   H172      1.0  0.13202  0.08945  0.67190  1.0000
  H   H173      1.0  0.13670  0.08505  0.54684  1.0000
  H   H174      1.0  0.11481  0.11420  0.57396  1.0000
  H   H175      1.0  0.08706  0.25105  0.73802  1.0000
  C   C181      1.0  0.43750  0.03666  0.96465  1.0000
  C   C182      1.0  0.12299  0.10205  0.58981  1.0000
  H   H176      1.0  0.48550  0.16963  0.69861  1.0000
  H   H177      1.0  0.45745  0.16009  0.69623  1.0000
  H   H178      1.0  0.05880  0.27401  0.75765  1.0000
  C   C183      1.0  0.02568  0.21191  0.95169  1.0000
  N   N15       1.0  0.47279  0.23581  0.96352  1.0000
  H   H179      1.0  0.11073  0.26597  0.72257  1.0000
  C   C184      1.0  0.24679  0.13703  0.52671  1.0000
  C   C185      1.0  0.21982  0.03244  0.83296  1.0000
  H   H180      1.0  0.18543  0.08612  0.90138  1.0000
  H   H181      1.0  0.15669  0.05784  0.58285  1.0000
  S   S61       1.0  0.17957  0.30812  0.64113  1.0000
  N   N16       1.0  0.12177  0.10330  0.62442  1.0000
  C   C186      1.0  0.14670  0.07046  0.59450  1.0000
  C   C187      1.0  0.10869  0.12084  0.63973  1.0000
  H   H182      1.0  0.18580  0.10015  0.86150  1.0000
  C   C188      1.0  0.02749  0.19136  0.96753  1.0000
  C   C189      1.0  0.08522  0.31947  0.79631  1.0000
  H   H183      1.0  0.40379  0.15741  0.55951  1.0000
  H   H184      1.0  0.11529  0.13708  0.63132  1.0000
  C   C190      1.0  0.16521  0.12419  0.52933  1.0000
  H   H185      1.0  0.20226  0.08372  0.81270  1.0000
  S   S62       1.0  0.01097  0.32426  0.92344  1.0000
  H   H186      1.0  0.21012  0.10051  0.88744  1.0000
  C   C191      1.0  0.08659  0.29906  0.69360  1.0000
  H   H187      1.0  0.15416  0.06024  0.64580  1.0000
  H   H188      1.0  0.08761  0.03400  0.97314  1.0000
  H   H189      1.0  0.10548  0.10941  0.97370  1.0000
  H   H190      1.0  0.23952  0.31514  0.62767  1.0000
  H   H191      1.0  0.04745  0.17038  0.99870  1.0000
  H   H192      1.0  0.45888  0.21452  0.00158  1.0000
  H   H193      1.0  0.26367  0.31626  0.71144  1.0000
  C   C192      1.0  0.04639  0.18617  0.98571  1.0000
  H   H194      1.0  0.33883  0.29813  0.61862  1.0000
  Fe  Fe32      1.0  0.03865  0.33565  0.88827  1.0000
  N   N17       1.0  0.46343  0.18365  0.73433  1.0000
  H   H195      1.0  0.08695  0.30253  0.80447  1.0000
  C   C193      1.0  0.42136  0.02249  0.97793  1.0000
  H   H196      1.0  0.38273  0.24466  0.59755  1.0000
  H   H197      1.0  0.21802  0.14850  0.55364  1.0000
  H   H198      1.0  0.48420  0.04288  0.94232  1.0000
  H   H199      1.0  0.48067  0.29041  0.97128  1.0000
  H   H200      1.0  0.48450  0.17503  0.77526  1.0000
  H   H201      1.0  0.11170  0.31785  0.75919  1.0000
  C   C194      1.0  0.07550  0.31916  0.69250  1.0000
  H   H202      1.0  0.22239  0.01957  0.88418  1.0000
  C   C195      1.0  0.35503  0.29207  0.61182  1.0000
  Fe  Fe33      1.0  0.18560  0.01282  0.95002  1.0000
  H   H203      1.0  0.48810  0.26018  0.93168  1.0000
  N   N18       1.0  0.20439  0.07044  0.86305  1.0000
  H   H204      1.0  0.44117  0.19610  0.69729  1.0000
  C   C196      1.0  0.26353  0.02207  0.98478  1.0000
  S   S63       1.0  0.04878  0.32003  0.83830  1.0000
  H   H205      1.0  0.10024  0.29635  0.67616  1.0000
  Fe  Fe34      1.0  0.18382  0.32311  0.69190  1.0000
  H   H206      1.0  0.42894  0.22718  0.73187  1.0000
  H   H207      1.0  0.42797  0.30593  0.60389  1.0000
  C   C197      1.0  0.25843  0.33286  0.70594  1.0000
  H   H208      1.0  0.01391  0.17992  0.96716  1.0000
  C   C198      1.0  0.19619  0.09037  0.87913  1.0000
  C   C199      1.0  0.21030  0.05284  0.88291  1.0000
  S   S64       1.0  0.21667  0.31755  0.71602  1.0000
  H   H209      1.0  0.06892  0.06752  0.95903  1.0000
  C   C200      1.0  0.35855  0.26971  0.60735  1.0000
  C   C201      1.0  0.45038  0.21899  0.77335  1.0000
  N   N19       1.0  0.45820  0.03651  0.97764  1.0000
  H   H210      1.0  0.07399  0.23352  0.97581  1.0000
  H   H211      1.0  0.09214  0.25424  0.69302  1.0000
  H   H212      1.0  0.43317  0.04821  0.94457  1.0000
  H   H213      1.0  0.09698  0.20438  0.99942  1.0000
  H   H214      1.0  0.21529  0.04994  0.78542  1.0000
  H   H215      1.0  0.37001  0.32379  0.61311  1.0000
  C   C202      1.0  0.47058  0.16516  0.71366  1.0000
  S   S65       1.0  0.22185  0.02099  0.95909  1.0000
  H   H216      1.0  0.47404  0.15051  0.72999  1.0000
  C   C203      1.0  0.06338  0.28643  0.73882  1.0000
  H   H217      1.0  0.34906  0.11647  0.53640  1.0000
  H   H218      1.0  0.46767  0.06657  0.95277  1.0000
  C   C204      1.0  0.01042  0.26259  0.00032  1.0000
  H   H219      1.0  0.41353  0.27076  0.59317  1.0000
  H   H220      1.0  0.14705  0.32283  0.83183  1.0000
  C   C205      1.0  0.24452  0.00932  0.98110  1.0000
  C   C206      1.0  0.21805  0.03359  0.86821  1.0000
  C   C207      1.0  0.04525  0.08234  0.99240  1.0000
  C   C208      1.0  0.47492  0.27394  0.97737  1.0000
  C   C209      1.0  0.21430  0.05067  0.81290  1.0000
  C   C210      1.0  0.46267  0.23132  0.99411  1.0000
  H   H221      1.0  0.27917  0.32294  0.61638  1.0000
  C   C211      1.0  0.11320  0.07776  0.99583  1.0000
  C   C212      1.0  0.42661  0.00793  0.00431  1.0000
  C   C213      1.0  0.10308  0.09851  0.99542  1.0000
  H   H222      1.0  0.40473  0.02319  0.96847  1.0000
  N   N20       1.0  0.06304  0.20102  0.98793  1.0000
  C   C214      1.0  0.06860  0.33242  0.81088  1.0000
  H   H223      1.0  0.29591  0.02429  0.00644  1.0000
  C   C215      1.0  0.07302  0.02770  0.98746  1.0000
  S   S66       1.0  0.50033  0.12102  0.92615  1.0000
  H   H224      1.0  0.08085  0.33210  0.67501  1.0000
  H   H225      1.0  0.48048  0.22343  0.91414  1.0000
  C   C216      1.0  0.28158  0.01413  0.00344  1.0000
  S   S67       1.0  0.12960  0.32879  0.64210  1.0000
  H   H226      1.0  0.12164  0.32409  0.88206  1.0000
  H   H227      1.0  0.48680  0.05627  0.98267  1.0000
  C   C217      1.0  0.24491  0.33153  0.62050  1.0000
  C   C218      1.0  0.14369  0.15586  0.51272  1.0000
  H   H228      1.0  0.13439  0.17030  0.51951  1.0000
  C   C219      1.0  0.41188  0.31430  0.60116  1.0000
  Fe  Fe35      1.0  0.34479  0.33423  0.69279  1.0000
  C   C220      1.0  0.26707  0.33591  0.61411  1.0000
  S   S68       1.0  0.17151  0.00341  0.89959  1.0000
  H   H229      1.0  0.33186  0.35666  0.50569  1.0000
  S   S69       1.0  0.36425  0.35644  0.34606  1.0000
  N   N21       1.0  0.42959  0.46368  0.04159  1.0000
  H   H230      1.0  0.32239  0.38642  0.43486  1.0000
  C   C221      1.0  0.38706  0.35333  0.49339  1.0000
  H   H231      1.0  0.24493  0.35965  0.42330  1.0000
  S   S70       1.0  0.42179  0.36507  0.29478  1.0000
  Fe  Fe36      1.0  0.21351  0.37427  0.34562  1.0000
  S   S71       1.0  0.18164  0.39285  0.35041  1.0000
  S   S72       1.0  0.24724  0.38883  0.34762  1.0000
  C   C222      1.0  0.45129  0.43743  0.07268  1.0000
  C   C223      1.0  0.02617  0.41963  0.02681  1.0000
  Fe  Fe37      1.0  0.17253  0.37431  0.30391  1.0000
  S   S73       1.0  0.15687  0.38710  0.25546  1.0000
  Fe  Fe38      1.0  0.17008  0.36288  0.38042  1.0000
  S   S74       1.0  0.14713  0.35861  0.42608  1.0000
  S   S75       1.0  0.20505  0.35758  0.29760  1.0000
  C   C224      1.0  0.41182  0.43700  0.07826  1.0000
  Fe  Fe39      1.0  0.02696  0.62801  0.09162  1.0000
  S   S76       1.0  0.15801  0.34598  0.33402  1.0000
  S   S77       1.0  0.05516  0.60848  0.11571  1.0000
  H   H232      1.0  0.11695  0.42710  0.26712  1.0000
  H   H233      1.0  0.32999  0.38012  0.39187  1.0000
  Fe  Fe40      1.0  0.37266  0.33897  0.39514  1.0000
  N   N22       1.0  0.29938  0.36687  0.40957  1.0000
  C   C225      1.0  0.10501  0.40705  0.15660  1.0000
  Fe  Fe41      1.0  0.14349  0.51156  0.07298  1.0000
  S   S78       1.0  0.14749  0.48528  0.03381  1.0000
  S   S79       1.0  0.12586  0.54218  0.05225  1.0000
  Fe  Fe42      1.0  0.16691  0.48274  0.12619  1.0000
  S   S80       1.0  0.17253  0.45509  0.09055  1.0000
  S   S81       1.0  0.17692  0.47835  0.18120  1.0000
  Fe  Fe43      1.0  0.18224  0.48141  0.05234  1.0000
  H   H234      1.0  0.21305  0.56418  0.03279  1.0000
  Fe  Fe44      1.0  0.13775  0.46153  0.07538  1.0000
  S   S82       1.0  0.11194  0.43488  0.07695  1.0000
  S   S83       1.0  0.17898  0.50908  0.08905  1.0000
  S   S84       1.0  0.13147  0.48786  0.11333  1.0000
  C   C226      1.0  0.10611  0.42115  0.03934  1.0000
  H   H235      1.0  0.02104  0.41605  0.05281  1.0000
  C   C227      1.0  0.14213  0.34966  0.49438  1.0000
  C   C228      1.0  0.36478  0.35334  0.48550  1.0000
  C   C229      1.0  0.23768  0.48314  0.01120  1.0000
  C   C230      1.0  0.08928  0.40550  0.03968  1.0000
  H   H236      1.0  0.27610  0.51368  0.05084  1.0000
  H   H237      1.0  0.43978  0.38163  0.03889  1.0000
  C   C231      1.0  0.43535  0.39476  0.02147  1.0000
  N   N23       1.0  0.10827  0.42337  0.18285  1.0000
  H   H238      1.0  0.23721  0.50154  0.05721  1.0000
  C   C232      1.0  0.17794  0.36283  0.47643  1.0000
  H   H239      1.0  0.46976  0.34737  0.29994  1.0000
  C   C233      1.0  0.18318  0.54858  0.01836  1.0000
  C   C234      1.0  0.11722  0.42624  0.00891  1.0000
  C   C235      1.0  0.07310  0.58848  0.09757  1.0000
  C   C236      1.0  0.08658  0.57581  0.11907  1.0000
  C   C237      1.0  0.10210  0.56086  0.10578  1.0000
  C   C238      1.0  0.10474  0.55875  0.07064  1.0000
  C   C239      1.0  0.09117  0.57132  0.04913  1.0000
  C   C240      1.0  0.07523  0.58582  0.06245  1.0000
  H   H240      1.0  0.08516  0.57773  0.14626  1.0000
  H   H241      1.0  0.11249  0.55151  0.12273  1.0000
  C   C241      1.0  0.26197  0.35544  0.41832  1.0000
  H   H242      1.0  0.06497  0.59531  0.04549  1.0000
  H   H243      1.0  0.41726  0.49514  0.02715  1.0000
  S   S85       1.0  0.47977  0.40265  0.01278  1.0000
  S   S86       1.0  0.01857  0.66276  0.10734  1.0000
  H   H244      1.0  0.12188  0.46631  0.25009  1.0000
  H   H245      1.0  0.09172  0.41239  0.13926  1.0000
  C   C242      1.0  0.16474  0.41193  0.23503  1.0000
  C   C243      1.0  0.17268  0.42967  0.25309  1.0000
  C   C244      1.0  0.17643  0.44996  0.23635  1.0000
  C   C245      1.0  0.17230  0.45264  0.20152  1.0000
  C   C246      1.0  0.16475  0.43475  0.18347  1.0000
  C   C247      1.0  0.16111  0.41449  0.20012  1.0000
  H   H246      1.0  0.17522  0.42798  0.28013  1.0000
  H   H247      1.0  0.18225  0.46374  0.25051  1.0000
  H   H248      1.0  0.16148  0.43655  0.15672  1.0000
  H   H249      1.0  0.15498  0.40084  0.18598  1.0000
  C   C248      1.0  0.23020  0.41036  0.27089  1.0000
  C   C249      1.0  0.30540  0.34576  0.40287  1.0000
  S   S87       1.0  0.35547  0.35059  0.44344  1.0000
  C   C250      1.0  0.24704  0.49634  0.03571  1.0000
  H   H250      1.0  0.11834  0.47761  0.18953  1.0000
  C   C251      1.0  0.31593  0.38426  0.40894  1.0000
  S   S88       1.0  0.02418  0.63617  0.03614  1.0000
  C   C252      1.0  0.45868  0.36267  0.20749  1.0000
  C   C253      1.0  0.44953  0.36907  0.23895  1.0000
  H   H251      1.0  0.47291  0.37106  0.19691  1.0000
  H   H252      1.0  0.45673  0.38255  0.25225  1.0000
  Fe  Fe45      1.0  0.49147  0.37694  0.05046  1.0000
  H   H253      1.0  0.08014  0.64982  0.11794  1.0000
  C   C254      1.0  0.07885  0.65898  0.09414  1.0000
  C   C255      1.0  0.26674  0.36942  0.33416  1.0000
  C   C256      1.0  0.28881  0.37536  0.32994  1.0000
  C   C257      1.0  0.30465  0.35948  0.32161  1.0000
  H   H254      1.0  0.24360  0.34282  0.33281  1.0000
  H   H255      1.0  0.21416  0.40912  0.28456  1.0000
  H   H256      1.0  0.29372  0.39216  0.33350  1.0000
  H   H257      1.0  0.32163  0.36415  0.31834  1.0000
  C   C258      1.0  0.42791  0.48191  0.01696  1.0000
  C   C259      1.0  0.11080  0.44488  0.17331  1.0000
  C   C260      1.0  0.11550  0.46069  0.19737  1.0000
  H   H258      1.0  0.21572  0.43792  0.14397  1.0000
  C   C261      1.0  0.41314  0.40010  0.01651  1.0000
  C   C262      1.0  0.27804  0.37178  0.41769  1.0000
  C   C263      1.0  0.07906  0.65986  0.03294  1.0000
  H   H259      1.0  0.10051  0.39075  0.16758  1.0000
  H   H260      1.0  0.39484  0.46080  0.04760  1.0000
  C   C264      1.0  0.11008  0.41700  0.21620  1.0000
  C   C265      1.0  0.26912  0.50319  0.03204  1.0000
  H   H261      1.0  0.08504  0.63082  0.06344  1.0000
  H   H262      1.0  0.40048  0.39101  0.03018  1.0000
  C   C266      1.0  0.15657  0.35686  0.46830  1.0000
  H   H263      1.0  0.21541  0.38671  0.22031  1.0000
  N   N24       1.0  0.22692  0.41788  0.23578  1.0000
  C   C267      1.0  0.23050  0.43935  0.22670  1.0000
  C   C268      1.0  0.21915  0.40350  0.21268  1.0000
  C   C269      1.0  0.22677  0.44679  0.19346  1.0000
  C   C270      1.0  0.21539  0.41036  0.17916  1.0000
  C   C271      1.0  0.21926  0.43215  0.16956  1.0000
  Fe  Fe46      1.0  0.39697  0.34464  0.32556  1.0000
  H   H264      1.0  0.23585  0.45096  0.24528  1.0000
  H   H265      1.0  0.39684  0.42952  0.08814  1.0000
  H   H266      1.0  0.22891  0.46396  0.18652  1.0000
  C   C272      1.0  0.44975  0.34501  0.19035  1.0000
  H   H267      1.0  0.46453  0.46145  0.03774  1.0000
  C   C273      1.0  0.43223  0.42835  0.08703  1.0000
  H   H268      1.0  0.23833  0.39402  0.27162  1.0000
  H   H269      1.0  0.09305  0.56991  0.02193  1.0000
  H   H270      1.0  0.20890  0.39902  0.16103  1.0000
  H   H271      1.0  0.10905  0.39983  0.22374  1.0000
  H   H272      1.0  0.30895  0.39998  0.39933  1.0000
  C   C274      1.0  0.08151  0.64823  0.06345  1.0000
  C   C275      1.0  0.41080  0.45472  0.05528  1.0000
  H   H273      1.0  0.10978  0.44979  0.14678  1.0000
  H   H274      1.0  0.12035  0.40528  0.14117  1.0000
  C   C276      1.0  0.11462  0.43239  0.24097  1.0000
  H   H275      1.0  0.27316  0.38855  0.42244  1.0000
  H   H276      1.0  0.46718  0.43016  0.07806  1.0000
  H   H277      1.0  0.12551  0.34516  0.48834  1.0000
  H   H278      1.0  0.39926  0.35114  0.47349  1.0000
  C   C277      1.0  0.29842  0.33767  0.31729  1.0000
  C   C278      1.0  0.11749  0.45434  0.23138  1.0000
  C   C279      1.0  0.20586  0.55211  0.01653  1.0000
  H   H279      1.0  0.08075  0.40137  0.06323  1.0000
  H   H280      1.0  0.18915  0.36852  0.45661  1.0000
  S   S89       1.0  0.20295  0.34639  0.37974  1.0000
  H   H281      1.0  0.24092  0.42160  0.28500  1.0000
  C   C280      1.0  0.43148  0.35785  0.25366  1.0000
  Fe  Fe47      1.0  0.48691  0.34919  0.11528  1.0000
  S   S90       1.0  0.49607  0.38455  0.10549  1.0000
  C   C281      1.0  0.26048  0.34771  0.32911  1.0000
  H   H282      1.0  0.43326  0.41415  0.10395  1.0000
  H   H283      1.0  0.13033  0.43817  0.00850  1.0000
  C   C282      1.0  0.44966  0.45513  0.04974  1.0000
  C   C283      1.0  0.08313  0.39542  0.00954  1.0000
  C   C284      1.0  0.04393  0.43360  0.01978  1.0000
  S   S91       1.0  0.47949  0.34261  0.06030  1.0000
  S   S92       1.0  0.20942  0.47559  0.01257  1.0000
  H   H284      1.0  0.24950  0.54587  0.01821  1.0000
  H   H285      1.0  0.17284  0.55762  0.03596  1.0000
  H   H286      1.0  0.05250  0.44083  0.04071  1.0000
  C   C285      1.0  0.42224  0.34059  0.23603  1.0000
  H   H287      1.0  0.44411  0.48931  0.01050  1.0000
  H   H288      1.0  0.06990  0.38364  0.00991  1.0000
  H   H289      1.0  0.32226  0.34187  0.39610  1.0000
  H   H290      1.0  0.08044  0.65149  0.00897  1.0000
  Fe  Fe48      1.0  0.36424  0.36665  0.64111  1.0000
  Fe  Fe49      1.0  0.49131  0.63219  0.93140  1.0000
  S   S93       1.0  0.38688  0.36555  0.59461  1.0000
  Fe  Fe50      1.0  0.36283  0.37803  0.71707  1.0000
  S   S94       1.0  0.33096  0.36043  0.72594  1.0000
  S   S95       1.0  0.38035  0.39115  0.76300  1.0000
  C   C286      1.0  0.22969  0.34869  0.61896  1.0000
  Fe  Fe51      1.0  0.32101  0.37647  0.67708  1.0000
  S   S96       1.0  0.28670  0.38986  0.67436  1.0000
  S   S97       1.0  0.37776  0.35011  0.68790  1.0000
  S   S98       1.0  0.35205  0.39613  0.66986  1.0000
  H   H291      1.0  0.29207  0.42907  0.80209  1.0000
  S   S99       1.0  0.16977  0.35559  0.67620  1.0000
  H   H292      1.0  0.30784  0.43997  0.85716  1.0000
  H   H293      1.0  0.42069  0.47612  0.99307  1.0000
  H   H294      1.0  0.01364  0.40723  0.94580  1.0000
  S   S100      1.0  0.30904  0.50804  0.99859  1.0000
  S   S101      1.0  0.11301  0.36113  0.72567  1.0000
  H   H295      1.0  0.43947  0.56995  0.86174  1.0000
  H   H296      1.0  0.14829  0.35435  0.79081  1.0000
  S   S102      1.0  0.45841  0.61725  0.91600  1.0000
  H   H297      1.0  0.39657  0.48505  0.84739  1.0000
  Fe  Fe52      1.0  0.35745  0.47946  0.89928  1.0000
  S   S103      1.0  0.33835  0.46229  0.94123  1.0000
  S   S104      1.0  0.34910  0.47511  0.84383  1.0000
  Fe  Fe53      1.0  0.38700  0.50427  0.94767  1.0000
  H   H298      1.0  0.24539  0.56067  0.97849  1.0000
  S   S105      1.0  0.41998  0.52195  0.95335  1.0000
  Fe  Fe54      1.0  0.37135  0.45752  0.96511  1.0000
  C   C287      1.0  0.18454  0.36234  0.51052  1.0000
  Fe  Fe55      1.0  0.33792  0.49490  0.96663  1.0000
  S   S106      1.0  0.08507  0.39048  0.94018  1.0000
  S   S107      1.0  0.39039  0.47196  0.92115  1.0000
  S   S108      1.0  0.35497  0.51291  0.92269  1.0000
  H   H299      1.0  0.07979  0.45431  0.00194  1.0000
  Fe  Fe56      1.0  0.05744  0.36581  0.94051  1.0000
  C   C288      1.0  0.25081  0.47660  0.98344  1.0000
  S   S109      1.0  0.03324  0.37137  0.89887  1.0000
  C   C289      1.0  0.31272  0.40053  0.79773  1.0000
  H   H300      1.0  0.09818  0.35665  0.89061  1.0000
  H   H301      1.0  0.07909  0.38686  0.86154  1.0000
  C   C290      1.0  0.39358  0.35703  0.52696  1.0000
  S   S110      1.0  0.03225  0.35648  0.98029  1.0000
  S   S111      1.0  0.49752  0.63839  0.98626  1.0000
  C   C291      1.0  0.42109  0.50739  0.86504  1.0000
  H   H302      1.0  0.20593  0.38375  0.62785  1.0000
  H   H303      1.0  0.26344  0.39070  0.59972  1.0000
  H   H304      1.0  0.21240  0.36425  0.70189  1.0000
  H   H305      1.0  0.22755  0.40303  0.61995  1.0000
  S   S112      1.0  0.37956  0.42563  0.99221  1.0000
  H   H306      1.0  0.33627  0.37431  0.79949  1.0000
  H   H307      1.0  0.41940  0.44247  0.95995  1.0000
  C   C292      1.0  0.20976  0.52505  0.97436  1.0000
  C   C293      1.0  0.44756  0.59133  0.92959  1.0000
  C   C294      1.0  0.42509  0.58694  0.92522  1.0000
  C   C295      1.0  0.41619  0.56600  0.93292  1.0000
  C   C296      1.0  0.42969  0.54917  0.94527  1.0000
  C   C297      1.0  0.45206  0.55367  0.95017  1.0000
  C   C298      1.0  0.46094  0.57457  0.94247  1.0000
  H   H308      1.0  0.41454  0.59981  0.91553  1.0000
  H   H309      1.0  0.39895  0.56290  0.92917  1.0000
  C   C299      1.0  0.34912  0.35651  0.51160  1.0000
  H   H310      1.0  0.47822  0.57763  0.94599  1.0000
  C   C300      1.0  0.09644  0.34968  0.75879  1.0000
  C   C301      1.0  0.08017  0.36278  0.77397  1.0000
  C   C302      1.0  0.06638  0.35424  0.79999  1.0000
  H   H311      1.0  0.42996  0.49496  0.87937  1.0000
  H   H312      1.0  0.04973  0.33851  0.71518  1.0000
  H   H313      1.0  0.07795  0.37951  0.76509  1.0000
  H   H314      1.0  0.05337  0.36424  0.81056  1.0000
  C   C303      1.0  0.33024  0.41255  0.85914  1.0000
  C   C304      1.0  0.17002  0.35542  0.53668  1.0000
  H   H315      1.0  0.45852  0.43316  0.96861  1.0000
  N   N25       1.0  0.33835  0.39462  0.84274  1.0000
  C   C305      1.0  0.14887  0.34874  0.52842  1.0000
  C   C306      1.0  0.12252  0.33776  0.86407  1.0000
  C   C307      1.0  0.22952  0.35982  0.70018  1.0000
  C   C308      1.0  0.24521  0.37584  0.69130  1.0000
  C   C309      1.0  0.26748  0.37026  0.68896  1.0000
  C   C310      1.0  0.27407  0.34877  0.69657  1.0000
  C   C311      1.0  0.11112  0.41610  0.97879  1.0000
  H   H316      1.0  0.12428  0.38633  0.80000  1.0000
  H   H317      1.0  0.24007  0.39248  0.68580  1.0000
  C   C312      1.0  0.25802  0.37403  0.60476  1.0000
  H   H318      1.0  0.46269  0.54083  0.95975  1.0000
  C   C313      1.0  0.37295  0.41578  0.78327  1.0000
  C   C314      1.0  0.35684  0.42982  0.77029  1.0000
  C   C315      1.0  0.35021  0.44836  0.78860  1.0000
  C   C316      1.0  0.35927  0.45275  0.82031  1.0000
  C   C317      1.0  0.37568  0.43895  0.83299  1.0000
  C   C318      1.0  0.38268  0.42073  0.81429  1.0000
  H   H319      1.0  0.34933  0.42627  0.74633  1.0000
  H   H320      1.0  0.33759  0.45903  0.77853  1.0000
  H   H321      1.0  0.38287  0.44217  0.85729  1.0000
  H   H322      1.0  0.39533  0.41006  0.82433  1.0000
  C   C319      1.0  0.30470  0.41912  0.81389  1.0000
  C   C320      1.0  0.37791  0.36041  0.55298  1.0000
  N   N26       1.0  0.23640  0.36967  0.61181  1.0000
  C   C321      1.0  0.09385  0.40094  0.97895  1.0000
  C   C322      1.0  0.32961  0.38835  0.81268  1.0000
  H   H323      1.0  0.29092  0.36105  0.60186  1.0000
  H   H324      1.0  0.22005  0.51528  0.95774  1.0000
  H   H325      1.0  0.34343  0.36256  0.56496  1.0000
  H   H326      1.0  0.21259  0.34522  0.62468  1.0000
  C   C323      1.0  0.04010  0.42835  0.96061  1.0000
  C   C324      1.0  0.12392  0.37291  0.81847  1.0000
  H   H327      1.0  0.09218  0.40122  0.82681  1.0000
  H   H328      1.0  0.13750  0.34357  0.54836  1.0000
  H   H329      1.0  0.41086  0.35765  0.53267  1.0000
  C   C325      1.0  0.31344  0.42517  0.84484  1.0000
  H   H330      1.0  0.36630  0.39175  0.87464  1.0000
  H   H331      1.0  0.11957  0.42033  0.95521  1.0000
  H   H332      1.0  0.36741  0.37540  0.83762  1.0000
  H   H333      1.0  0.33727  0.41768  0.88283  1.0000
  H   H334      1.0  0.18021  0.50824  0.96052  1.0000
  C   C326      1.0  0.23608  0.33823  0.70711  1.0000
  C   C327      1.0  0.35612  0.38165  0.85778  1.0000
  H   H335      1.0  0.20088  0.36764  0.51670  1.0000
  S   S113      1.0  0.36994  0.48894  0.99346  1.0000
  H   H336      1.0  0.34922  0.36760  0.87269  1.0000
  C   C328      1.0  0.44587  0.42386  0.98195  1.0000
  H   H337      1.0  0.29118  0.34423  0.69459  1.0000
  C   C329      1.0  0.40226  0.50188  0.84747  1.0000
  H   H338      1.0  0.28264  0.47836  0.95815  1.0000
  H   H339      1.0  0.24378  0.46639  0.96431  1.0000
  C   C330      1.0  0.27291  0.48330  0.97992  1.0000
  C   C331      1.0  0.10914  0.35615  0.86866  1.0000
  C   C332      1.0  0.09532  0.39218  0.85100  1.0000
  C   C333      1.0  0.06875  0.45304  0.97985  1.0000
  C   C334      1.0  0.02210  0.41460  0.96673  1.0000
  H   H340      1.0  0.42870  0.57285  0.81973  1.0000
  C   C335      1.0  0.22030  0.38754  0.61098  1.0000
  C   C336      1.0  0.27368  0.35725  0.60588  1.0000
  S   S114      1.0  0.33213  0.34882  0.64432  1.0000
  N   N27       1.0  0.10964  0.37320  0.84564  1.0000
  C   C337      1.0  0.18717  0.52104  0.97568  1.0000
  H   H341      1.0  0.07907  0.44739  0.95818  1.0000
  H   H342      1.0  0.21424  0.38996  0.58472  1.0000
  C   C338      1.0  0.28217  0.49686  0.00401  1.0000
  N   N28       1.0  0.05074  0.43767  0.98699  1.0000
  H   H343      1.0  0.30634  0.39590  0.77332  1.0000
  N   N29       1.0  0.41674  0.54504  0.84742  1.0000
  C   C339      1.0  0.39803  0.53983  0.83065  1.0000
  C   C340      1.0  0.42816  0.52917  0.86473  1.0000
  C   C341      1.0  0.39050  0.51819  0.83044  1.0000
  S   S115      1.0  0.17876  0.35668  0.57924  1.0000
  C   C342      1.0  0.35562  0.35983  0.54524  1.0000
  C   C343      1.0  0.42454  0.56775  0.84625  1.0000
  H   H344      1.0  0.38879  0.55245  0.81736  1.0000
  H   H345      1.0  0.44265  0.53330  0.87889  1.0000
  H   H346      1.0  0.37554  0.51401  0.81742  1.0000
  C   C344      1.0  0.40730  0.41765  0.99488  1.0000
  H   H347      1.0  0.41169  0.57885  0.85655  1.0000
  C   C345      1.0  0.13678  0.33710  0.83602  1.0000
  C   C346      1.0  0.13762  0.35483  0.81314  1.0000
  Fe  Fe57      1.0  0.00794  0.36013  0.93776  1.0000
  C   C347      1.0  0.42372  0.42923  0.97713  1.0000
  H   H348      1.0  0.10291  0.40335  0.86937  1.0000
  C   C348      1.0  0.17383  0.53298  0.99769  1.0000
  Fe  Fe58      1.0  0.13733  0.34144  0.69402  1.0000
  H   H349      1.0  0.15629  0.52995  0.99912  1.0000
  H   H350      1.0  0.04563  0.43133  0.93464  1.0000
  H   H351      1.0  0.06208  0.46956  0.97373  1.0000
  C   C349      1.0  0.01514  0.41020  0.00005  1.0000
  H   H352      1.0  0.25159  0.53178  0.97908  1.0000
  S   S116      1.0  0.50253  0.66650  0.91555  1.0000
  Fe  Fe59      1.0  0.16353  0.33986  0.62600  1.0000
  N   N30       1.0  0.21884  0.54038  0.99473  1.0000
  C   C350      1.0  0.24244  0.54496  0.99245  1.0000
  C   C351      1.0  0.45176  0.40690  0.00456  1.0000
  H   H353      1.0  0.44764  0.79796  0.05918  1.0000
  S   S117      1.0  0.01854  0.80270  0.01063  1.0000
  H   H354      1.0  0.01015  0.73031  0.06676  1.0000
  C   C352      1.0  0.07385  0.68136  0.09386  1.0000
  S   S118      1.0  0.45670  0.87763  0.10243  1.0000
  N   N31       1.0  0.45684  0.82339  0.02383  1.0000
  H   H355      1.0  0.07138  0.68952  0.11782  1.0000
  Fe  Fe60      1.0  0.38269  0.99232  0.08165  1.0000
  S   S119      1.0  0.02409  0.69807  0.01588  1.0000
  S   S120      1.0  0.41583  0.97398  0.07970  1.0000
  C   C353      1.0  0.07417  0.68225  0.03358  1.0000
  C   C354      1.0  0.46141  0.80263  0.04171  1.0000
  S   S121      1.0  0.34997  0.98996  0.11002  1.0000
  H   H356      1.0  0.45900  0.95626  0.06886  1.0000
  H   H357      1.0  0.47664  0.80421  0.05653  1.0000
  C   C355      1.0  0.44639  0.83991  0.04069  1.0000
  C   C356      1.0  0.44546  0.90442  0.09537  1.0000
  C   C357      1.0  0.42306  0.90825  0.10259  1.0000
  C   C358      1.0  0.41357  0.92924  0.09763  1.0000
  C   C359      1.0  0.42644  0.94680  0.08556  1.0000
  C   C360      1.0  0.44880  0.94290  0.07812  1.0000
  C   C361      1.0  0.45823  0.92189  0.08279  1.0000
  H   H358      1.0  0.41297  0.89493  0.11238  1.0000
  H   H359      1.0  0.39639  0.93189  0.10358  1.0000
  H   H360      1.0  0.44142  0.83776  0.06713  1.0000
  H   H361      1.0  0.47546  0.91930  0.07708  1.0000
  H   H362      1.0  0.07918  0.72531  0.07761  1.0000
  S   S122      1.0  0.30241  0.98299  0.04465  1.0000
  H   H363      1.0  0.05021  0.71848  0.07781  1.0000
  H   H364      1.0  0.00894  0.77105  0.06384  1.0000
  C   C362      1.0  0.01327  0.73882  0.04286  1.0000
  C   C363      1.0  0.01254  0.76197  0.04111  1.0000
  H   H365      1.0  0.06451  0.72332  0.03851  1.0000
  H   H366      1.0  0.46395  0.78902  0.02366  1.0000
  S   S123      1.0  0.50173  0.86420  0.03396  1.0000
  C   C364      1.0  0.01901  0.72690  0.01405  1.0000
  Fe  Fe61      1.0  0.33438  0.99972  0.06006  1.0000
  H   H367      1.0  0.26152  0.96390  0.02527  1.0000
  N   N32       1.0  0.07164  0.69271  0.06382  1.0000
  Fe  Fe62      1.0  0.49165  0.86639  0.08874  1.0000
  C   C365      1.0  0.06624  0.71612  0.06450  1.0000
  C   C366      1.0  0.26215  0.98020  0.01400  1.0000
  H   H368      1.0  0.22168  0.98379  0.08020  1.0000
  C   C367      1.0  0.28093  0.99318  0.01845  1.0000
  S   S124      1.0  0.36673  0.99953  0.03131  1.0000
  H   H369      1.0  0.43447  0.87325  0.03815  1.0000
  H   H370      1.0  0.50221  0.73112  0.06023  1.0000
  H   H371      1.0  0.41428  0.99691  0.01501  1.0000
  C   C368      1.0  0.44248  0.86009  0.02444  1.0000
  H   H372      1.0  0.45178  0.99656  0.03801  1.0000
  H   H373      1.0  0.25891  0.98481  0.10457  1.0000
  C   C369      1.0  0.01672  0.77351  0.01035  1.0000
  C   C370      1.0  0.25213  0.99926  0.09208  1.0000
  H   H374      1.0  0.19991  0.99983  0.03071  1.0000
  C   C371      1.0  0.23122  0.99874  0.07795  1.0000
  Fe  Fe63      1.0  0.01295  0.66992  0.05163  1.0000
  H   H375      1.0  0.07172  0.69105  0.00973  1.0000
  C   C372      1.0  0.06572  0.94437  0.94763  1.0000
  C   C373      1.0  0.10401  0.94153  0.92895  1.0000
  C   C374      1.0  0.46069  0.84668  0.97418  1.0000
  Fe  Fe64      1.0  0.01860  0.87725  0.94572  1.0000
  S   S125      1.0  0.03530  0.91090  0.94965  1.0000
  S   S126      1.0  0.02742  0.84392  0.92511  1.0000
  H   H376      1.0  0.08891  0.97131  0.94593  1.0000
  Fe  Fe65      1.0  0.14377  0.98734  0.93059  1.0000
  C   C375      1.0  0.02304  0.73841  0.98327  1.0000
  S   S127      1.0  0.13047  0.95303  0.91963  1.0000
  C   C376      1.0  0.02159  0.76151  0.98126  1.0000
  C   C377      1.0  0.10041  0.91911  0.92317  1.0000
  H   H377      1.0  0.02519  0.77007  0.95755  1.0000
  C   C378      1.0  0.04524  0.85777  0.84030  1.0000
  H   H378      1.0  0.02444  0.92538  0.88055  1.0000
  H   H379      1.0  0.11384  0.90919  0.91375  1.0000
  C   C379      1.0  0.08647  0.95408  0.94136  1.0000
  C   C380      1.0  0.07970  0.90934  0.92975  1.0000
  H   H380      1.0  0.07745  0.89204  0.92564  1.0000
  C   C381      1.0  0.06214  0.92195  0.94190  1.0000
  S   S128      1.0  0.15969  0.99453  0.98062  1.0000
  N   N33       1.0  0.03061  0.87686  0.84140  1.0000
  H   H381      1.0  0.05234  0.95433  0.95705  1.0000
  H   H382      1.0  0.05682  0.85741  0.86181  1.0000
  C   C382      1.0  0.02105  0.91212  0.86343  1.0000
  H   H383      1.0  0.47305  0.81377  0.97803  1.0000
  H   H384      1.0  0.03547  0.84238  0.84212  1.0000
  H   H385      1.0  0.05489  0.85798  0.81615  1.0000
  Fe  Fe66      1.0  0.00946  0.82906  0.97094  1.0000
  H   H386      1.0  0.04902  0.89332  0.87890  1.0000
  H   H387      1.0  0.46691  0.84928  0.94849  1.0000
  C   C383      1.0  0.03494  0.89386  0.86242  1.0000
  H   H388      1.0  0.44735  0.87931  0.97859  1.0000
  H   H389      1.0  0.00947  0.86426  0.80389  1.0000
  C   C384      1.0  0.46411  0.82661  0.99107  1.0000
  C   C385      1.0  0.44976  0.86350  0.99104  1.0000
  H   H390      1.0  0.02764  0.72943  0.96084  1.0000
  H   H391      1.0  0.22967  0.97806  0.99266  1.0000
  C   C386      1.0  0.24400  0.98822  0.99561  1.0000
  C   C387      1.0  0.01287  0.87773  0.82060  1.0000
  H   H392      1.0  0.97695  0.06573  0.15490  1.0000
  S   S129      1.0  0.52682  0.30439  0.02126  1.0000
  C   C388      1.0  0.75841  0.02217  0.01941  1.0000
  S   S130      1.0  0.89131  0.04878  0.11080  1.0000
  S   S131      1.0  0.50774  0.20103  0.02114  1.0000
  H   H393      1.0  0.59744  0.04269  0.02182  1.0000
  H   H394      1.0  0.59122  0.10129  0.00886  1.0000
  H   H395      1.0  0.99149  0.15583  0.19091  1.0000
  Fe  Fe67      1.0  0.87860  0.01461  0.09798  1.0000
  S   S132      1.0  0.99906  0.15353  0.11397  1.0000
  C   C389      1.0  0.77745  0.01358  0.03489  1.0000
  S   S133      1.0  0.98725  0.08890  0.08202  1.0000
  H   H396      1.0  0.75707  0.03964  0.01467  1.0000
  C   C390      1.0  0.96468  0.11399  0.19241  1.0000
  C   C391      1.0  0.74122  0.00835  0.00966  1.0000
  H   H397      1.0  0.93251  0.02971  0.08508  1.0000
  S   S134      1.0  0.86473  0.00838  0.04623  1.0000
  H   H398      1.0  0.95051  0.12362  0.20003  1.0000
  C   C392      1.0  0.57418  0.33182  0.05204  1.0000
  C   C393      1.0  0.91779  0.05995  0.10092  1.0000
  C   C394      1.0  0.92167  0.08239  0.10606  1.0000
  C   C395      1.0  0.94257  0.09174  0.09950  1.0000
  C   C396      1.0  0.96000  0.07866  0.08816  1.0000
  C   C397      1.0  0.95610  0.05625  0.08295  1.0000
  C   C398      1.0  0.93516  0.04697  0.08910  1.0000
  H   H399      1.0  0.90836  0.09262  0.11505  1.0000
  H   H400      1.0  0.94520  0.10900  0.10354  1.0000
  H   H401      1.0  0.96940  0.04593  0.07423  1.0000
  H   H402      1.0  0.79054  0.02442  0.04197  1.0000
  C   C399      1.0  0.59690  0.05987  0.03079  1.0000
  Fe  Fe68      1.0  0.51478  0.33215  0.05575  1.0000
  C   C400      1.0  0.00051  0.24246  0.01007  1.0000
  C   C401      1.0  0.97938  0.08131  0.16713  1.0000
  C   C402      1.0  0.00050  0.08961  0.17069  1.0000
  C   C403      1.0  0.96132  0.09355  0.17796  1.0000
  H   H403      1.0  0.94482  0.08743  0.17432  1.0000
  C   C404      1.0  0.51427  0.22954  0.02106  1.0000
  H   H404      1.0  0.57978  0.06571  0.02725  1.0000
  C   C405      1.0  0.52203  0.27553  0.02236  1.0000
  C   C406      1.0  0.50781  0.24205  0.04922  1.0000
  C   C407      1.0  0.98880  0.14333  0.21145  1.0000
  H   H405      1.0  0.56562  0.31673  0.05874  1.0000
  N   N34       1.0  0.98549  0.12177  0.19664  1.0000
  H   H406      1.0  0.97454  0.14836  0.22740  1.0000
  C   C408      1.0  0.51149  0.26488  0.04981  1.0000
  H   H407      1.0  0.50619  0.27421  0.07153  1.0000
  H   H408      1.0  0.60083  0.06004  0.05817  1.0000
  H   H409      1.0  0.58186  0.31769  0.11369  1.0000
  S   S135      1.0  0.99866  0.20148  0.04096  1.0000
  C   C409      1.0  0.58420  0.33571  0.11170  1.0000
  N   N35       1.0  0.61260  0.07351  0.01136  1.0000
  C   C410      1.0  0.00328  0.10999  0.18562  1.0000
  H   H410      1.0  0.63677  0.04819  0.00919  1.0000
  H   H411      1.0  0.00349  0.14317  0.22788  1.0000
  H   H412      1.0  0.62347  0.06613  0.91326  1.0000
  C   C411      1.0  0.52498  0.24016  0.99370  1.0000
  S   S136      1.0  0.60736  0.02738  0.95230  1.0000
  H   H413      1.0  0.83675  0.01076  0.97917  1.0000
  C   C412      1.0  0.64263  0.09926  0.97486  1.0000
  Fe  Fe69      1.0  0.53232  0.13607  0.94179  1.0000
  C   C413      1.0  0.62220  0.10783  0.98419  1.0000
  S   S137      1.0  0.56627  0.12283  0.92585  1.0000
  H   H414      1.0  0.60677  0.10296  0.90347  1.0000
  H   H415      1.0  0.56511  0.04576  0.96741  1.0000
  S   S138      1.0  0.52135  0.17093  0.92924  1.0000
  H   H416      1.0  0.53029  0.23082  0.97202  1.0000
  C   C414      1.0  0.57428  0.05820  0.95339  1.0000
  C   C415      1.0  0.63272  0.06508  0.00275  1.0000
  C   C416      1.0  0.57656  0.09555  0.93051  1.0000
  H   H417      1.0  0.98436  0.23862  0.00091  1.0000
  C   C417      1.0  0.56487  0.07916  0.94826  1.0000
  H   H418      1.0  0.65410  0.10912  0.95982  1.0000
  H   H419      1.0  0.53727  0.27095  0.97322  1.0000
  S   S139      1.0  0.67237  0.01294  0.91939  1.0000
  H   H420      1.0  0.54865  0.08271  0.95834  1.0000
  Fe  Fe70      1.0  0.63975  0.00809  0.94701  1.0000
  C   C418      1.0  0.59561  0.05335  0.94132  1.0000
  C   C419      1.0  0.60713  0.06958  0.92292  1.0000
  C   C420      1.0  0.59760  0.09048  0.91743  1.0000
  H   H421      1.0  0.66369  0.07075  0.97671  1.0000
  S   S140      1.0  0.52272  0.13921  0.99679  1.0000
  H   H422      1.0  0.80647  0.03463  0.95940  1.0000
  C   C421      1.0  0.52894  0.26296  0.99450  1.0000
  C   C422      1.0  0.80455  0.01696  0.95988  1.0000
  Fe  Fe71      1.0  0.50912  0.17268  0.98336  1.0000
  S   S141      1.0  0.71819  0.01988  0.98832  1.0000
  H   H423      1.0  0.61750  0.12427  0.97611  1.0000
  C   C423      1.0  0.64800  0.07776  0.98426  1.0000
  C   C424      1.0  0.60732  0.09467  0.00267  1.0000
  H   H424      1.0  0.56510  0.33034  0.99942  1.0000
  H   H425      1.0  0.77110  0.01802  0.94261  1.0000
  H   H426      1.0  0.00189  0.27403  0.98386  1.0000
  C   C425      1.0  0.78475  0.00766  0.95030  1.0000
  C   C426      1.0  0.82157  0.00336  0.97121  1.0000
  H   H427      1.0  0.59976  0.63902  0.32474  1.0000
  S   S142      1.0  0.87231  0.63864  0.33901  1.0000
  C   C427      1.0  0.61339  0.57779  0.02288  1.0000
  S   S143      1.0  0.99207  0.61583  0.09773  1.0000
  H   H428      1.0  0.56015  0.61926  0.07688  1.0000
  S   S144      1.0  0.90164  0.53381  0.02945  1.0000
  S   S145      1.0  0.85796  0.63624  0.43742  1.0000
  Fe  Fe72      1.0  0.85380  0.66871  0.32285  1.0000
  H   H429      1.0  0.67745  0.65757  0.45678  1.0000
  Fe  Fe73      1.0  0.71247  0.63138  0.35630  1.0000
  S   S146      1.0  0.68267  0.60971  0.35643  1.0000
  S   S147      1.0  0.74595  0.62009  0.37233  1.0000
  S   S148      1.0  0.97764  0.66013  0.05462  1.0000
  S   S149      1.0  0.65471  0.65463  0.33904  1.0000
  Fe  Fe74      1.0  0.66664  0.63689  0.38593  1.0000
  S   S150      1.0  0.64390  0.62859  0.43064  1.0000
  Fe  Fe75      1.0  0.67335  0.62902  0.30952  1.0000
  S   S151      1.0  0.65838  0.61785  0.26010  1.0000
  H   H430      1.0  0.59315  0.63479  0.04763  1.0000
  S   S152      1.0  0.70442  0.64867  0.30746  1.0000
  Fe  Fe76      1.0  0.98346  0.65081  0.10943  1.0000
  C   C428      1.0  0.59454  0.37110  0.03449  1.0000
  S   S153      1.0  0.95460  0.66136  0.14324  1.0000
  Fe  Fe77      1.0  0.98895  0.62614  0.04310  1.0000
  H   H431      1.0  0.73518  0.56442  0.13580  1.0000
  C   C429      1.0  0.92218  0.62964  0.04023  1.0000
  Fe  Fe78      1.0  0.64658  0.49103  0.07334  1.0000
  S   S154      1.0  0.66365  0.51025  0.03078  1.0000
  S   S155      1.0  0.62302  0.46469  0.05400  1.0000
  Fe  Fe79      1.0  0.66432  0.52180  0.12684  1.0000
  S   S156      1.0  0.68163  0.54308  0.08819  1.0000
  S   S157      1.0  0.66876  0.52709  0.18356  1.0000
  Fe  Fe80      1.0  0.65124  0.53996  0.05747  1.0000
  H   H432      1.0  0.60205  0.38681  0.02828  1.0000
  Fe  Fe81      1.0  0.69334  0.51203  0.06370  1.0000
  S   S158      1.0  0.72899  0.51802  0.04527  1.0000
  S   S159      1.0  0.63257  0.52113  0.09812  1.0000
  S   S160      1.0  0.67760  0.49038  0.10460  1.0000
  Fe  Fe82      1.0  0.53060  0.37221  0.09678  1.0000
  S   S161      1.0  0.52634  0.36631  0.04144  1.0000
  S   S162      1.0  0.56039  0.38976  0.11883  1.0000
  C   C430      1.0  0.60481  0.44500  0.07346  1.0000
  C   C431      1.0  0.60628  0.43841  0.10758  1.0000
  C   C432      1.0  0.59232  0.42181  0.12112  1.0000
  C   C433      1.0  0.57640  0.41183  0.10105  1.0000
  C   C434      1.0  0.57462  0.41873  0.06711  1.0000
  C   C435      1.0  0.58887  0.43500  0.05339  1.0000
  H   H433      1.0  0.61845  0.44579  0.12340  1.0000
  H   H434      1.0  0.59394  0.41663  0.14737  1.0000
  H   H435      1.0  0.56251  0.41127  0.05125  1.0000
  H   H436      1.0  0.59976  0.33973  0.12448  1.0000
  S   S163      1.0  0.69724  0.65686  0.38936  1.0000
  C   C436      1.0  0.62992  0.57133  0.31342  1.0000
  C   C437      1.0  0.59755  0.56966  0.04583  1.0000
  C   C438      1.0  0.57568  0.57674  0.04339  1.0000
  H   H437      1.0  0.60210  0.55776  0.06517  1.0000
  H   H438      1.0  0.56338  0.57018  0.06089  1.0000
  C   C439      1.0  0.77158  0.51809  0.02108  1.0000
  C   C440      1.0  0.54124  0.64890  0.07115  1.0000
  C   C441      1.0  0.73508  0.61576  0.46405  1.0000
  C   C442      1.0  0.95286  0.58739  0.01000  1.0000
  C   C443      1.0  0.92316  0.65896  0.23498  1.0000
  C   C444      1.0  0.94863  0.65539  0.18663  1.0000
  C   C445      1.0  0.94970  0.57845  0.04267  1.0000
  C   C446      1.0  0.93382  0.56206  0.04849  1.0000
  H   H439      1.0  0.95950  0.58414  0.06335  1.0000
  H   H440      1.0  0.93145  0.55511  0.07375  1.0000
  C   C447      1.0  0.64898  0.63874  0.47166  1.0000
  C   C448      1.0  0.94028  0.49288  0.03150  1.0000
  C   C449      1.0  0.60623  0.62773  0.30515  1.0000
  H   H441      1.0  0.62150  0.62169  0.49491  1.0000
  H   H442      1.0  0.97950  0.63993  0.19796  1.0000
  C   C450      1.0  0.66695  0.55284  0.20370  1.0000
  C   C451      1.0  0.67477  0.55481  0.23691  1.0000
  C   C452      1.0  0.67303  0.57480  0.25415  1.0000
  C   C453      1.0  0.66303  0.59293  0.23852  1.0000
  C   C454      1.0  0.65522  0.59095  0.20533  1.0000
  C   C455      1.0  0.65738  0.57110  0.18784  1.0000
  H   H443      1.0  0.68220  0.54077  0.24940  1.0000
  H   H444      1.0  0.67908  0.57608  0.27967  1.0000
  H   H445      1.0  0.64741  0.60484  0.19303  1.0000
  H   H446      1.0  0.65122  0.56982  0.16236  1.0000
  C   C456      1.0  0.86670  0.63867  0.47968  1.0000
  H   H447      1.0  0.96465  0.52938  0.02889  1.0000
  C   C457      1.0  0.63468  0.57015  0.34792  1.0000
  H   H448      1.0  0.91455  0.62973  0.14442  1.0000
  H   H449      1.0  0.58755  0.43987  0.02697  1.0000
  C   C458      1.0  0.93839  0.64902  0.25655  1.0000
  C   C459      1.0  0.92825  0.66204  0.20022  1.0000
  C   C460      1.0  0.96375  0.64515  0.20805  1.0000
  C   C461      1.0  0.63550  0.63207  0.49925  1.0000
  H   H450      1.0  0.91420  0.60015  0.14654  1.0000
  S   S164      1.0  0.93348  0.64655  0.30097  1.0000
  H   H451      1.0  0.68143  0.60092  0.46179  1.0000
  H   H452      1.0  0.92332  0.48725  0.02636  1.0000
  C   C462      1.0  0.80270  0.65194  0.31240  1.0000
  N   N36       1.0  0.61543  0.60767  0.32033  1.0000
  C   C463      1.0  0.76476  0.63971  0.31540  1.0000
  C   C464      1.0  0.76796  0.63118  0.34816  1.0000
  C   C465      1.0  0.78881  0.63231  0.36247  1.0000
  C   C466      1.0  0.80613  0.64273  0.34469  1.0000
  C   C467      1.0  0.69694  0.60621  0.47200  1.0000
  H   H453      1.0  0.74902  0.63823  0.30367  1.0000
  H   H454      1.0  0.79151  0.62549  0.38761  1.0000
  H   H455      1.0  0.82204  0.64387  0.35623  1.0000
  N   N37       1.0  0.73949  0.52991  0.12989  1.0000
  H   H456      1.0  0.59258  0.62373  0.28802  1.0000
  H   H457      1.0  0.77945  0.65687  0.27240  1.0000
  H   H458      1.0  0.89253  0.58882  0.10110  1.0000
  Fe  Fe83      1.0  0.87218  0.65381  0.39077  1.0000
  H   H459      1.0  0.88437  0.58884  0.03986  1.0000
  C   C468      1.0  0.56956  0.59190  0.01801  1.0000
  H   H460      1.0  0.90753  0.66442  0.24515  1.0000
  H   H461      1.0  0.97052  0.63428  0.25934  1.0000
  C   C469      1.0  0.66700  0.65217  0.47766  1.0000
  C   C470      1.0  0.69836  0.61177  0.50619  1.0000
  C   C471      1.0  0.90075  0.60054  0.08426  1.0000
  C   C472      1.0  0.57866  0.64491  0.05136  1.0000
  S   S165      1.0  0.82335  0.66743  0.29159  1.0000
  H   H462      1.0  0.77128  0.53529  0.02719  1.0000
  H   H463      1.0  0.73911  0.47290  0.02401  1.0000
  H   H464      1.0  0.73228  0.55450  0.09322  1.0000
  C   C473      1.0  0.75298  0.51396  0.11725  1.0000
  H   H465      1.0  0.61919  0.63650  0.29009  1.0000
  H   H466      1.0  0.76547  0.51804  0.09825  1.0000
  C   C474      1.0  0.71545  0.60821  0.45088  1.0000
  H   H467      1.0  0.71202  0.53715  0.16206  1.0000
  C   C475      1.0  0.90678  0.61519  0.02754  1.0000
  S   S166      1.0  0.64056  0.56807  0.02317  1.0000
  H   H468      1.0  0.95049  0.47861  0.03914  1.0000
  C   C476      1.0  0.56397  0.52490  0.01200  1.0000
  H   H469      1.0  0.63423  0.55790  0.29688  1.0000
  C   C477      1.0  0.92114  0.61462  0.13266  1.0000
  C   C478      1.0  0.73338  0.48646  0.15033  1.0000
  C   C479      1.0  0.74165  0.55252  0.11708  1.0000
  C   C480      1.0  0.62969  0.58788  0.36850  1.0000
  H   H470      1.0  0.64253  0.55566  0.35855  1.0000
  H   H471      1.0  0.52646  0.64191  0.08257  1.0000
  H   H472      1.0  0.93841  0.64054  0.08471  1.0000
  Fe  Fe84      1.0  0.90238  0.65904  0.32724  1.0000
  H   H473      1.0  0.73066  0.46948  0.15781  1.0000
  H   H474      1.0  0.63361  0.58736  0.39529  1.0000
  C   C481      1.0  0.60238  0.51323  0.01785  1.0000
  C   C482      1.0  0.72304  0.52460  0.15257  1.0000
  C   C483      1.0  0.56014  0.63616  0.06781  1.0000
  C   C484      1.0  0.75343  0.48303  0.01932  1.0000
  H   H475      1.0  0.89797  0.65334  0.46736  1.0000
  H   H476      1.0  0.61705  0.52348  0.02229  1.0000
  H   H477      1.0  0.76034  0.47939  0.11603  1.0000
  C   C485      1.0  0.95863  0.64199  0.24285  1.0000
  C   C486      1.0  0.75272  0.50525  0.02733  1.0000
  H   H478      1.0  0.55944  0.51421  0.03327  1.0000
  H   H479      1.0  0.70656  0.49872  0.18102  1.0000
  C   C487      1.0  0.62017  0.59030  0.30001  1.0000
  C   C488      1.0  0.75007  0.49201  0.12710  1.0000
  H   H480      1.0  0.61691  0.62060  0.37027  1.0000
  H   H481      1.0  0.71457  0.60415  0.42423  1.0000
  H   H482      1.0  0.83696  0.62425  0.50019  1.0000
  H   H483      1.0  0.75910  0.55667  0.11165  1.0000
  N   N38       1.0  0.91603  0.61465  0.09642  1.0000
  C   C489      1.0  0.71985  0.50285  0.16336  1.0000
  H   H484      1.0  0.61724  0.59140  0.27293  1.0000
  C   C490      1.0  0.78209  0.65005  0.29754  1.0000
  C   C491      1.0  0.62016  0.60670  0.35417  1.0000
  S   S167      1.0  0.54178  0.59923  0.01457  1.0000
  C   C492      1.0  0.92647  0.62927  0.07498  1.0000
  C   C493      1.0  0.88696  0.64782  0.48757  1.0000
  H   H485      1.0  0.93923  0.61433  0.13615  1.0000
  H   H486      1.0  0.59679  0.50663  0.04304  1.0000
  H   H487      1.0  0.74949  0.61744  0.44761  1.0000
  C   C494      1.0  0.92106  0.55463  0.02172  1.0000
  N   N39       1.0  0.58472  0.34343  0.07623  1.0000
  C   C495      1.0  0.89589  0.60060  0.04966  1.0000
  C   C496      1.0  0.59473  0.36288  0.06787  1.0000
  C   C497      1.0  0.57809  0.66652  0.03886  1.0000
  H   H488      1.0  0.93123  0.64062  0.02312  1.0000
  H   H489      1.0  0.57049  0.34385  0.12555  1.0000
  C   C498      1.0  0.85261  0.63143  0.50614  1.0000
  C   C499      1.0  0.57383  0.33946  0.01834  1.0000
  H   H490      1.0  0.60233  0.37253  0.08730  1.0000
  S   S168      1.0  0.52190  0.33701  0.11104  1.0000
  C   C500      1.0  0.73588  0.62132  0.49832  1.0000
  H   H491      1.0  0.93873  0.50434  0.05301  1.0000
  C   C501      1.0  0.58399  0.35928  0.00961  1.0000
  Fe  Fe85      1.0  0.86193  0.63950  0.63364  1.0000
  C   C502      1.0  0.59133  0.66528  0.81804  1.0000
  S   S169      1.0  0.88653  0.64594  0.59073  1.0000
  Fe  Fe86      1.0  0.85083  0.61117  0.69726  1.0000
  S   S170      1.0  0.82283  0.63297  0.71287  1.0000
  S   S171      1.0  0.86198  0.57921  0.72270  1.0000
  Fe  Fe87      1.0  0.81444  0.63400  0.65757  1.0000
  S   S172      1.0  0.78032  0.63304  0.63631  1.0000
  H   H492      1.0  0.61361  0.66819  0.77519  1.0000
  S   S173      1.0  0.84069  0.60992  0.64241  1.0000
  S   S174      1.0  0.87433  0.63903  0.68714  1.0000
  C   C503      1.0  0.73832  0.64721  0.64778  1.0000
  S   S175      1.0  0.65729  0.64258  0.67749  1.0000
  H   H493      1.0  0.95262  0.49804  0.91607  1.0000
  C   C504      1.0  0.91027  0.60278  0.63715  1.0000
  S   S176      1.0  0.59913  0.63609  0.72623  1.0000
  C   C505      1.0  0.80618  0.51845  0.89693  1.0000
  N   N40       1.0  0.90544  0.58666  0.66068  1.0000
  Fe  Fe88      1.0  0.89339  0.48412  0.92981  1.0000
  H   H494      1.0  0.90881  0.65656  0.52769  1.0000
  S   S177      1.0  0.92116  0.46322  0.90646  1.0000
  Fe  Fe89      1.0  0.86674  0.52617  0.91302  1.0000
  S   S178      1.0  0.85236  0.52749  0.96607  1.0000
  S   S179      1.0  0.85491  0.55538  0.88112  1.0000
  Fe  Fe90      1.0  0.88618  0.51883  0.98346  1.0000
  C   C506      1.0  0.59936  0.65988  0.78558  1.0000
  Fe  Fe91      1.0  0.84719  0.49141  0.96194  1.0000
  S   S180      1.0  0.81488  0.47475  0.97820  1.0000
  S   S181      1.0  0.90109  0.52030  0.93114  1.0000
  S   S182      1.0  0.85970  0.49022  0.90756  1.0000
  Fe  Fe92      1.0  0.53091  0.62448  0.97548  1.0000
  S   S183      1.0  0.52436  0.61670  0.92104  1.0000
  C   C507      1.0  0.92495  0.60624  0.70303  1.0000
  Fe  Fe93      1.0  0.53620  0.65118  0.90953  1.0000
  C   C508      1.0  0.72118  0.65617  0.66730  1.0000
  H   H495      1.0  0.68372  0.61070  0.52222  1.0000
  C   C509      1.0  0.74587  0.65995  0.71427  1.0000
  H   H496      1.0  0.80732  0.56183  0.88527  1.0000
  S   S184      1.0  0.97628  0.37823  0.95383  1.0000
  C   C510      1.0  0.70213  0.61375  0.73040  1.0000
  H   H497      1.0  0.71617  0.62254  0.74156  1.0000
  H   H498      1.0  0.58087  0.61219  0.97603  1.0000
  C   C511      1.0  0.64046  0.63807  0.53266  1.0000
  C   C512      1.0  0.93672  0.44001  0.92090  1.0000
  C   C513      1.0  0.93159  0.42849  0.95104  1.0000
  C   C514      1.0  0.94397  0.40980  0.96069  1.0000
  C   C515      1.0  0.96180  0.40243  0.94066  1.0000
  C   C516      1.0  0.96729  0.41430  0.91097  1.0000
  C   C517      1.0  0.95477  0.43286  0.90114  1.0000
  H   H499      1.0  0.91772  0.43358  0.96647  1.0000
  C   C518      1.0  0.77480  0.52899  0.92927  1.0000
  H   H500      1.0  0.98078  0.40884  0.89506  1.0000
  H   H501      1.0  0.95888  0.44153  0.87769  1.0000
  C   C519      1.0  0.76305  0.65111  0.69462  1.0000
  H   H502      1.0  0.97976  0.54835  0.97779  1.0000
  H   H503      1.0  0.70654  0.59611  0.72936  1.0000
  C   C520      1.0  0.95554  0.50497  0.94077  1.0000
  C   C521      1.0  0.92287  0.62088  0.64590  1.0000
  H   H504      1.0  0.80968  0.48388  0.88733  1.0000
  H   H505      1.0  0.73462  0.62186  0.56573  1.0000
  H   H506      1.0  0.71609  0.64421  0.55542  1.0000
  H   H507      1.0  0.91425  0.55831  0.96850  1.0000
  H   H508      1.0  0.94243  0.58686  0.95804  1.0000
  C   C522      1.0  0.58915  0.64359  0.76706  1.0000
  H   H509      1.0  0.97361  0.53279  0.92078  1.0000
  C   C523      1.0  0.57271  0.65484  0.83228  1.0000
  C   C524      1.0  0.56254  0.63841  0.81395  1.0000
  C   C525      1.0  0.57082  0.63275  0.78157  1.0000
  H   H510      1.0  0.54816  0.63026  0.82454  1.0000
  H   H511      1.0  0.56283  0.62003  0.76759  1.0000
  C   C526      1.0  0.76745  0.50730  0.93083  1.0000
  C   C527      1.0  0.65907  0.65069  0.53872  1.0000
  H   H512      1.0  0.66415  0.59372  0.72114  1.0000
  H   H513      1.0  0.70009  0.62034  0.70415  1.0000
  H   H514      1.0  0.63051  0.63202  0.55380  1.0000
  C   C528      1.0  0.75929  0.64462  0.66136  1.0000
  H   H515      1.0  0.81604  0.55844  0.92848  1.0000
  H   H516      1.0  0.93944  0.40075  0.98362  1.0000
  C   C529      1.0  0.96734  0.52440  0.94343  1.0000
  C   C530      1.0  0.57525  0.55269  0.95803  1.0000
  S   S185      1.0  0.88030  0.48245  0.98351  1.0000
  C   C531      1.0  0.64378  0.60782  0.75997  1.0000
  H   H517      1.0  0.90401  0.60195  0.61156  1.0000
  H   H518      1.0  0.89729  0.56152  0.62634  1.0000
  C   C532      1.0  0.89306  0.64960  0.52175  1.0000
  C   C533      1.0  0.85745  0.56160  0.83699  1.0000
  C   C534      1.0  0.84920  0.58174  0.82470  1.0000
  C   C535      1.0  0.85051  0.58740  0.78987  1.0000
  C   C536      1.0  0.86002  0.57289  0.76686  1.0000
  C   C537      1.0  0.86827  0.55273  0.77911  1.0000
  C   C538      1.0  0.86703  0.54709  0.81400  1.0000
  H   H519      1.0  0.84180  0.59310  0.84226  1.0000
  H   H520      1.0  0.84412  0.60297  0.78086  1.0000
  H   H521      1.0  0.87560  0.54135  0.76152  1.0000
  H   H522      1.0  0.87340  0.53153  0.82305  1.0000
  C   C539      1.0  0.85854  0.63352  0.54026  1.0000
  C   C540      1.0  0.87881  0.64256  0.54817  1.0000
  H   H523      1.0  0.62917  0.59891  0.75300  1.0000
  H   H524      1.0  0.84745  0.62801  0.56038  1.0000
  H   H525      1.0  0.60817  0.54123  0.96619  1.0000
  H   H526      1.0  0.90819  0.57581  0.71231  1.0000
  H   H527      1.0  0.92631  0.63379  0.62724  1.0000
  C   C541      1.0  0.94012  0.57991  0.98333  1.0000
  H   H528      1.0  0.75269  0.50300  0.94524  1.0000
  N   N41       1.0  0.68175  0.61681  0.75008  1.0000
  C   C542      1.0  0.68073  0.63177  0.77549  1.0000
  C   C543      1.0  0.66355  0.60503  0.74202  1.0000
  C   C544      1.0  0.67212  0.65792  0.51101  1.0000
  S   S186      1.0  0.66939  0.65369  0.58010  1.0000
  C   C545      1.0  0.66122  0.63493  0.79400  1.0000
  H   H529      1.0  0.87435  0.57375  0.64891  1.0000
  C   C546      1.0  0.54773  0.53771  0.99650  1.0000
  H   H530      1.0  0.70550  0.61832  0.57028  1.0000
  C   C547      1.0  0.94687  0.49479  0.97013  1.0000
  S   S187      1.0  0.54547  0.65750  0.96383  1.0000
  H   H531      1.0  0.70506  0.65802  0.65654  1.0000
  S   S188      1.0  0.56219  0.66434  0.87165  1.0000
  H   H532      1.0  0.76536  0.54138  0.94245  1.0000
  H   H533      1.0  0.93003  0.60766  0.72916  1.0000
  C   C548      1.0  0.89166  0.56821  0.65100  1.0000
  C   C549      1.0  0.77999  0.49099  0.91546  1.0000
  C   C550      1.0  0.79947  0.49655  0.89838  1.0000
  C   C551      1.0  0.71858  0.62619  0.55427  1.0000
  H   H534      1.0  0.77512  0.47394  0.91802  1.0000
  C   C552      1.0  0.91256  0.58823  0.69331  1.0000
  C   C553      1.0  0.55347  0.55171  0.96941  1.0000
  Fe  Fe94      1.0  0.62495  0.65604  0.69665  1.0000
  H   H535      1.0  0.74879  0.66464  0.74014  1.0000
  H   H536      1.0  0.78891  0.56878  0.91942  1.0000
  H   H537      1.0  0.73531  0.64229  0.62209  1.0000
  Fe  Fe95      1.0  0.65202  0.66263  0.62962  1.0000
  H   H538      1.0  0.82151  0.52262  0.88398  1.0000
  N   N42       1.0  0.79385  0.53433  0.91219  1.0000
  H   H539      1.0  0.89194  0.55470  0.67034  1.0000
  H   H540      1.0  0.54118  0.56237  0.95808  1.0000
  H   H541      1.0  0.62744  0.62498  0.80037  1.0000
  H   H542      1.0  0.66039  0.64697  0.81387  1.0000
  C   C554      1.0  0.58548  0.60045  0.99560  1.0000
  C   C555      1.0  0.80179  0.55699  0.91141  1.0000
  C   C556      1.0  0.93017  0.62263  0.67909  1.0000
  C   C557      1.0  0.72491  0.66247  0.70064  1.0000
  Fe  Fe96      1.0  0.84552  0.66070  0.69824  1.0000
  C   C558      1.0  0.92418  0.56368  0.98918  1.0000
  C   C559      1.0  0.97084  0.53308  0.97538  1.0000
  N   N43       1.0  0.71767  0.61917  0.51893  1.0000
  H   H543      1.0  0.93738  0.47989  0.96783  1.0000
  H   H544      1.0  0.77909  0.64905  0.70540  1.0000
  H   H545      1.0  0.90381  0.61485  0.00047  1.0000
  H   H546      1.0  0.68667  0.66750  0.51543  1.0000
  H   H547      1.0  0.57998  0.56403  0.93769  1.0000
  C   C560      1.0  0.59110  0.53979  0.97427  1.0000
  H   H548      1.0  0.93941  0.63691  0.68641  1.0000
  C   C561      1.0  0.64272  0.62270  0.78632  1.0000
  H   H549      1.0  0.69495  0.64161  0.78128  1.0000
  H   H550      1.0  0.61963  0.59975  0.98032  1.0000
  C   C562      1.0  0.77271  0.47390  0.00494  1.0000
  S   S189      1.0  0.83493  0.66347  0.64429  1.0000
  S   S190      1.0  0.97231  0.60801  0.00126  1.0000
  H   H551      1.0  0.58330  0.36567  0.98377  1.0000
  H   H552      1.0  0.75112  0.62745  0.50829  1.0000
  C   C563      1.0  0.60737  0.59340  0.99808  1.0000
  H   H553      1.0  0.80513  0.51910  0.00195  1.0000
  C   C564      1.0  0.96211  0.52234  0.00422  1.0000
  H   H554      1.0  0.77300  0.45674  0.99858  1.0000
  C   C565      1.0  0.79152  0.48679  0.99843  1.0000
  N   N44       1.0  0.94982  0.50376  0.00124  1.0000
  N   N45       1.0  0.58537  0.52630  0.00109  1.0000
  H   H555      1.0  0.00133  0.39930  0.00503  1.0000
  H   H556      1.0  0.60728  0.49916  0.00193  1.0000
  C   C566      1.0  0.79086  0.50896  0.00680  1.0000
  H   H557      1.0  0.53092  0.53728  0.00598  1.0000
  Fe  Fe97      1.0  0.88312  0.69903  0.36141  1.0000
  H   H558      1.0  0.75531  0.70072  0.26522  1.0000
  S   S191      1.0  0.88965  0.73293  0.38019  1.0000
  S   S192      1.0  0.69399  0.70834  0.32979  1.0000
  Fe  Fe98      1.0  0.63174  0.81163  0.36380  1.0000
  S   S193      1.0  0.61074  0.84019  0.37929  1.0000
  S   S194      1.0  0.62142  0.77686  0.37471  1.0000
  Fe  Fe99      1.0  0.66626  0.84036  0.33069  1.0000
  S   S195      1.0  0.64807  0.87125  0.34248  1.0000
  S   S196      1.0  0.69915  0.84023  0.30402  1.0000
  Fe  Fe100     1.0  0.64257  0.85563  0.39421  1.0000
  S   S197      1.0  0.65083  0.87654  0.43930  1.0000
  Fe  Fe101     1.0  0.61805  0.85308  0.32622  1.0000
  S   S198      1.0  0.59045  0.86884  0.29583  1.0000
  S   S199      1.0  0.66285  0.82582  0.38314  1.0000
  S   S200      1.0  0.63686  0.82333  0.31002  1.0000
  Fe  Fe102     1.0  0.83772  0.84082  0.33884  1.0000
  S   S201      1.0  0.86805  0.85952  0.35179  1.0000
  S   S202      1.0  0.83632  0.80976  0.30920  1.0000
  Fe  Fe103     1.0  0.80775  0.87022  0.37921  1.0000
  S   S203      1.0  0.83543  0.89128  0.39644  1.0000
  S   S204      1.0  0.77340  0.87421  0.39982  1.0000
  Fe  Fe104     1.0  0.84740  0.88962  0.34188  1.0000
  S   S205      1.0  0.85830  0.92184  0.31670  1.0000
  Fe  Fe105     1.0  0.85350  0.85964  0.40480  1.0000
  S   S206      1.0  0.87395  0.84778  0.44906  1.0000
  S   S207      1.0  0.81825  0.87081  0.32437  1.0000
  S   S208      1.0  0.82478  0.83880  0.39214  1.0000
  H   H559      1.0  0.89843  0.89058  0.46402  1.0000
  Fe  Fe106     1.0  0.88534  0.97787  0.04900  1.0000
  S   S209      1.0  0.90048  0.98487  0.09916  1.0000
  H   H560      1.0  0.91287  0.74158  0.31385  1.0000
  Fe  Fe107     1.0  0.87131  0.96727  0.12282  1.0000
  S   S210      1.0  0.87176  0.93672  0.15707  1.0000
  S   S211      1.0  0.85828  0.95801  0.07216  1.0000
  Fe  Fe108     1.0  0.53644  0.84913  0.11234  1.0000
  S   S212      1.0  0.54941  0.84657  0.05860  1.0000
  S   S213      1.0  0.56195  0.83705  0.15020  1.0000
  C   C567      1.0  0.61211  0.90771  0.03001  1.0000
  Fe  Fe109     1.0  0.53332  0.87915  0.05028  1.0000
  C   C568      1.0  0.79141  0.86141  0.48674  1.0000
  S   S214      1.0  0.52261  0.88310  0.10465  1.0000
  H   H561      1.0  0.78771  0.71033  0.29569  1.0000
  C   C569      1.0  0.58993  0.90139  0.03157  1.0000
  C   C570      1.0  0.50850  0.76316  0.03792  1.0000
  H   H562      1.0  0.58525  0.88591  0.04337  1.0000
  H   H563      1.0  0.62453  0.89700  0.04058  1.0000
  H   H564      1.0  0.81056  0.70368  0.34575  1.0000
  H   H565      1.0  0.54763  0.71204  0.04382  1.0000
  H   H566      1.0  0.95703  0.72665  0.21310  1.0000
  N   N46       1.0  0.97291  0.93003  0.03167  1.0000
  S   S215      1.0  0.54587  0.90835  0.01973  1.0000
  H   H567      1.0  0.90810  0.89057  0.03501  1.0000
  C   C571      1.0  0.77068  0.87043  0.49276  1.0000
  C   C572      1.0  0.50609  0.74015  0.03701  1.0000
  H   H568      1.0  0.89451  0.92870  0.04049  1.0000
  H   H569      1.0  0.85036  0.88392  0.48097  1.0000
  C   C573      1.0  0.86244  0.92573  0.27235  1.0000
  C   C574      1.0  0.86499  0.94712  0.25891  1.0000
  C   C575      1.0  0.86785  0.95089  0.22367  1.0000
  C   C576      1.0  0.86855  0.93320  0.20164  1.0000
  C   C577      1.0  0.86637  0.91181  0.21519  1.0000
  C   C578      1.0  0.86314  0.90808  0.25031  1.0000
  H   H570      1.0  0.86456  0.96088  0.27580  1.0000
  H   H571      1.0  0.86964  0.96741  0.21361  1.0000
  H   H572      1.0  0.86702  0.89802  0.19837  1.0000
  H   H573      1.0  0.86133  0.89153  0.26031  1.0000
  C   C579      1.0  0.64880  0.86723  0.48194  1.0000
  H   H574      1.0  0.56618  0.83823  0.34582  1.0000
  H   H575      1.0  0.94234  0.86639  0.42205  1.0000
  H   H576      1.0  0.62602  0.84125  0.47278  1.0000
  C   C580      1.0  0.58351  0.86097  0.25438  1.0000
  C   C581      1.0  0.56482  0.87015  0.23907  1.0000
  C   C582      1.0  0.55807  0.86332  0.20691  1.0000
  C   C583      1.0  0.56994  0.84714  0.18990  1.0000
  C   C584      1.0  0.58886  0.83831  0.20491  1.0000
  C   C585      1.0  0.59566  0.84521  0.23693  1.0000
  H   H577      1.0  0.55537  0.88242  0.25238  1.0000
  H   H578      1.0  0.54349  0.87027  0.19562  1.0000
  H   H579      1.0  0.59824  0.82589  0.19181  1.0000
  H   H580      1.0  0.61011  0.83809  0.24831  1.0000
  C   C586      1.0  0.71934  0.85173  0.32946  1.0000
  C   C587      1.0  0.71410  0.85907  0.36203  1.0000
  C   C588      1.0  0.73074  0.86627  0.38332  1.0000
  C   C589      1.0  0.75267  0.86621  0.37212  1.0000
  C   C590      1.0  0.75781  0.85926  0.33933  1.0000
  C   C591      1.0  0.74118  0.85221  0.31795  1.0000
  H   H581      1.0  0.69724  0.85916  0.37096  1.0000
  H   H582      1.0  0.72656  0.87183  0.40853  1.0000
  H   H583      1.0  0.77459  0.85905  0.33044  1.0000
  H   H584      1.0  0.74529  0.84673  0.29270  1.0000
  C   C592      1.0  0.67370  0.72714  0.34264  1.0000
  C   C593      1.0  0.65440  0.72007  0.35911  1.0000
  C   C594      1.0  0.63840  0.73542  0.36897  1.0000
  C   C595      1.0  0.64168  0.75785  0.36251  1.0000
  C   C596      1.0  0.66102  0.76491  0.34611  1.0000
  C   C597      1.0  0.67699  0.74958  0.33621  1.0000
  H   H585      1.0  0.65180  0.70282  0.36431  1.0000
  H   H586      1.0  0.62350  0.72991  0.38172  1.0000
  H   H587      1.0  0.66359  0.78216  0.34085  1.0000
  H   H588      1.0  0.69184  0.75510  0.32336  1.0000
  C   C598      1.0  0.87432  0.75394  0.36059  1.0000
  C   C599      1.0  0.86133  0.74978  0.33248  1.0000
  C   C600      1.0  0.84972  0.76699  0.31668  1.0000
  C   C601      1.0  0.85088  0.78831  0.32915  1.0000
  C   C602      1.0  0.86368  0.79236  0.35748  1.0000
  C   C603      1.0  0.87546  0.77523  0.37302  1.0000
  H   H589      1.0  0.86037  0.73338  0.32273  1.0000
  H   H590      1.0  0.83985  0.76380  0.29476  1.0000
  H   H591      1.0  0.86466  0.80873  0.36731  1.0000
  H   H592      1.0  0.88547  0.77853  0.39475  1.0000
  H   H593      1.0  0.81831  0.95861  0.12538  1.0000
  H   H594      1.0  0.76093  0.87638  0.47161  1.0000
  H   H595      1.0  0.79169  0.81009  0.35360  1.0000
  H   H596      1.0  0.73231  0.68280  0.34798  1.0000
  H   H597      1.0  0.79783  0.86040  0.46093  1.0000
  H   H598      1.0  0.82839  0.93112  0.12443  1.0000
  Fe  Fe110     1.0  0.51685  0.83134  0.04698  1.0000
  N   N47       1.0  0.94400  0.71241  0.25873  1.0000
  C   C604      1.0  0.86772  0.70743  0.45944  1.0000
  H   H599      1.0  0.93443  0.94762  0.08779  1.0000
  H   H600      1.0  0.93042  0.71572  0.35466  1.0000
  C   C605      1.0  0.74314  0.98583  0.01624  1.0000
  C   C606      1.0  0.94904  0.69917  0.31591  1.0000
  H   H601      1.0  0.75491  0.67488  0.39814  1.0000
  C   C607      1.0  0.57385  0.91523  0.01794  1.0000
  C   C608      1.0  0.78418  0.68930  0.37576  1.0000
  N   N48       1.0  0.60068  0.90015  0.13123  1.0000
  C   C609      1.0  0.57868  0.90197  0.12542  1.0000
  C   C610      1.0  0.61489  0.91600  0.11941  1.0000
  C   C611      1.0  0.57040  0.91990  0.10695  1.0000
  C   C612      1.0  0.60716  0.93415  0.10090  1.0000
  C   C613      1.0  0.58477  0.93605  0.09464  1.0000
  C   C614      1.0  0.60879  0.88127  0.15090  1.0000
  H   H602      1.0  0.56748  0.88933  0.13480  1.0000
  H   H603      1.0  0.63236  0.91457  0.12378  1.0000
  H   H604      1.0  0.55305  0.92105  0.10139  1.0000
  H   H605      1.0  0.61855  0.94629  0.09049  1.0000
  H   H606      1.0  0.57862  0.94964  0.07933  1.0000
  H   H607      1.0  0.60360  0.88268  0.17797  1.0000
  H   H608      1.0  0.60201  0.86581  0.14088  1.0000
  H   H609      1.0  0.62696  0.87990  0.14969  1.0000
  N   N49       1.0  0.56462  0.81560  0.30546  1.0000
  C   C615      1.0  0.55769  0.81373  0.27279  1.0000
  C   C616      1.0  0.58064  0.80201  0.31778  1.0000
  C   C617      1.0  0.56737  0.79842  0.25118  1.0000
  C   C618      1.0  0.59073  0.78658  0.29685  1.0000
  C   C619      1.0  0.58413  0.78491  0.26328  1.0000
  H   H610      1.0  0.54507  0.82456  0.26290  1.0000
  H   H611      1.0  0.58590  0.80317  0.34386  1.0000
  H   H612      1.0  0.56229  0.79754  0.22494  1.0000
  H   H613      1.0  0.60374  0.77615  0.30664  1.0000
  H   H614      1.0  0.59208  0.77325  0.24665  1.0000
  N   N50       1.0  0.75865  0.69699  0.31893  1.0000
  C   C620      1.0  0.94897  0.71130  0.22226  1.0000
  C   C621      1.0  0.78019  0.70327  0.31850  1.0000
  H   H615      1.0  0.79444  0.68531  0.39724  1.0000
  C   C622      1.0  0.79324  0.69960  0.34691  1.0000
  C   C623      1.0  0.77944  0.99102  0.04108  1.0000
  C   C624      1.0  0.88324  0.72025  0.47533  1.0000
  H   H616      1.0  0.92153  0.73899  0.25237  1.0000
  H   H617      1.0  0.97474  0.89521  0.02826  1.0000
  H   H618      1.0  0.81434  0.97452  0.17861  1.0000
  C   C625      1.0  0.95382  0.69823  0.28114  1.0000
  Fe  Fe111     1.0  0.83818  0.98891  0.07355  1.0000
  C   C626      1.0  0.90663  0.92489  0.02112  1.0000
  H   H619      1.0  0.83149  0.95777  0.00798  1.0000
  C   C627      1.0  0.94680  0.94835  0.06767  1.0000
  N   N51       1.0  0.73711  0.80110  0.34637  1.0000
  C   C628      1.0  0.73635  0.79707  0.31237  1.0000
  C   C629      1.0  0.75669  0.80552  0.36130  1.0000
  C   C630      1.0  0.75551  0.79776  0.29227  1.0000
  C   C631      1.0  0.77618  0.80621  0.34198  1.0000
  C   C632      1.0  0.77553  0.80237  0.30725  1.0000
  C   C633      1.0  0.71697  0.79997  0.36721  1.0000
  H   H620      1.0  0.72076  0.79400  0.30042  1.0000
  H   H621      1.0  0.75724  0.80910  0.38812  1.0000
  H   H622      1.0  0.75474  0.79516  0.26519  1.0000
  C   C634      1.0  0.76205  0.97728  0.03199  1.0000
  H   H623      1.0  0.79052  0.80323  0.29197  1.0000
  H   H624      1.0  0.71665  0.81321  0.38622  1.0000
  H   H625      1.0  0.70215  0.80247  0.35148  1.0000
  H   H626      1.0  0.71566  0.78376  0.38032  1.0000
  S   S216      1.0  0.80330  0.97885  0.05917  1.0000
  C   C635      1.0  0.76207  0.68339  0.37623  1.0000
  H   H627      1.0  0.91640  0.66993  0.18385  1.0000
  C   C636      1.0  0.81350  0.95844  0.19076  1.0000
  S   S217      1.0  0.50506  0.69964  0.00714  1.0000
  C   C637      1.0  0.92950  0.72788  0.27013  1.0000
  C   C638      1.0  0.95104  0.96805  0.05026  1.0000
  C   C639      1.0  0.81151  0.93627  0.24214  1.0000
  C   C640      1.0  0.63511  0.84981  0.49177  1.0000
  H   H628      1.0  0.92208  0.86118  0.45510  1.0000
  H   H629      1.0  0.50655  0.77159  0.06166  1.0000
  H   H630      1.0  0.96501  0.68566  0.27224  1.0000
  C   C641      1.0  0.74519  0.70086  0.28892  1.0000
  C   C642      1.0  0.86891  0.85461  0.49182  1.0000
  C   C643      1.0  0.85496  0.69272  0.47866  1.0000
  H   H631      1.0  0.89330  0.73160  0.46027  1.0000
  S   S218      1.0  0.85009  0.99742  0.12569  1.0000
  H   H632      1.0  0.73648  0.71679  0.29101  1.0000
  N   N52       1.0  0.81401  0.93994  0.17170  1.0000
  C   C644      1.0  0.81494  0.94161  0.13454  1.0000
  Fe  Fe112     1.0  0.68670  0.67264  0.34046  1.0000
  S   S219      1.0  0.85147  0.68248  0.37488  1.0000
  C   C645      1.0  0.81188  0.91752  0.22250  1.0000
  C   C646      1.0  0.81230  0.95689  0.22624  1.0000
  H   H633      1.0  0.95616  0.68725  0.33335  1.0000
  H   H634      1.0  0.79908  0.93649  0.12376  1.0000
  H   H635      1.0  0.95419  0.91398  0.07106  1.0000
  C   C647      1.0  0.81320  0.91966  0.18709  1.0000
  N   N53       1.0  0.91219  0.88339  0.41529  1.0000
  C   C648      1.0  0.89959  0.89531  0.43736  1.0000
  C   C649      1.0  0.91314  0.88903  0.38153  1.0000
  C   C650      1.0  0.88732  0.91325  0.42568  1.0000
  C   C651      1.0  0.90123  0.90698  0.36904  1.0000
  C   C652      1.0  0.88818  0.91908  0.39128  1.0000
  C   C653      1.0  0.92453  0.86419  0.42736  1.0000
  H   H636      1.0  0.96007  0.69737  0.21617  1.0000
  H   H637      1.0  0.92278  0.87935  0.36392  1.0000
  H   H638      1.0  0.94190  0.98273  0.05659  1.0000
  H   H639      1.0  0.90161  0.91117  0.34212  1.0000
  H   H640      1.0  0.59235  0.67303  0.02535  1.0000
  C   C654      1.0  0.91438  0.90331  0.01802  1.0000
  C   C655      1.0  0.93442  0.71497  0.32777  1.0000
  H   H641      1.0  0.81245  0.97155  0.24133  1.0000
  H   H642      1.0  0.93362  0.70885  0.20796  1.0000
  H   H643      1.0  0.87841  0.93268  0.38164  1.0000
  C   C656      1.0  0.55412  0.83153  0.32790  1.0000
  S   S220      1.0  0.88371  0.68821  0.30731  1.0000
  C   C657      1.0  0.92457  0.72947  0.30481  1.0000
  C   C658      1.0  0.74941  0.68764  0.34756  1.0000
  H   H644      1.0  0.81402  0.90502  0.17199  1.0000
  H   H645      1.0  0.57566  0.70939  0.03008  1.0000
  H   H646      1.0  0.54785  0.84591  0.31317  1.0000
  C   C659      1.0  0.55925  0.70158  0.02924  1.0000
  H   H647      1.0  0.54042  0.82372  0.34246  1.0000
  C   C660      1.0  0.51305  0.77519  0.00803  1.0000
  H   H648      1.0  0.52649  0.68023  0.06132  1.0000
  C   C661      1.0  0.96646  0.96861  0.02370  1.0000
  H   H649      1.0  0.84340  0.68210  0.46629  1.0000
  H   H650      1.0  0.00053  0.90893  0.03544  1.0000
  H   H651      1.0  0.81124  0.93479  0.26967  1.0000
  H   H652      1.0  0.81184  0.90143  0.23472  1.0000
  C   C662      1.0  0.95798  0.92936  0.05800  1.0000
  H   H653      1.0  0.91860  0.84929  0.41457  1.0000
  H   H654      1.0  0.86580  0.70875  0.43219  1.0000
  H   H655      1.0  0.73263  0.68780  0.28667  1.0000
  C   C663      1.0  0.85723  0.87348  0.50061  1.0000
  C   C664      1.0  0.98466  0.91009  0.02205  1.0000
  N   N54       1.0  0.55970  0.67915  0.04322  1.0000
  H   H656      1.0  0.87687  0.92227  0.44307  1.0000
  H   H657      1.0  0.76328  0.95982  0.03686  1.0000
  S   S221      1.0  0.64613  0.93522  0.01261  1.0000
  H   H658      1.0  0.67092  0.89193  0.49932  1.0000
  H   H659      1.0  0.73005  0.97498  0.00912  1.0000
  C   C665      1.0  0.61825  0.92783  0.01482  1.0000
  C   C666      1.0  0.54132  0.67052  0.05876  1.0000
  S   S222      1.0  0.90406  0.67141  0.38093  1.0000
  S   S223      1.0  0.50446  0.83216  0.10114  1.0000
  C   C667      1.0  0.97748  0.94935  0.01489  1.0000
  H   H660      1.0  0.96942  0.98376  0.00958  1.0000
  C   C668      1.0  0.66034  0.87841  0.50685  1.0000
  C   C669      1.0  0.57109  0.71766  0.80671  1.0000
  Fe  Fe113     1.0  0.63486  0.70151  0.67012  1.0000
  C   C670      1.0  0.93302  0.81184  0.88050  1.0000
  S   S224      1.0  0.62051  0.73529  0.66533  1.0000
  H   H661      1.0  0.98407  0.89584  0.80540  1.0000
  Fe  Fe114     1.0  0.68816  0.00177  0.96846  1.0000
  Fe  Fe115     1.0  0.68014  0.83992  0.69944  1.0000
  S   S225      1.0  0.64867  0.85750  0.68897  1.0000
  S   S226      1.0  0.68273  0.80709  0.72584  1.0000
  Fe  Fe116     1.0  0.70713  0.87287  0.65902  1.0000
  S   S227      1.0  0.67773  0.89306  0.64424  1.0000
  S   S228      1.0  0.74158  0.87964  0.64022  1.0000
  Fe  Fe117     1.0  0.66743  0.88830  0.69929  1.0000
  S   S229      1.0  0.64951  0.91515  0.72818  1.0000
  Fe  Fe118     1.0  0.66158  0.86062  0.63538  1.0000
  S   S230      1.0  0.63896  0.84880  0.59448  1.0000
  S   S231      1.0  0.69809  0.87030  0.71449  1.0000
  S   S232      1.0  0.69191  0.84107  0.64553  1.0000
  Fe  Fe119     1.0  0.88336  0.80482  0.67360  1.0000
  S   S233      1.0  0.90187  0.83667  0.66568  1.0000
  S   S234      1.0  0.89457  0.77156  0.65596  1.0000
  Fe  Fe120     1.0  0.84329  0.82680  0.70266  1.0000
  S   S235      1.0  0.85813  0.86010  0.69820  1.0000
  S   S236      1.0  0.80866  0.82056  0.72031  1.0000
  Fe  Fe121     1.0  0.86958  0.84974  0.64641  1.0000
  S   S237      1.0  0.86082  0.87346  0.60353  1.0000
  Fe  Fe122     1.0  0.88897  0.84440  0.71826  1.0000
  S   S238      1.0  0.90467  0.86264  0.76170  1.0000
  S   S239      1.0  0.85249  0.81739  0.64993  1.0000
  S   S240      1.0  0.87272  0.81177  0.72723  1.0000
  Fe  Fe123     1.0  0.97191  0.86257  0.96491  1.0000
  S   S241      1.0  0.98622  0.87919  0.91860  1.0000
  S   S242      1.0  0.61804  0.67310  0.64641  1.0000
  H   H662      1.0  0.84819  0.67924  0.52837  1.0000
  S   S243      1.0  0.98734  0.83293  0.84844  1.0000
  S   S244      1.0  0.97676  0.82850  0.94582  1.0000
  H   H663      1.0  0.63912  0.93842  0.66364  1.0000
  Fe  Fe124     1.0  0.67048  0.97684  0.90739  1.0000
  S   S245      1.0  0.68804  0.96638  0.95491  1.0000
  S   S246      1.0  0.68567  0.95873  0.86238  1.0000
  C   C671      1.0  0.87788  0.84131  0.51755  1.0000
  C   C672      1.0  0.92275  0.84262  0.91648  1.0000
  H   H664      1.0  0.67656  0.92439  0.91361  1.0000
  S   S247      1.0  0.63691  0.97271  0.93122  1.0000
  H   H665      1.0  0.98938  0.94980  0.99409  1.0000
  H   H666      1.0  0.93662  0.85406  0.91146  1.0000
  H   H667      1.0  0.61281  0.76738  0.57047  1.0000
  H   H668      1.0  0.81552  0.86225  0.58881  1.0000
  S   S248      1.0  0.65576  0.99953  0.99684  1.0000
  H   H669      1.0  0.54743  0.68143  0.75458  1.0000
  H   H670      1.0  0.67431  0.89539  0.92253  1.0000
  C   C673      1.0  0.63627  0.92253  0.89381  1.0000
  H   H671      1.0  0.82298  0.78086  0.68419  1.0000
  H   H672      1.0  0.58372  0.88388  0.64808  1.0000
  H   H673      1.0  0.61945  0.74154  0.58967  1.0000
  N   N55       1.0  0.91922  0.82907  0.88672  1.0000
  C   C674      1.0  0.80381  0.85381  0.51416  1.0000
  C   C675      1.0  0.93025  0.93620  0.97407  1.0000
  C   C676      1.0  0.93833  0.91468  0.97140  1.0000
  C   C677      1.0  0.78215  0.98499  0.95227  1.0000
  H   H674      1.0  0.93633  0.94891  0.95690  1.0000
  H   H675      1.0  0.95049  0.91082  0.95214  1.0000
  H   H676      1.0  0.61518  0.90679  0.67710  1.0000
  H   H677      1.0  0.68827  0.75039  0.63860  1.0000
  C   C678      1.0  0.77550  0.86416  0.55287  1.0000
  C   C679      1.0  0.76263  0.87182  0.52602  1.0000
  C   C680      1.0  0.92845  0.85473  0.78424  1.0000
  C   C681      1.0  0.94152  0.83698  0.77454  1.0000
  C   C682      1.0  0.95973  0.83073  0.79414  1.0000
  C   C683      1.0  0.96480  0.84188  0.82387  1.0000
  C   C684      1.0  0.95191  0.85980  0.83334  1.0000
  C   C685      1.0  0.93393  0.86628  0.81345  1.0000
  H   H678      1.0  0.93755  0.82803  0.75202  1.0000
  H   H679      1.0  0.96970  0.81692  0.78650  1.0000
  H   H680      1.0  0.95576  0.86868  0.85593  1.0000
  H   H681      1.0  0.92397  0.88009  0.82103  1.0000
  C   C686      1.0  0.87519  0.84671  0.55190  1.0000
  C   C687      1.0  0.86392  0.86578  0.56073  1.0000
  H   H682      1.0  0.61425  0.89031  0.57251  1.0000
  H   H683      1.0  0.88223  0.83635  0.57152  1.0000
  H   H684      1.0  0.82347  0.83786  0.56710  1.0000
  C   C688      1.0  0.75995  0.86101  0.65895  1.0000
  C   C689      1.0  0.78248  0.86306  0.65221  1.0000
  C   C690      1.0  0.79750  0.84966  0.66956  1.0000
  C   C691      1.0  0.79000  0.83452  0.69422  1.0000
  C   C692      1.0  0.76744  0.83186  0.69994  1.0000
  C   C693      1.0  0.75242  0.84501  0.68217  1.0000
  H   H685      1.0  0.78837  0.87554  0.63448  1.0000
  H   H686      1.0  0.81490  0.85167  0.66482  1.0000
  H   H687      1.0  0.76154  0.82010  0.71886  1.0000
  H   H688      1.0  0.73504  0.84315  0.68731  1.0000
  C   C694      1.0  0.65955  0.92687  0.76583  1.0000
  C   C695      1.0  0.68056  0.92209  0.77767  1.0000
  C   C696      1.0  0.68823  0.93212  0.80711  1.0000
  C   C697      1.0  0.67496  0.94685  0.82530  1.0000
  C   C698      1.0  0.65384  0.95151  0.81366  1.0000
  C   C699      1.0  0.64624  0.94161  0.78399  1.0000
  H   H689      1.0  0.69100  0.91084  0.76397  1.0000
  H   H690      1.0  0.70458  0.92844  0.81587  1.0000
  H   H691      1.0  0.64353  0.96298  0.82717  1.0000
  H   H692      1.0  0.63001  0.94552  0.77493  1.0000
  C   C700      1.0  0.67770  0.76071  0.62316  1.0000
  C   C701      1.0  0.65820  0.87230  0.54135  1.0000
  C   C702      1.0  0.64401  0.85531  0.55122  1.0000
  C   C703      1.0  0.63251  0.84407  0.52638  1.0000
  H   H693      1.0  0.66711  0.88108  0.56028  1.0000
  H   H694      1.0  0.62132  0.83106  0.53385  1.0000
  C   C704      1.0  0.63734  0.75518  0.68328  1.0000
  C   C705      1.0  0.63351  0.77741  0.67617  1.0000
  C   C706      1.0  0.64751  0.79341  0.68890  1.0000
  C   C707      1.0  0.66507  0.78728  0.70949  1.0000
  C   C708      1.0  0.66874  0.76503  0.71687  1.0000
  C   C709      1.0  0.65505  0.74898  0.70349  1.0000
  H   H695      1.0  0.61994  0.78228  0.66034  1.0000
  H   H696      1.0  0.64461  0.81048  0.68290  1.0000
  H   H697      1.0  0.68234  0.76020  0.73268  1.0000
  H   H698      1.0  0.65825  0.73185  0.70890  1.0000
  Fe  Fe125     1.0  0.67154  0.67328  0.69790  1.0000
  H   H699      1.0  0.55921  0.69072  0.69571  1.0000
  S   S249      1.0  0.63985  0.68522  0.72074  1.0000
  C   C710      1.0  0.86152  0.71287  0.70955  1.0000
  C   C711      1.0  0.87259  0.71023  0.67847  1.0000
  C   C712      1.0  0.88315  0.72822  0.66253  1.0000
  C   C713      1.0  0.88238  0.74893  0.67731  1.0000
  C   C714      1.0  0.87144  0.75141  0.70846  1.0000
  C   C715      1.0  0.86117  0.73343  0.72463  1.0000
  H   H700      1.0  0.76650  0.97774  0.94610  1.0000
  H   H701      1.0  0.89182  0.72614  0.63864  1.0000
  H   H702      1.0  0.87091  0.76712  0.72027  1.0000
  H   H703      1.0  0.85262  0.73554  0.74864  1.0000
  N   N56       1.0  0.79962  0.72248  0.69808  1.0000
  C   C716      1.0  0.79217  0.73921  0.71783  1.0000
  C   C717      1.0  0.81539  0.72627  0.67356  1.0000
  C   C718      1.0  0.82379  0.74737  0.66784  1.0000
  C   C719      1.0  0.79127  0.70024  0.70447  1.0000
  H   H704      1.0  0.78002  0.73611  0.73776  1.0000
  H   H705      1.0  0.82207  0.71284  0.65902  1.0000
  H   H706      1.0  0.83675  0.75024  0.64907  1.0000
  H   H707      1.0  0.79886  0.69313  0.72769  1.0000
  H   H708      1.0  0.77313  0.70038  0.70787  1.0000
  H   H709      1.0  0.85184  0.97618  0.99047  1.0000
  H   H710      1.0  0.63583  0.89403  0.96752  1.0000
  H   H711      1.0  0.65641  0.73434  0.61013  1.0000
  C   C720      1.0  0.79948  0.97188  0.96378  1.0000
  H   H712      1.0  0.59871  0.73814  0.79261  1.0000
  C   C721      1.0  0.59868  0.87832  0.63425  1.0000
  H   H713      1.0  0.60774  0.86637  0.65042  1.0000
  C   C722      1.0  0.66755  0.91171  0.92894  1.0000
  H   H714      1.0  0.90798  0.85241  0.92328  1.0000
  H   H715      1.0  0.94181  0.78583  0.84645  1.0000
  C   C723      1.0  0.55821  0.69445  0.76242  1.0000
  H   H716      1.0  0.91209  0.79502  0.80593  1.0000
  C   C724      1.0  0.65956  0.75175  0.60719  1.0000
  H   H717      1.0  0.94641  0.80808  0.89745  1.0000
  H   H718      1.0  0.89301  0.69312  0.57013  1.0000
  H   H719      1.0  0.58560  0.67930  0.70627  1.0000
  H   H720      1.0  0.59354  0.86945  0.61132  1.0000
  C   C725      1.0  0.87690  0.70120  0.56578  1.0000
  S   S250      1.0  0.84677  0.69121  0.72897  1.0000
  H   H721      1.0  0.79713  0.95432  0.96622  1.0000
  C   C726      1.0  0.60218  0.94154  0.00105  1.0000
  H   H722      1.0  0.87308  0.69434  0.66681  1.0000
  H   H723      1.0  0.59937  0.67796  0.83203  1.0000
  H   H724      1.0  0.79519  0.68920  0.68307  1.0000
  H   H725      1.0  0.86418  0.69078  0.57862  1.0000
  H   H726      1.0  0.59581  0.89494  0.95750  1.0000
  C   C727      1.0  0.83679  0.96683  0.98452  1.0000
  C   C728      1.0  0.68157  0.78318  0.62015  1.0000
  S   S251      1.0  0.93961  0.87088  0.99054  1.0000
  C   C729      1.0  0.58820  0.71842  0.75099  1.0000
  N   N57       1.0  0.79515  0.89475  0.71814  1.0000
  C   C730      1.0  0.77494  0.90291  0.70988  1.0000
  C   C731      1.0  0.79696  0.87798  0.74150  1.0000
  C   C732      1.0  0.75593  0.89471  0.72591  1.0000
  C   C733      1.0  0.77827  0.86934  0.75792  1.0000
  C   C734      1.0  0.75764  0.87783  0.75008  1.0000
  C   C735      1.0  0.81482  0.90295  0.70015  1.0000
  H   H727      1.0  0.77330  0.91537  0.69009  1.0000
  H   H728      1.0  0.81282  0.87061  0.74668  1.0000
  H   H729      1.0  0.73991  0.90084  0.71860  1.0000
  H   H730      1.0  0.77975  0.85552  0.77549  1.0000
  H   H731      1.0  0.74295  0.87082  0.76181  1.0000
  H   H732      1.0  0.81290  0.92042  0.69233  1.0000
  H   H733      1.0  0.82948  0.90183  0.71655  1.0000
  H   H734      1.0  0.81804  0.89314  0.67711  1.0000
  C   C736      1.0  0.93032  0.89816  0.99333  1.0000
  H   H735      1.0  0.99150  0.92678  0.84393  1.0000
  C   C737      1.0  0.62624  0.75518  0.57357  1.0000
  C   C738      1.0  0.64009  0.93241  0.60979  1.0000
  C   C739      1.0  0.60709  0.90258  0.93928  1.0000
  N   N58       1.0  0.57370  0.70299  0.74041  1.0000
  C   C740      1.0  0.58708  0.72603  0.78425  1.0000
  C   C741      1.0  0.55647  0.70186  0.79573  1.0000
  C   C742      1.0  0.93048  0.79914  0.85166  1.0000
  C   C743      1.0  0.64936  0.78686  0.58568  1.0000
  H   H736      1.0  0.98802  0.90997  0.99421  1.0000
  H   H737      1.0  0.69520  0.79047  0.63324  1.0000
  C   C744      1.0  0.85487  0.87910  0.53498  1.0000
  H   H738      1.0  0.57028  0.72298  0.83284  1.0000
  H   H739      1.0  0.67072  0.91511  0.95605  1.0000
  C   C745      1.0  0.66754  0.79628  0.60081  1.0000
  N   N59       1.0  0.87320  0.70367  0.52921  1.0000
  H   H740      1.0  0.89268  0.84864  0.86836  1.0000
  H   H741      1.0  0.65097  0.94604  0.60376  1.0000
  C   C746      1.0  0.90303  0.83443  0.86433  1.0000
  N   N60       1.0  0.61287  0.89703  0.62552  1.0000
  C   C747      1.0  0.63340  0.92821  0.64332  1.0000
  C   C748      1.0  0.90002  0.82207  0.83523  1.0000
  H   H742      1.0  0.92663  0.83227  0.93916  1.0000
  H   H743      1.0  0.81992  0.84685  0.50918  1.0000
  H   H744      1.0  0.60084  0.72483  0.73376  1.0000
  H   H745      1.0  0.84133  0.95488  0.96471  1.0000
  C   C749      1.0  0.80028  0.76049  0.71289  1.0000
  H   H746      1.0  0.54452  0.69468  0.81343  1.0000
  H   H747      1.0  0.63850  0.92151  0.55806  1.0000
  C   C750      1.0  0.59908  0.91354  0.91066  1.0000
  N   N61       1.0  0.64535  0.76490  0.58954  1.0000
  C   C751      1.0  0.81621  0.76453  0.68775  1.0000
  H   H748      1.0  0.79451  0.77378  0.72868  1.0000
  N   N62       1.0  0.81893  0.98110  0.97279  1.0000
  C   C752      1.0  0.91447  0.94138  0.99905  1.0000
  H   H749      1.0  0.88767  0.82679  0.81690  1.0000
  C   C753      1.0  0.61375  0.92346  0.88757  1.0000
  H   H750      1.0  0.79922  0.83762  0.59357  1.0000
  S   S252      1.0  0.90525  0.96866  0.00249  1.0000
  C   C754      1.0  0.80911  0.84782  0.57538  1.0000
  H   H751      1.0  0.60674  0.95708  0.98933  1.0000
  N   N63       1.0  0.79576  0.85519  0.54670  1.0000
  H   H752      1.0  0.51897  0.77284  0.95412  1.0000
  N   N64       1.0  0.64393  0.91236  0.92250  1.0000
  C   C755      1.0  0.63310  0.91871  0.58419  1.0000
  C   C756      1.0  0.61983  0.91025  0.65081  1.0000
  H   H753      1.0  0.67041  0.81372  0.59790  1.0000
  S   S253      1.0  0.66807  0.69274  0.64977  1.0000
  H   H754      1.0  0.64754  0.93039  0.87597  1.0000
  H   H755      1.0  0.76915  0.86546  0.57868  1.0000
  C   C757      1.0  0.61934  0.90104  0.59254  1.0000
  H   H756      1.0  0.84612  0.89388  0.54168  1.0000
  C   C758      1.0  0.62972  0.90212  0.94479  1.0000
  H   H757      1.0  0.87673  0.71742  0.57810  1.0000
  H   H758      1.0  0.56768  0.94596  0.99193  1.0000
  H   H759      1.0  0.55370  0.70142  0.00250  1.0000
  C   C759      1.0  0.91383  0.80430  0.82895  1.0000
  H   H760      1.0  0.58153  0.91442  0.90654  1.0000
  Fe  Fe126     1.0  0.65457  0.96480  0.97932  1.0000
  H   H761      1.0  0.60779  0.93202  0.86513  1.0000
  H   H762      1.0  0.63837  0.79737  0.57128  1.0000
  H   H763      1.0  0.74654  0.87887  0.53101  1.0000
  Fe  Fe127     1.0  0.51144  0.67131  0.97025  1.0000
  C   C760      1.0  0.99847  0.89560  0.82128  1.0000
  C   C761      1.0  0.58006  0.93522  0.00255  1.0000
  H   H764      1.0  0.63100  0.74877  0.54830  1.0000
  C   C762      1.0  0.57560  0.69452  0.70595  1.0000
  Fe  Fe128     1.0  0.99375  0.84515  0.90149  1.0000
  S   S254      1.0  0.00339  0.86234  0.99322  1.0000
  H   H765      1.0  0.58352  0.70663  0.68821  1.0000
  C   C763      1.0  0.51550  0.76377  0.97745  1.0000
  C   C764      1.0  0.51348  0.74071  0.97664  1.0000
  H   H766      1.0  0.51536  0.73227  0.95289  1.0000
  C   C765      1.0  0.85785  0.69111  0.51378  1.0000
  H   H767      1.0  0.89820  0.72786  0.52264  1.0000
  C   C766      1.0  0.88586  0.71808  0.51047  1.0000
  H   H768      1.0  0.88704  0.82675  0.51092  1.0000
  S   S255      1.0  0.70325  0.67231  0.72612  1.0000
  C   C767      1.0  0.00262  0.91289  0.84290  1.0000
  C   C768      1.0  0.50853  0.72873  0.00641  1.0000
  S   S256      1.0  0.51470  0.80445  0.00694  1.0000
