data_image0
_chemical_formula_structural       FeCSHSH2C2FeS2FeS2FeSHSC6NSH6C8H5C4HCNCH4NH2SH3C3FeH4C3SH2SHCSC6SHFeHCHS2NHFeS2FeS2FeSFeS3FeS2FeSCFeSFeS3C6H4CHC6H4CHSC2HCHC5H7C7H4C2HC4HFeH2CHCHNC4HC3HCH6C2H3SHCH4NH3C3HFeC3HS2H2CHC2HNHCNHCH2CHNH5NH2CH4CFeCH2C2HC2HC2H3C2HCH2C2H2SFeSCFeSHFeS2H6FeCSH2C2H4CH3FeS2FeS2FeSFeS3FeS2FeS2FeSFeS4C2HFeH2C7H4C2HSCFeH2CSC4HCH2CHC6H4CNHFeCH3C3HC7H4C6H4FeHC2NSCHCHCH2SHCSHC2H2NHC2H3C3NC6H10CNHC2SC2HC6H6NCHCSHC2SHCSFe2CFe2HFeSFeSH2S2CHCHSHCSC6H4CSHC2HSC2HC3HC2H3CNHCH2C2H3NHCH5CH3FeS2FeSFeS3CH2FeS2NC3H2FeS2FeS2FeSFeS4C6H4C6H5S2CSH2CHC4SCH4CFeC2HC4H2C7H6CNC2HCHSH3CHCH3CH2NC2HCH2CHC3H2NCFeH7N2HC2H2C2HNC6H9CHC2H3C3HC4H3C2HCHCSH2CHCSHCHFeS2FeSFeSFeS3FeS2FeS2FeSFeS3HFeSHSC6H4C4FeH2C6H4C8H4C4SCH2SHS2CHC6H4C2HC2H3CSH2CH3C2H5NC6H7CHNH3CHCSCH2C3H6C3H2SH2C3H2CNHCHFeC2FeC2HCH2CH2NCH2CHFeCSCHC3HFeNCHC2NC2HC3NH2FeH3SCH2CH4C2HC3H2C2SH3C2H2NH2SNHCFeS2FeSCFe2S3FeS2FeS2FeHFeS3FeS3HCFeS2FeSFeSFeS3H2C4HC2HC8H4C6H4CH2NC4H2C6H5C6H2C6H3NSH2C2HNCHSCHCHCH2S2H2CH3C3H2NC2HC2HCSH4FeHC3H4C3NC6H11C2H3CFeCH2CHCH2SHSHNH2C2SHCNC2S3H2SHCSCSCFeSHS2FeS2FeS2FeHFeS3C5FeCHC6H5CFeH2C2HCS2C2H2FeH3C6H4C7H8C4HC3H2CHCSHC3H2NC6H8FeNH2CHCFeC2SH2C2NHCHSHC2HSCSHFeCH2SNCH4C3HNHCFeSFeS2FeSFeS3HFeHSFeS2FeSCFeSFeS3FeS2FeS2FeSFeS3C4HCHC6H4C6H2CH4SHCHCHC6H4C6H4C6H4C4H2C2HC2FeHNC2HC2HNC6H9CH4C2H2C3HCNC6H13SCHCHNCH3CH2NSHNC2H2C5H2SC2HCHCH3CHSC2NHC5FeCH4CH5SHSHFeS2FeS2HNFeSHSFeS2FeS2FeSFeS3CHCHC2H2CH2C5H4C6H5C4NCHC5HC2HCSCHCNC3HC3H3CSH4C2HC3SH2Fe2C2H2SC2H4CH5C3HSHNCH6C4HCHC2HC2SNC2H2CH2CHC2H3SFeC2HCHC2HSH2C2FeHCH2NC2HC2HCFeS2FeS2FeHFeS3FeS2FeS2FeSFeS2CSH2SCS2C5FeH2C3HS2HC2HC6H4CH4CFeC7H4CH2SC2HCSHNHC5H2C3HSHCHC3H2C5HCNCHC2HCNCSH2CHCNC2HC2H2C2H5CHCNCHC3H4CH3CH2NCFeH6SH5NHCHCHCHC3HCHCH2CFeS2FeS2FeSFeS3NFeS2HFeS3FeH2CFe2HSFeS2FeSFeHS4FeHFeSFeS2H3SC2HFeC6H4CHCH3CH3FeHC6H4C6H3C6H4C6H4C4H2C3HC3H2CHSH4CFeH3SC2H2NC6HCH4C2NC6H6FeHCHCH2CHSHC2HC2H4S3C2HFeCSCSH2NCH4CH3SH2CNC2HCH2CS2C3H4SHCSHCHSFeC3H3NC2SHCHNC5SFeC3HC5HCHNHCH4CSCH4CSCHS2H6CH2NH2C2FeS2FeSHS2CHCSCFeS2FeS2FeSFeS3FeS2FeS2FeSFeS3CHCSHC3H2C6H4C2H2C2FeHCHCH8C5H2SHC2H2C6H4C6H4FeCHC4FeC2H2CHFeNC6H4CH3NC6H8NHC2H2SC6H2FeCHCSHCHNH6C3NC3S2CH4C2HSC2H2CHCHCHC3H2CH2CNH4FeSHSHSHNC2H4C4HSHS3FeSFeHCH2SHCHCHC2HFeH2CHC3NCHCHC3SHCNSC2H5C2SCH3C2SHCHCHCHNC4HC5HC2H5CH2C2HC2HCHSCHC2H2CH2NFeCSCH2SHCHCSHCH2CFeS2FeSFeS3FeCFeHSCH2SHC5H2C2HCHCH2FeSFe2S2FeS2FeSFeSHSC2SCHCHS2HC4SCH2CHCH2FeC10H4C4H2S2H4CHS2C6H4C6H4CHC3H2C2HSH2C4HC3H3CH2C2HNHC3H4CHFeNC6H9C3H3CHN2FeCSHFeC2SFeHC2HNCSCHC2H4NHCFeC2H4C3HCFeH2C2NC4SCSH2CNCH2C2H4CHC3HCHSCHCHFeCSH2SHCSNH2NSH2CSHCHCSC2SHCH2CH3C2HSHSCNCSH2CHFeSCFeSHFeSFeHS2FeHSFeS2FeSHS2CH2CHSCHCSN2FeHC3HC4H4CH2C6H4NSCHC2HCSHC2HC2HSC3H2CH2CH2CHCHC3HCH2NHCHCHCH2C3H3FeCFeHSH2FeSHS3CSFeS2FeS2FeSFeS3HSCFeS2FeS2FeSCFeSFeS3C2HC4H3C2H2C6H4C6H4C5SH3CHFeHSC9H3FeHCHNC6H5C10H3CNC2H5NC5H5FeHC3HN2CHCHCH2SCHSH2CSH3CHSHC4NH2CSHCSCHCHFeH4C3HCSHCH4CH3SFeCH2CNSH2CNH2C3H2C2SFeCSC2H2FeS2FeNFeCSHCHCH2FeS2FeSCFeSFeS3FeS2FeS2FeHFeS3C7H5CHC4H3C7H4CHSH2C3H2CHC5H4CHC2SH3CNHN2HC2H2NSH4C2NC2HC2H2CH5C3HC2NC3HCHSFeC2H2C2SHCH2C2NC6H6C2H3CH3CH3C2HCSHCFeH2CH3C3H6CHCH5C2H4SHFeCHFeHSC3HS2FeS2FeS2H3CHC2SC6H4C6H2NCHC2SHC2FeH3NC4NCH2CHSC3SFeHFeHNFeH4C2HC2HC2HCH4C2SFeS2FeHFeS2FeS2FeS2FeSFeS3H3SCH2C2SFeS2FeHFeS2HFeH2C2H3C4HCH2C8H4C6H5CH2C2HCFeHC6H5NCH2SH3C2NH4CSC2NC3HNC6H8NC6H8SHCSCH5SC2SHSHFeSNFe2SHSH2C2H2S2NCHCSH3CH2FeS2FeS2FeS2FeS2FeSFeS3FeHSHFeCSC7H4C6H3C6H5C6H4SC2NH2CHCH2C7H4C4NS2CHNHC4H5NH4NCFeCHC3HCHSHC4HCH2C3HCSHSCH2NC2HSHFeHFeHC2H3CSFeH2CH2CH5CH3C2SH2FeHCHFeC3H3FeS2H2CH4S2FeS2FeSHFeSFeS3HCFeS2FeS2FeSFeHS2C2H2C2HC4H4CNC2HC8H5C6H5CSC3HC2H4C2HC2FeC4HNC6H9C3H3FeCH2CHCH3NHCH2C4HSHFeH2NH3C2FeCSHC2H2FeS2FeSFeCS2FeSFe2S2HFeS3H2C6H4C6HCH2NCH2SH2CH2CHCH2C8H4C3HSH3CSNSH3C2H2C2H2FeSHC2HC3HSHCHFeHC2HC3HC3H3CHNH2CFeC2H2CSNC3NH3CSFeH2CS2H2C3H3NHCH3
_chemical_formula_sum              "Fe288 C1728 S576 H1728 N144"
_cell_length_a       68.7819
_cell_length_b       68.5053
_cell_length_c       70.4695
_cell_angle_alpha    79.1101
_cell_angle_beta     78.6112
_cell_angle_gamma    79.196

_space_group_name_H-M_alt    "P 1"
_space_group_IT_number       1

loop_
  _space_group_symop_operation_xyz
  'x, y, z'

loop_
  _atom_site_type_symbol
  _atom_site_label
  _atom_site_symmetry_multiplicity
  _atom_site_fract_x
  _atom_site_fract_y
  _atom_site_fract_z
  _atom_site_occupancy
  Fe  Fe1       1.0  0.30374  0.35482  0.03456  1.0000
  C   C1        1.0  0.29695  0.32045  0.11152  1.0000
  S   S1        1.0  0.27066  0.36581  0.04310  1.0000
  H   H1        1.0  0.31064  0.28474  0.08196  1.0000
  S   S2        1.0  0.09456  0.37970  0.21431  1.0000
  H   H2        1.0  0.29740  0.29768  0.05170  1.0000
  H   H3        1.0  0.19293  0.45451  0.19224  1.0000
  C   C2        1.0  0.30254  0.29826  0.08749  1.0000
  C   C3        1.0  0.30732  0.30312  0.10426  1.0000
  Fe  Fe2       1.0  0.18205  0.43631  0.15678  1.0000
  S   S3        1.0  0.21331  0.44354  0.15160  1.0000
  S   S4        1.0  0.17133  0.42313  0.18822  1.0000
  Fe  Fe3       1.0  0.17641  0.45537  0.11550  1.0000
  S   S5        1.0  0.20734  0.46378  0.10710  1.0000
  S   S6        1.0  0.15695  0.46372  0.09205  1.0000
  Fe  Fe4       1.0  0.21725  0.43290  0.12271  1.0000
  S   S7        1.0  0.24793  0.41514  0.11392  1.0000
  H   H4        1.0  0.20780  0.47376  0.18115  1.0000
  S   S8        1.0  0.18679  0.42331  0.12886  1.0000
  C   C4        1.0  0.19492  0.47012  0.19280  1.0000
  C   C5        1.0  0.28174  0.33247  0.10218  1.0000
  C   C6        1.0  0.14891  0.41278  0.19497  1.0000
  C   C7        1.0  0.13886  0.40888  0.18100  1.0000
  C   C8        1.0  0.12176  0.39928  0.18708  1.0000
  C   C9        1.0  0.11466  0.39360  0.20710  1.0000
  N   N1        1.0  0.14163  0.34187  0.21639  1.0000
  S   S9        1.0  0.16910  0.46746  0.14405  1.0000
  H   H5        1.0  0.14446  0.41291  0.16554  1.0000
  H   H6        1.0  0.11422  0.39597  0.17623  1.0000
  H   H7        1.0  0.30066  0.32452  0.12438  1.0000
  H   H8        1.0  0.31043  0.43038  0.09578  1.0000
  H   H9        1.0  0.12566  0.35167  0.19224  1.0000
  H   H10       1.0  0.27569  0.44299  0.08986  1.0000
  C   C10       1.0  0.30598  0.42829  0.08246  1.0000
  C   C11       1.0  0.14149  0.40757  0.21496  1.0000
  C   C12       1.0  0.26397  0.37892  0.06326  1.0000
  C   C13       1.0  0.24402  0.38794  0.06855  1.0000
  C   C14       1.0  0.23861  0.39869  0.08447  1.0000
  C   C15       1.0  0.25313  0.40015  0.09529  1.0000
  C   C16       1.0  0.27288  0.39056  0.09036  1.0000
  C   C17       1.0  0.27835  0.38027  0.07424  1.0000
  H   H11       1.0  0.23277  0.38685  0.06017  1.0000
  H   H12       1.0  0.22330  0.40603  0.08821  1.0000
  H   H13       1.0  0.28417  0.39160  0.09871  1.0000
  H   H14       1.0  0.29376  0.37358  0.07028  1.0000
  H   H15       1.0  0.28921  0.41975  0.03595  1.0000
  C   C18       1.0  0.31365  0.41527  0.05190  1.0000
  C   C19       1.0  0.28636  0.43545  0.07897  1.0000
  C   C20       1.0  0.29388  0.42245  0.04894  1.0000
  C   C21       1.0  0.28367  0.30541  0.06020  1.0000
  H   H16       1.0  0.27347  0.34594  0.10772  1.0000
  C   C22       1.0  0.12439  0.39809  0.22101  1.0000
  N   N2        1.0  0.28048  0.43223  0.06250  1.0000
  C   C23       1.0  0.27741  0.32715  0.08542  1.0000
  H   H17       1.0  0.24933  0.44136  0.07300  1.0000
  H   H18       1.0  0.25441  0.42930  0.05185  1.0000
  H   H19       1.0  0.27819  0.31921  0.05032  1.0000
  H   H20       1.0  0.25934  0.45482  0.04950  1.0000
  N   N3        1.0  0.28815  0.31054  0.07799  1.0000
  H   H21       1.0  0.15362  0.36547  0.19565  1.0000
  H   H22       1.0  0.26559  0.33658  0.07821  1.0000
  S   S10       1.0  0.31568  0.32971  0.01682  1.0000
  H   H23       1.0  0.27204  0.29542  0.06413  1.0000
  H   H24       1.0  0.31914  0.29358  0.11142  1.0000
  H   H25       1.0  0.17560  0.37159  0.21693  1.0000
  C   C24       1.0  0.31967  0.41811  0.06881  1.0000
  C   C25       1.0  0.25990  0.43990  0.05898  1.0000
  C   C26       1.0  0.15389  0.35621  0.20993  1.0000
  Fe  Fe5       1.0  0.20075  0.47363  0.13653  1.0000
  H   H26       1.0  0.19866  0.47049  0.20733  1.0000
  H   H27       1.0  0.15752  0.46225  0.19628  1.0000
  H   H28       1.0  0.13496  0.32496  0.19684  1.0000
  H   H29       1.0  0.11333  0.33638  0.21259  1.0000
  C   C27       1.0  0.12836  0.33845  0.20383  1.0000
  C   C28       1.0  0.15866  0.47812  0.19212  1.0000
  C   C29       1.0  0.16647  0.35967  0.22190  1.0000
  S   S11       1.0  0.31905  0.15032  0.22343  1.0000
  H   H30       1.0  0.00706  0.42732  0.46043  1.0000
  H   H31       1.0  0.15467  0.32394  0.26103  1.0000
  S   S12       1.0  0.12368  0.12285  0.43679  1.0000
  H   H32       1.0  0.13388  0.28417  0.37733  1.0000
  C   C30       1.0  0.15467  0.33304  0.24663  1.0000
  S   S13       1.0  0.07589  0.10390  0.46663  1.0000
  C   C31       1.0  0.27300  0.16882  0.25577  1.0000
  C   C32       1.0  0.27358  0.01968  0.28058  1.0000
  C   C33       1.0  0.09597  0.08652  0.42464  1.0000
  C   C34       1.0  0.12488  0.26536  0.36031  1.0000
  C   C35       1.0  0.05703  0.08783  0.41873  1.0000
  C   C36       1.0  0.24779  0.18769  0.27719  1.0000
  S   S14       1.0  0.30404  0.12071  0.27785  1.0000
  H   H33       1.0  0.28410  0.02881  0.27018  1.0000
  Fe  Fe6       1.0  0.06627  0.98638  0.44488  1.0000
  H   H34       1.0  0.11884  0.39416  0.23645  1.0000
  C   C37       1.0  0.19072  0.23493  0.47382  1.0000
  H   H35       1.0  0.99760  0.30342  0.28402  1.0000
  S   S15       1.0  0.05045  0.01693  0.45137  1.0000
  S   S16       1.0  0.30727  0.15655  0.31604  1.0000
  N   N4        1.0  0.11467  0.26470  0.34570  1.0000
  H   H36       1.0  0.22428  0.13274  0.38702  1.0000
  Fe  Fe7       1.0  0.15858  0.21456  0.37891  1.0000
  S   S17       1.0  0.18585  0.19209  0.38391  1.0000
  S   S18       1.0  0.12651  0.21008  0.38925  1.0000
  Fe  Fe8       1.0  0.18266  0.24693  0.35740  1.0000
  S   S19       1.0  0.21251  0.22735  0.36074  1.0000
  S   S20       1.0  0.17739  0.27964  0.34352  1.0000
  Fe  Fe9       1.0  0.19862  0.20343  0.35289  1.0000
  S   S21       1.0  0.21292  0.18055  0.33297  1.0000
  Fe  Fe10      1.0  0.19757  0.21740  0.39166  1.0000
  S   S22       1.0  0.21341  0.20674  0.41784  1.0000
  S   S23       1.0  0.17001  0.22368  0.34718  1.0000
  S   S24       1.0  0.16911  0.23914  0.38913  1.0000
  Fe  Fe11      1.0  0.08406  0.37130  0.28862  1.0000
  S   S25       1.0  0.07603  0.34058  0.30018  1.0000
  S   S26       1.0  0.08472  0.39370  0.30788  1.0000
  Fe  Fe12      1.0  0.08767  0.36643  0.24636  1.0000
  S   S27       1.0  0.07921  0.33535  0.25444  1.0000
  C   C38       1.0  0.00582  0.35666  0.25864  1.0000
  Fe  Fe13      1.0  0.05563  0.34815  0.27769  1.0000
  S   S28       1.0  0.02482  0.33992  0.29038  1.0000
  Fe  Fe14      1.0  0.10016  0.33050  0.27623  1.0000
  S   S29       1.0  0.12069  0.30066  0.27933  1.0000
  S   S30       1.0  0.06210  0.37969  0.26768  1.0000
  S   S31       1.0  0.11032  0.36060  0.26654  1.0000
  C   C39       1.0  0.16285  0.28589  0.32458  1.0000
  C   C40       1.0  0.15312  0.30571  0.32009  1.0000
  C   C41       1.0  0.14030  0.31060  0.30600  1.0000
  C   C42       1.0  0.13743  0.29569  0.29619  1.0000
  C   C43       1.0  0.14783  0.27613  0.30007  1.0000
  C   C44       1.0  0.16045  0.27124  0.31422  1.0000
  H   H37       1.0  0.15510  0.31719  0.32788  1.0000
  H   H38       1.0  0.13246  0.32580  0.30297  1.0000
  H   H39       1.0  0.14596  0.26464  0.29224  1.0000
  H   H40       1.0  0.16857  0.25621  0.31686  1.0000
  C   C45       1.0  0.20434  0.21771  0.43927  1.0000
  H   H41       1.0  0.22084  0.19397  0.45733  1.0000
  C   C46       1.0  0.28106  0.16328  0.32041  1.0000
  C   C47       1.0  0.26860  0.15193  0.31525  1.0000
  C   C48       1.0  0.24768  0.15738  0.31927  1.0000
  C   C49       1.0  0.23914  0.17417  0.32845  1.0000
  C   C50       1.0  0.25158  0.18552  0.33365  1.0000
  C   C51       1.0  0.27252  0.18012  0.32956  1.0000
  H   H42       1.0  0.27503  0.13884  0.30838  1.0000
  H   H43       1.0  0.23807  0.14855  0.31524  1.0000
  H   H44       1.0  0.24509  0.19849  0.34074  1.0000
  H   H45       1.0  0.28213  0.18891  0.33364  1.0000
  C   C52       1.0  0.19112  0.23591  0.43892  1.0000
  H   H46       1.0  0.02310  0.40048  0.40781  1.0000
  S   S32       1.0  0.07057  0.98275  0.41322  1.0000
  C   C53       1.0  0.18445  0.24453  0.45612  1.0000
  C   C54       1.0  0.16674  0.34807  0.24042  1.0000
  H   H47       1.0  0.99293  0.15416  0.45091  1.0000
  C   C55       1.0  0.28772  0.17739  0.26099  1.0000
  H   H48       1.0  0.32253  0.99255  0.28842  1.0000
  C   C56       1.0  0.02964  0.39491  0.35605  1.0000
  C   C57       1.0  0.03707  0.41277  0.34743  1.0000
  C   C58       1.0  0.05440  0.41230  0.33302  1.0000
  C   C59       1.0  0.06404  0.39404  0.32698  1.0000
  C   C60       1.0  0.05672  0.37621  0.33586  1.0000
  H   H49       1.0  0.02947  0.42695  0.35181  1.0000
  H   H50       1.0  0.06009  0.42611  0.32624  1.0000
  H   H51       1.0  0.15238  0.22181  0.44168  1.0000
  H   H52       1.0  0.23164  0.13762  0.36059  1.0000
  H   H53       1.0  0.27936  0.01596  0.29470  1.0000
  H   H54       1.0  0.03459  0.10083  0.46545  1.0000
  H   H55       1.0  0.09671  0.31426  0.33479  1.0000
  C   C61       1.0  0.06521  0.10561  0.41512  1.0000
  C   C62       1.0  0.12310  0.14643  0.42185  1.0000
  C   C63       1.0  0.10655  0.16162  0.42442  1.0000
  C   C64       1.0  0.10729  0.18103  0.41374  1.0000
  C   C65       1.0  0.12456  0.18523  0.40044  1.0000
  C   C66       1.0  0.14059  0.16973  0.39704  1.0000
  C   C67       1.0  0.13990  0.15037  0.40777  1.0000
  H   H56       1.0  0.09324  0.15852  0.43472  1.0000
  H   H57       1.0  0.09469  0.19290  0.41620  1.0000
  H   H58       1.0  0.15349  0.17259  0.38607  1.0000
  H   H59       1.0  0.15257  0.13855  0.40544  1.0000
  C   C68       1.0  0.11471  0.30133  0.35723  1.0000
  C   C69       1.0  0.10433  0.30053  0.34233  1.0000
  H   H60       1.0  0.28579  0.01137  0.24403  1.0000
  C   C70       1.0  0.21056  0.20803  0.45698  1.0000
  C   C71       1.0  0.01119  0.09713  0.45071  1.0000
  C   C72       1.0  0.01486  0.12876  0.45935  1.0000
  C   C73       1.0  0.00336  0.41920  0.45013  1.0000
  H   H61       1.0  0.01588  0.08113  0.45109  1.0000
  Fe  Fe15      1.0  0.10027  0.12209  0.46399  1.0000
  H   H62       1.0  0.06436  0.36204  0.33170  1.0000
  H   H63       1.0  0.14206  0.20855  0.42740  1.0000
  C   C74       1.0  0.09926  0.05030  0.43658  1.0000
  H   H64       1.0  0.02510  0.39950  0.29087  1.0000
  C   C75       1.0  0.99201  0.99388  0.43117  1.0000
  H   H65       1.0  0.09929  0.05034  0.45235  1.0000
  N   N5        1.0  0.27242  0.00124  0.27343  1.0000
  C   C76       1.0  0.06860  0.06963  0.42533  1.0000
  C   C77       1.0  0.27901  0.99948  0.25410  1.0000
  C   C78       1.0  0.02176  0.10828  0.45881  1.0000
  C   C79       1.0  0.99810  0.13824  0.45085  1.0000
  H   H66       1.0  0.30164  0.21272  0.26843  1.0000
  C   C80       1.0  0.15385  0.20712  0.43659  1.0000
  C   C81       1.0  0.22801  0.14443  0.37424  1.0000
  C   C82       1.0  0.03962  0.37662  0.35045  1.0000
  H   H67       1.0  0.11097  0.08631  0.42748  1.0000
  C   C83       1.0  0.08488  0.10496  0.41786  1.0000
  H   H68       1.0  0.02092  0.99992  0.43424  1.0000
  H   H69       1.0  0.17617  0.35079  0.25000  1.0000
  H   H70       1.0  0.09134  0.11872  0.41542  1.0000
  H   H71       1.0  0.11500  0.04844  0.42872  1.0000
  H   H72       1.0  0.18642  0.24361  0.42532  1.0000
  H   H73       1.0  0.21449  0.15598  0.37263  1.0000
  C   C84       1.0  0.00394  0.34799  0.27840  1.0000
  C   C85       1.0  0.00512  0.00589  0.43423  1.0000
  H   H74       1.0  0.13616  0.17497  0.43946  1.0000
  H   H75       1.0  0.13339  0.14681  0.46699  1.0000
  H   H76       1.0  0.00188  0.31434  0.25884  1.0000
  S   S33       1.0  0.00745  0.39516  0.37321  1.0000
  H   H77       1.0  0.25851  0.02902  0.28266  1.0000
  C   C86       1.0  0.14099  0.15911  0.46781  1.0000
  H   H78       1.0  0.23225  0.19158  0.28398  1.0000
  H   H79       1.0  0.04171  0.08818  0.41671  1.0000
  H   H80       1.0  0.03990  0.05567  0.46267  1.0000
  H   H81       1.0  0.14910  0.41069  0.22585  1.0000
  N   N6        1.0  0.24473  0.15360  0.37686  1.0000
  H   H82       1.0  0.26700  0.13444  0.36023  1.0000
  H   H83       1.0  0.22582  0.17424  0.39443  1.0000
  H   H84       1.0  0.11515  0.31569  0.36138  1.0000
  C   C87       1.0  0.26291  0.19603  0.28201  1.0000
  C   C88       1.0  0.26400  0.14642  0.36901  1.0000
  C   C89       1.0  0.24102  0.16881  0.38781  1.0000
  H   H85       1.0  0.09742  0.28168  0.32427  1.0000
  Fe  Fe16      1.0  0.32070  0.13516  0.29437  1.0000
  C   C90       1.0  0.25674  0.17777  0.39052  1.0000
  C   C91       1.0  0.12513  0.28366  0.36624  1.0000
  C   C92       1.0  0.28011  0.15500  0.37146  1.0000
  H   H86       1.0  0.02043  0.35912  0.25039  1.0000
  S   S34       1.0  0.32220  0.06203  0.29629  1.0000
  S   S35       1.0  0.99486  0.44810  0.39125  1.0000
  H   H87       1.0  0.24139  0.16717  0.26035  1.0000
  H   H88       1.0  0.25359  0.19007  0.39897  1.0000
  C   C93       1.0  0.27639  0.17086  0.38219  1.0000
  H   H89       1.0  0.29528  0.14978  0.36451  1.0000
  C   C94       1.0  0.05944  0.02755  0.46811  1.0000
  C   C95       1.0  0.10472  0.28201  0.33651  1.0000
  H   H90       1.0  0.00320  0.28737  0.26533  1.0000
  N   N7        1.0  0.08776  0.06918  0.42832  1.0000
  H   H91       1.0  0.99275  0.38824  0.33908  1.0000
  C   C96       1.0  0.01745  0.41442  0.43384  1.0000
  N   N8        1.0  0.15184  0.19079  0.45327  1.0000
  H   H92       1.0  0.03397  0.36278  0.35717  1.0000
  C   C97       1.0  0.11559  0.24547  0.33905  1.0000
  H   H93       1.0  0.13318  0.25172  0.36724  1.0000
  H   H94       1.0  0.11534  0.23290  0.35165  1.0000
  C   C98       1.0  0.25293  0.17391  0.26407  1.0000
  H   H95       1.0  0.02673  0.37683  0.30871  1.0000
  N   N9        1.0  0.99716  0.39236  0.30783  1.0000
  H   H96       1.0  0.12967  0.24245  0.32848  1.0000
  H   H97       1.0  0.10259  0.24557  0.33184  1.0000
  H   H98       1.0  0.27726  0.15827  0.24538  1.0000
  H   H99       1.0  0.05623  0.11989  0.41047  1.0000
  H   H100      1.0  0.16882  0.20417  0.42731  1.0000
  N   N10       1.0  0.28261  0.19050  0.27424  1.0000
  H   H101      1.0  0.28868  0.17788  0.38395  1.0000
  H   H102      1.0  0.99764  0.39540  0.27704  1.0000
  C   C99       1.0  0.29833  0.19932  0.27940  1.0000
  H   H103      1.0  0.17454  0.25883  0.45567  1.0000
  H   H104      1.0  0.25879  0.20655  0.29241  1.0000
  H   H105      1.0  0.31230  0.18815  0.27999  1.0000
  H   H106      1.0  0.25880  0.98746  0.30142  1.0000
  C   C100      1.0  0.27805  0.98191  0.24717  1.0000
  Fe  Fe17      1.0  0.98976  0.42604  0.37375  1.0000
  C   C101      1.0  0.01232  0.40423  0.42061  1.0000
  H   H107      1.0  0.32007  0.02003  0.30749  1.0000
  H   H108      1.0  0.99029  0.36810  0.23402  1.0000
  C   C102      1.0  0.14251  0.17513  0.45229  1.0000
  C   C103      1.0  0.14214  0.33012  0.23434  1.0000
  H   H109      1.0  0.13255  0.31863  0.23940  1.0000
  C   C104      1.0  0.99513  0.30206  0.26922  1.0000
  C   C105      1.0  0.05173  0.04750  0.47044  1.0000
  H   H110      1.0  0.06204  0.05591  0.42829  1.0000
  C   C106      1.0  0.99296  0.39933  0.42367  1.0000
  C   C107      1.0  0.99112  0.47808  0.44668  1.0000
  H   H111      1.0  0.29378  0.20373  0.29423  1.0000
  H   H112      1.0  0.03227  0.41868  0.43141  1.0000
  H   H113      1.0  0.30327  0.17342  0.25442  1.0000
  C   C108      1.0  0.01874  0.39251  0.30578  1.0000
  C   C109      1.0  0.16025  0.19079  0.46931  1.0000
  H   H114      1.0  0.09270  0.03696  0.43546  1.0000
  C   C110      1.0  0.26413  0.98607  0.28611  1.0000
  H   H115      1.0  0.00781  0.03511  0.43968  1.0000
  H   H116      1.0  0.16785  0.20310  0.47000  1.0000
  C   C111      1.0  0.99775  0.02565  0.43732  1.0000
  C   C112      1.0  0.99382  0.10646  0.44312  1.0000
  H   H117      1.0  0.02177  0.40139  0.31622  1.0000
  H   H118      1.0  0.32116  0.03869  0.34184  1.0000
  S   S36       1.0  0.02544  0.14249  0.47223  1.0000
  Fe  Fe18      1.0  0.00843  0.46726  0.50830  1.0000
  S   S37       1.0  0.06003  0.11596  0.51093  1.0000
  C   C113      1.0  0.08200  0.02639  0.49095  1.0000
  Fe  Fe19      1.0  0.08582  0.13349  0.50460  1.0000
  S   S38       1.0  0.08923  0.15505  0.52384  1.0000
  H   H119      1.0  0.21741  0.17167  0.57115  1.0000
  Fe  Fe20      1.0  0.03264  0.42952  0.52695  1.0000
  S   S39       1.0  0.02920  0.44131  0.55497  1.0000
  S   S40       1.0  0.04902  0.39798  0.52852  1.0000
  H   H120      1.0  0.06570  0.41673  0.60261  1.0000
  H   H121      1.0  0.10959  0.33885  0.69698  1.0000
  H   H122      1.0  0.11078  0.23377  0.55397  1.0000
  H   H123      1.0  0.14829  0.14674  0.49647  1.0000
  H   H124      1.0  0.12826  0.34689  0.72247  1.0000
  H   H125      1.0  0.00448  0.46730  0.59893  1.0000
  Fe  Fe21      1.0  0.30752  0.13879  0.63794  1.0000
  C   C114      1.0  0.11629  0.40093  0.71347  1.0000
  S   S41       1.0  0.27401  0.14855  0.63791  1.0000
  H   H126      1.0  0.07495  0.45378  0.56765  1.0000
  H   H127      1.0  0.21079  0.15009  0.56402  1.0000
  C   C115      1.0  0.07340  0.45294  0.58377  1.0000
  C   C116      1.0  0.05235  0.42797  0.60206  1.0000
  H   H128      1.0  0.28143  0.13132  0.59195  1.0000
  H   H129      1.0  0.99514  0.35900  0.69161  1.0000
  H   H130      1.0  0.01901  0.05274  0.50537  1.0000
  H   H131      1.0  0.01011  0.11518  0.51116  1.0000
  C   C117      1.0  0.11245  0.16496  0.58084  1.0000
  H   H132      1.0  0.03810  0.47670  0.58488  1.0000
  H   H133      1.0  0.26290  0.15182  0.56632  1.0000
  H   H134      1.0  0.30500  0.07204  0.64353  1.0000
  Fe  Fe22      1.0  0.05883  0.36235  0.64682  1.0000
  S   S42       1.0  0.08022  0.34939  0.62216  1.0000
  S   S43       1.0  0.02513  0.37153  0.64756  1.0000
  Fe  Fe23      1.0  0.09289  0.37286  0.66423  1.0000
  S   S44       1.0  0.11664  0.36161  0.64035  1.0000
  S   S45       1.0  0.09787  0.38264  0.69192  1.0000
  Fe  Fe24      1.0  0.09518  0.37627  0.61977  1.0000
  S   S46       1.0  0.10508  0.39433  0.59047  1.0000
  Fe  Fe25      1.0  0.10009  0.33542  0.64446  1.0000
  S   S47       1.0  0.12168  0.30605  0.64548  1.0000
  S   S48       1.0  0.07292  0.39024  0.64310  1.0000
  S   S49       1.0  0.07726  0.34567  0.66977  1.0000
  Fe  Fe26      1.0  0.17524  0.19090  0.55252  1.0000
  S   S50       1.0  0.20365  0.19926  0.53378  1.0000
  S   S51       1.0  0.16830  0.15970  0.55379  1.0000
  Fe  Fe27      1.0  0.16324  0.23168  0.56713  1.0000
  S   S52       1.0  0.19099  0.24306  0.54946  1.0000
  S   S53       1.0  0.13455  0.25082  0.57955  1.0000
  Fe  Fe28      1.0  0.18525  0.22907  0.52507  1.0000
  S   S54       1.0  0.18229  0.24653  0.49491  1.0000
  Fe  Fe29      1.0  0.20714  0.21205  0.55990  1.0000
  S   S55       1.0  0.23905  0.20636  0.56636  1.0000
  S   S56       1.0  0.15659  0.21974  0.54200  1.0000
  S   S57       1.0  0.17965  0.20161  0.57943  1.0000
  S   S58       1.0  0.28833  0.00523  0.64377  1.0000
  C   C118      1.0  0.09148  0.19404  0.56639  1.0000
  C   C119      1.0  0.15342  0.34960  0.67633  1.0000
  H   H135      1.0  0.11663  0.14876  0.58407  1.0000
  Fe  Fe30      1.0  0.99717  0.45115  0.55137  1.0000
  H   H136      1.0  0.12816  0.20838  0.58327  1.0000
  H   H137      1.0  0.00236  0.30772  0.64665  1.0000
  C   C120      1.0  0.23425  0.12246  0.61212  1.0000
  C   C121      1.0  0.12539  0.29110  0.62679  1.0000
  C   C122      1.0  0.14239  0.27615  0.62487  1.0000
  C   C123      1.0  0.14565  0.26385  0.61026  1.0000
  C   C124      1.0  0.13166  0.26621  0.59772  1.0000
  C   C125      1.0  0.11471  0.28122  0.59961  1.0000
  C   C126      1.0  0.11168  0.29376  0.61393  1.0000
  H   H138      1.0  0.15304  0.27397  0.63481  1.0000
  H   H139      1.0  0.15873  0.25231  0.60898  1.0000
  H   H140      1.0  0.10384  0.28313  0.58995  1.0000
  H   H141      1.0  0.09849  0.30513  0.61533  1.0000
  C   C127      1.0  0.00803  0.35640  0.64489  1.0000
  C   C128      1.0  0.01314  0.33555  0.64589  1.0000
  H   H142      1.0  0.05360  0.07251  0.48402  1.0000
  S   S59       1.0  0.10874  0.10854  0.49336  1.0000
  C   C129      1.0  0.13122  0.41097  0.71667  1.0000
  Fe  Fe31      1.0  0.03473  0.47061  0.53662  1.0000
  H   H143      1.0  0.02822  0.32833  0.64765  1.0000
  H   H144      1.0  0.02461  0.39435  0.56746  1.0000
  C   C130      1.0  0.30513  0.02275  0.64025  1.0000
  S   S60       1.0  0.31838  0.11454  0.66182  1.0000
  C   C131      1.0  0.14578  0.41734  0.70102  1.0000
  C   C132      1.0  0.14499  0.41390  0.68213  1.0000
  C   C133      1.0  0.13012  0.40378  0.67894  1.0000
  C   C134      1.0  0.11580  0.39707  0.69466  1.0000
  H   H145      1.0  0.20868  0.20908  0.48778  1.0000
  C   C135      1.0  0.16747  0.36163  0.67725  1.0000
  H   H146      1.0  0.15613  0.41887  0.66991  1.0000
  H   H147      1.0  0.12990  0.40099  0.66439  1.0000
  C   C136      1.0  0.00999  0.06760  0.50401  1.0000
  H   H148      1.0  0.02402  0.38129  0.59204  1.0000
  C   C137      1.0  0.26442  0.16593  0.61867  1.0000
  C   C138      1.0  0.24353  0.17040  0.61911  1.0000
  C   C139      1.0  0.23544  0.18295  0.60333  1.0000
  C   C140      1.0  0.24822  0.19126  0.58703  1.0000
  C   C141      1.0  0.26908  0.18704  0.58676  1.0000
  C   C142      1.0  0.27717  0.17438  0.60245  1.0000
  H   H149      1.0  0.23359  0.16395  0.63163  1.0000
  H   H150      1.0  0.21937  0.18623  0.60382  1.0000
  H   H151      1.0  0.27905  0.19352  0.57426  1.0000
  H   H152      1.0  0.29325  0.17112  0.60197  1.0000
  C   C143      1.0  0.09835  0.22832  0.56519  1.0000
  N   N11       1.0  0.13967  0.34428  0.69251  1.0000
  H   H153      1.0  0.08732  0.16333  0.56741  1.0000
  Fe  Fe32      1.0  0.08241  0.09224  0.49693  1.0000
  C   C144      1.0  0.09599  0.17315  0.57150  1.0000
  H   H154      1.0  0.28176  0.04712  0.64783  1.0000
  H   H155      1.0  0.07907  0.20016  0.55853  1.0000
  H   H156      1.0  0.17783  0.37798  0.69570  1.0000
  C   C145      1.0  0.12406  0.17770  0.58513  1.0000
  C   C146      1.0  0.25503  0.12120  0.61000  1.0000
  C   C147      1.0  0.13959  0.35053  0.70985  1.0000
  H   H157      1.0  0.16583  0.17501  0.49779  1.0000
  C   C148      1.0  0.03361  0.42231  0.61037  1.0000
  C   C149      1.0  0.06629  0.39590  0.54436  1.0000
  C   C150      1.0  0.06921  0.37861  0.55830  1.0000
  C   C151      1.0  0.08128  0.37789  0.57240  1.0000
  C   C152      1.0  0.09086  0.39424  0.57229  1.0000
  C   C153      1.0  0.08873  0.41108  0.55771  1.0000
  C   C154      1.0  0.07612  0.41211  0.54404  1.0000
  H   H158      1.0  0.06165  0.36603  0.55856  1.0000
  H   H159      1.0  0.08325  0.36460  0.58313  1.0000
  H   H160      1.0  0.09655  0.42353  0.55717  1.0000
  H   H161      1.0  0.07406  0.42545  0.53318  1.0000
  C   C155      1.0  0.11329  0.15549  0.52839  1.0000
  C   C156      1.0  0.12509  0.13795  0.53606  1.0000
  C   C157      1.0  0.14250  0.13925  0.54311  1.0000
  C   C158      1.0  0.14819  0.15804  0.54237  1.0000
  C   C159      1.0  0.13695  0.17537  0.53366  1.0000
  C   C160      1.0  0.11948  0.17413  0.52685  1.0000
  H   H162      1.0  0.12024  0.12351  0.53749  1.0000
  H   H163      1.0  0.15115  0.12573  0.54978  1.0000
  H   H164      1.0  0.14128  0.18984  0.53266  1.0000
  H   H165      1.0  0.11038  0.18773  0.52093  1.0000
  Fe  Fe33      1.0  0.05571  0.12896  0.48012  1.0000
  H   H166      1.0  0.29572  0.00141  0.55193  1.0000
  C   C161      1.0  0.07471  0.04661  0.49271  1.0000
  C   C162      1.0  0.11897  0.19854  0.58005  1.0000
  N   N12       1.0  0.23452  0.14393  0.58088  1.0000
  S   S61       1.0  0.16592  0.42853  0.70439  1.0000
  C   C163      1.0  0.22416  0.13401  0.59734  1.0000
  H   H167      1.0  0.99536  0.39657  0.55085  1.0000
  C   C164      1.0  0.99487  0.36201  0.59162  1.0000
  H   H168      1.0  0.17797  0.36634  0.66428  1.0000
  C   C165      1.0  0.22346  0.15694  0.56623  1.0000
  H   H169      1.0  0.09369  0.01817  0.49898  1.0000
  H   H170      1.0  0.20794  0.13533  0.59926  1.0000
  S   S62       1.0  0.00008  0.43742  0.52422  1.0000
  H   H171      1.0  0.12825  0.31662  0.70065  1.0000
  C   C166      1.0  0.01630  0.43656  0.60932  1.0000
  S   S63       1.0  0.08477  0.05889  0.50739  1.0000
  H   H172      1.0  0.23328  0.15979  0.55176  1.0000
  C   C167      1.0  0.15917  0.17494  0.48506  1.0000
  C   C168      1.0  0.26545  0.13140  0.59319  1.0000
  H   H173      1.0  0.09685  0.23591  0.57816  1.0000
  H   H174      1.0  0.03050  0.08124  0.51496  1.0000
  N   N13       1.0  0.05382  0.44737  0.59327  1.0000
  H   H175      1.0  0.22599  0.11499  0.62539  1.0000
  C   C169      1.0  0.01443  0.38988  0.58132  1.0000
  C   C170      1.0  0.03693  0.46147  0.59230  1.0000
  H   H176      1.0  0.99807  0.32219  0.69234  1.0000
  H   H177      1.0  0.00602  0.40375  0.58688  1.0000
  H   H178      1.0  0.12535  0.32914  0.67634  1.0000
  C   C171      1.0  0.99201  0.07086  0.49671  1.0000
  C   C172      1.0  0.31087  0.05676  0.64107  1.0000
  C   C173      1.0  0.00479  0.10271  0.50732  1.0000
  N   N14       1.0  0.13810  0.32657  0.57821  1.0000
  C   C174      1.0  0.15332  0.31077  0.58065  1.0000
  C   C175      1.0  0.12794  0.32907  0.56284  1.0000
  C   C176      1.0  0.15843  0.29668  0.56776  1.0000
  C   C177      1.0  0.13255  0.31514  0.54977  1.0000
  C   C178      1.0  0.14783  0.29879  0.55235  1.0000
  C   C179      1.0  0.13325  0.34126  0.59177  1.0000
  H   H179      1.0  0.16127  0.30871  0.59291  1.0000
  H   H180      1.0  0.11611  0.34180  0.56068  1.0000
  H   H181      1.0  0.17008  0.28381  0.57007  1.0000
  H   H182      1.0  0.12428  0.31694  0.53778  1.0000
  H   H183      1.0  0.15134  0.28761  0.54260  1.0000
  H   H184      1.0  0.11802  0.35010  0.59131  1.0000
  H   H185      1.0  0.13344  0.33355  0.60713  1.0000
  H   H186      1.0  0.14420  0.35200  0.58785  1.0000
  H   H187      1.0  0.08418  0.23299  0.55908  1.0000
  H   H188      1.0  0.26296  0.11304  0.62172  1.0000
  C   C180      1.0  0.01792  0.45627  0.60026  1.0000
  N   N15       1.0  0.10287  0.20644  0.57080  1.0000
  H   H189      1.0  0.15341  0.34479  0.66252  1.0000
  C   C181      1.0  0.16751  0.36803  0.69490  1.0000
  C   C182      1.0  0.15356  0.36239  0.71135  1.0000
  S   S64       1.0  0.04146  0.45792  0.50862  1.0000
  C   C183      1.0  0.99848  0.32392  0.64531  1.0000
  C   C184      1.0  0.25487  0.14297  0.57879  1.0000
  H   H190      1.0  0.13729  0.17145  0.59178  1.0000
  C   C185      1.0  0.12505  0.33157  0.69156  1.0000
  C   C186      1.0  0.29773  0.04263  0.64348  1.0000
  C   C187      1.0  0.01643  0.08359  0.50942  1.0000
  C   C188      1.0  0.07453  0.01690  0.47847  1.0000
  C   C189      1.0  0.05953  0.05708  0.48246  1.0000
  C   C190      1.0  0.14939  0.15906  0.48430  1.0000
  H   H191      1.0  0.00159  0.43230  0.61524  1.0000
  H   H192      1.0  0.03255  0.40694  0.61747  1.0000
  H   H193      1.0  0.30749  0.99430  0.67982  1.0000
  H   H194      1.0  0.08601  0.44180  0.58897  1.0000
  H   H195      1.0  0.07485  0.46789  0.58681  1.0000
  H   H196      1.0  0.00184  0.35745  0.60458  1.0000
  N   N16       1.0  0.00022  0.37795  0.57790  1.0000
  C   C191      1.0  0.30272  0.98578  0.55271  1.0000
  H   H197      1.0  0.26356  0.98933  0.55294  1.0000
  C   C192      1.0  0.99142  0.38366  0.56151  1.0000
  S   S65       1.0  0.07958  0.14846  0.47482  1.0000
  H   H198      1.0  0.08043  0.00140  0.47692  1.0000
  C   C193      1.0  0.20365  0.21652  0.47425  1.0000
  C   C194      1.0  0.19854  0.41181  0.83374  1.0000
  S   S66       1.0  0.30202  0.34518  0.90422  1.0000
  H   H199      1.0  0.27500  0.39957  0.74658  1.0000
  C   C195      1.0  0.16511  0.42248  0.82775  1.0000
  S   S67       1.0  0.30218  0.34793  0.84815  1.0000
  Fe  Fe34      1.0  0.31709  0.35172  0.87258  1.0000
  Fe  Fe35      1.0  0.17185  0.43711  0.73235  1.0000
  C   C196      1.0  0.15045  0.47649  0.81284  1.0000
  Fe  Fe36      1.0  0.19077  0.46829  0.74646  1.0000
  Fe  Fe37      1.0  0.30982  0.37822  0.83355  1.0000
  H   H200      1.0  0.16261  0.44658  0.85298  1.0000
  Fe  Fe38      1.0  0.20015  0.42368  0.76271  1.0000
  S   S68       1.0  0.18991  0.45124  0.77700  1.0000
  Fe  Fe39      1.0  0.15905  0.44750  0.77373  1.0000
  S   S69       1.0  0.13198  0.45237  0.79719  1.0000
  H   H201      1.0  0.15092  0.43245  0.82982  1.0000
  H   H202      1.0  0.31017  0.41950  0.87847  1.0000
  S   S70       1.0  0.32227  0.38301  0.85917  1.0000
  S   S71       1.0  0.16906  0.41811  0.76217  1.0000
  C   C197      1.0  0.11594  0.47366  0.82722  1.0000
  H   H203      1.0  0.18755  0.38317  0.80397  1.0000
  C   C198      1.0  0.30726  0.34365  0.94216  1.0000
  H   H204      1.0  0.29975  0.40280  0.76683  1.0000
  S   S72       1.0  0.15922  0.46623  0.74394  1.0000
  H   H205      1.0  0.29176  0.34130  0.94628  1.0000
  C   C199      1.0  0.18542  0.39453  0.81339  1.0000
  S   S73       1.0  0.20379  0.44091  0.73217  1.0000
  C   C200      1.0  0.24047  0.39937  0.78683  1.0000
  C   C201      1.0  0.24008  0.41728  0.79378  1.0000
  C   C202      1.0  0.25435  0.41855  0.80510  1.0000
  C   C203      1.0  0.26910  0.40197  0.80952  1.0000
  C   C204      1.0  0.26908  0.38388  0.80309  1.0000
  C   C205      1.0  0.25480  0.38261  0.79177  1.0000
  H   H206      1.0  0.25433  0.43257  0.81006  1.0000
  H   H207      1.0  0.28038  0.37103  0.80645  1.0000
  H   H208      1.0  0.25507  0.36866  0.78656  1.0000
  H   H209      1.0  0.18661  0.43657  0.86002  1.0000
  C   C206      1.0  0.16729  0.40762  0.81602  1.0000
  S   S74       1.0  0.22345  0.39737  0.77185  1.0000
  H   H210      1.0  0.24947  0.42870  0.73783  1.0000
  C   C207      1.0  0.27517  0.41396  0.75082  1.0000
  C   C208      1.0  0.28902  0.41576  0.76219  1.0000
  H   H211      1.0  0.13157  0.41359  0.73125  1.0000
  S   S75       1.0  0.28818  0.40501  0.82160  1.0000
  C   C209      1.0  0.31630  0.34536  0.92234  1.0000
  C   C210      1.0  0.31350  0.41689  0.89326  1.0000
  H   H212      1.0  0.15505  0.40652  0.80880  1.0000
  C   C211      1.0  0.13288  0.46880  0.81327  1.0000
  C   C212      1.0  0.30711  0.40073  0.90680  1.0000
  C   C213      1.0  0.28830  0.43403  0.76850  1.0000
  H   H213      1.0  0.16342  0.47324  0.80196  1.0000
  C   C214      1.0  0.31804  0.34555  0.95659  1.0000
  C   C215      1.0  0.26071  0.43052  0.74596  1.0000
  H   H214      1.0  0.22904  0.43023  0.79015  1.0000
  H   H215      1.0  0.18494  0.45408  0.83745  1.0000
  H   H216      1.0  0.24989  0.48012  0.74559  1.0000
  C   C216      1.0  0.20102  0.39637  0.82260  1.0000
  N   N17       1.0  0.18067  0.42454  0.83630  1.0000
  H   H217      1.0  0.21108  0.41361  0.84016  1.0000
  C   C217      1.0  0.17863  0.44123  0.84724  1.0000
  H   H218      1.0  0.21516  0.38623  0.82064  1.0000
  H   H219      1.0  0.29890  0.39055  0.90262  1.0000
  C   C218      1.0  0.31197  0.39730  0.92562  1.0000
  C   C219      1.0  0.27371  0.45033  0.76327  1.0000
  H   H220      1.0  0.30726  0.38452  0.93590  1.0000
  H   H221      1.0  0.29847  0.43524  0.77808  1.0000
  H   H222      1.0  0.10521  0.39590  0.72571  1.0000
  N   N18       1.0  0.26030  0.44849  0.75195  1.0000
  H   H223      1.0  0.10232  0.46771  0.82766  1.0000
  C   C220      1.0  0.24453  0.46542  0.74744  1.0000
  H   H224      1.0  0.32006  0.39484  0.96071  1.0000
  H   H225      1.0  0.27292  0.46433  0.76866  1.0000
  H   H226      1.0  0.03678  0.47839  0.85580  1.0000
  H   H227      1.0  0.23136  0.46512  0.75942  1.0000
  H   H228      1.0  0.23946  0.46492  0.73351  1.0000
  C   C221      1.0  0.00398  0.47794  0.91446  1.0000
  H   H229      1.0  0.00717  0.47624  0.92921  1.0000
  H   H230      1.0  0.31084  0.34467  0.97176  1.0000
  H   H231      1.0  0.15301  0.36794  0.72491  1.0000
  Fe  Fe40      1.0  0.10338  0.56573  0.05439  1.0000
  S   S76       1.0  0.12786  0.57516  0.03011  1.0000
  S   S77       1.0  0.10906  0.55226  0.08471  1.0000
  Fe  Fe41      1.0  0.07005  0.58463  0.03107  1.0000
  S   S78       1.0  0.03670  0.59141  0.03194  1.0000
  Fe  Fe42      1.0  0.10718  0.60463  0.02691  1.0000
  S   S79       1.0  0.11664  0.63518  0.02182  1.0000
  S   S80       1.0  0.08743  0.55358  0.03551  1.0000
  S   S81       1.0  0.08381  0.59579  0.05239  1.0000
  C   C222      1.0  0.05607  0.54561  0.07942  1.0000
  H   H232      1.0  0.15183  0.54734  0.05783  1.0000
  H   H233      1.0  0.05222  0.55254  0.01919  1.0000
  Fe  Fe43      1.0  0.29730  0.72288  0.05289  1.0000
  S   S82       1.0  0.30052  0.75376  0.03608  1.0000
  S   S83       1.0  0.26540  0.72084  0.06873  1.0000
  N   N19       1.0  0.17067  0.54995  0.07759  1.0000
  C   C223      1.0  0.17138  0.67927  0.21580  1.0000
  C   C224      1.0  0.19996  0.69245  0.05603  1.0000
  C   C225      1.0  0.03789  0.55616  0.07448  1.0000
  H   H234      1.0  0.25691  0.69093  0.01969  1.0000
  H   H235      1.0  0.03471  0.52700  0.01180  1.0000
  Fe  Fe44      1.0  0.15784  0.65658  0.10934  1.0000
  S   S84       1.0  0.18197  0.63069  0.10357  1.0000
  S   S85       1.0  0.14403  0.67521  0.08416  1.0000
  Fe  Fe45      1.0  0.15841  0.64942  0.15341  1.0000
  S   S86       1.0  0.18293  0.62259  0.15079  1.0000
  S   S87       1.0  0.14260  0.65452  0.18411  1.0000
  Fe  Fe46      1.0  0.19705  0.64209  0.12392  1.0000
  S   S88       1.0  0.23064  0.64240  0.11539  1.0000
  Fe  Fe47      1.0  0.16563  0.61394  0.13057  1.0000
  S   S89       1.0  0.15443  0.58511  0.12990  1.0000
  S   S90       1.0  0.17379  0.66947  0.12796  1.0000
  S   S91       1.0  0.14028  0.63936  0.13491  1.0000
  S   S92       1.0  0.21129  0.50126  0.14139  1.0000
  C   C226      1.0  0.17023  0.56194  0.13378  1.0000
  C   C227      1.0  0.16313  0.54426  0.13298  1.0000
  C   C228      1.0  0.17569  0.52555  0.13505  1.0000
  C   C229      1.0  0.19531  0.52446  0.13826  1.0000
  C   C230      1.0  0.20229  0.54211  0.13936  1.0000
  C   C231      1.0  0.18982  0.56085  0.13701  1.0000
  H   H236      1.0  0.14796  0.54508  0.13051  1.0000
  H   H237      1.0  0.17015  0.51204  0.13419  1.0000
  H   H238      1.0  0.21746  0.54133  0.14190  1.0000
  H   H239      1.0  0.19539  0.57445  0.13765  1.0000
  C   C232      1.0  0.25641  0.69896  0.08237  1.0000
  C   C233      1.0  0.26898  0.68047  0.08518  1.0000
  C   C234      1.0  0.26096  0.66331  0.09569  1.0000
  C   C235      1.0  0.24035  0.66450  0.10333  1.0000
  C   C236      1.0  0.22786  0.68306  0.10060  1.0000
  C   C237      1.0  0.23588  0.70020  0.09022  1.0000
  H   H240      1.0  0.28484  0.67933  0.07922  1.0000
  H   H241      1.0  0.27072  0.64900  0.09776  1.0000
  H   H242      1.0  0.21200  0.68419  0.10639  1.0000
  H   H243      1.0  0.22605  0.71447  0.08811  1.0000
  H   H244      1.0  0.15559  0.57911  0.06740  1.0000
  S   S93       1.0  0.09142  0.59645  0.00508  1.0000
  S   S94       1.0  0.12139  0.54662  0.98721  1.0000
  C   C238      1.0  0.02519  0.57377  0.02481  1.0000
  S   S95       1.0  0.31327  0.70730  0.02748  1.0000
  H   H245      1.0  0.18674  0.67726  0.21930  1.0000
  H   H246      1.0  0.06642  0.55334  0.08388  1.0000
  C   C239      1.0  0.12055  0.71338  0.20910  1.0000
  H   H247      1.0  0.14886  0.49405  0.11744  1.0000
  C   C240      1.0  0.11982  0.67786  0.21034  1.0000
  C   C241      1.0  0.13255  0.67788  0.19211  1.0000
  C   C242      1.0  0.13852  0.69596  0.18194  1.0000
  C   C243      1.0  0.13245  0.71368  0.19040  1.0000
  S   S96       1.0  0.31613  0.74889  0.97959  1.0000
  C   C244      1.0  0.31000  0.75584  0.10481  1.0000
  H   H248      1.0  0.14834  0.69616  0.16789  1.0000
  H   H249      1.0  0.13748  0.72754  0.18267  1.0000
  H   H250      1.0  0.99583  0.59167  0.02914  1.0000
  H   H251      1.0  0.31959  0.76717  0.10302  1.0000
  C   C245      1.0  0.20084  0.67272  0.06586  1.0000
  Fe  Fe48      1.0  0.10991  0.56603  0.01066  1.0000
  C   C246      1.0  0.28615  0.72636  0.10899  1.0000
  C   C247      1.0  0.00440  0.57760  0.02529  1.0000
  H   H252      1.0  0.07541  0.51694  0.08166  1.0000
  C   C248      1.0  0.12208  0.51535  0.07272  1.0000
  C   C249      1.0  0.12099  0.52717  0.08717  1.0000
  C   C250      1.0  0.13035  0.51925  0.10347  1.0000
  C   C251      1.0  0.06115  0.73300  0.20934  1.0000
  H   H253      1.0  0.11500  0.52142  0.06000  1.0000
  H   H254      1.0  0.12950  0.52835  0.11466  1.0000
  C   C252      1.0  0.02626  0.54119  0.01542  1.0000
  C   C253      1.0  0.12604  0.64489  0.03905  1.0000
  C   C254      1.0  0.12573  0.66569  0.03627  1.0000
  C   C255      1.0  0.13181  0.67459  0.04997  1.0000
  C   C256      1.0  0.13865  0.66277  0.06651  1.0000
  C   C257      1.0  0.13976  0.64176  0.06908  1.0000
  C   C258      1.0  0.13327  0.63280  0.05541  1.0000
  H   H255      1.0  0.12031  0.67508  0.02362  1.0000
  H   H256      1.0  0.13094  0.69077  0.04785  1.0000
  H   H257      1.0  0.14513  0.63252  0.08179  1.0000
  H   H258      1.0  0.13370  0.61669  0.05754  1.0000
  H   H259      1.0  0.16632  0.69550  0.21075  1.0000
  H   H260      1.0  0.26737  0.68715  0.04202  1.0000
  C   C259      1.0  0.18585  0.54057  0.08763  1.0000
  N   N20       1.0  0.23580  0.68698  0.04597  1.0000
  C   C260      1.0  0.25416  0.69427  0.03490  1.0000
  C   C261      1.0  0.21770  0.69937  0.04604  1.0000
  H   H261      1.0  0.15873  0.64351  0.22377  1.0000
  C   C262      1.0  0.05920  0.74728  0.22158  1.0000
  H   H262      1.0  0.28886  0.77935  0.07050  1.0000
  S   S97       1.0  0.11466  0.73544  0.22003  1.0000
  H   H263      1.0  0.18557  0.70227  0.05628  1.0000
  H   H264      1.0  0.21692  0.71476  0.03848  1.0000
  H   H265      1.0  0.27066  0.78612  0.09151  1.0000
  C   C263      1.0  0.21932  0.66014  0.06560  1.0000
  H   H266      1.0  0.31324  0.70603  0.98511  1.0000
  C   C264      1.0  0.02334  0.75295  0.22259  1.0000
  H   H267      1.0  0.19377  0.49473  0.07303  1.0000
  H   H268      1.0  0.02375  0.50799  0.04826  1.0000
  H   H269      1.0  0.16226  0.53468  0.17742  1.0000
  C   C265      1.0  0.06112  0.52515  0.07813  1.0000
  H   H270      1.0  0.11497  0.66396  0.21821  1.0000
  H   H271      1.0  0.16732  0.51246  0.05383  1.0000
  N   N21       1.0  0.17680  0.48458  0.18961  1.0000
  C   C266      1.0  0.23676  0.66753  0.05544  1.0000
  C   C267      1.0  0.16015  0.56998  0.08107  1.0000
  H   H272      1.0  0.20587  0.51296  0.09486  1.0000
  C   C268      1.0  0.28665  0.78026  0.08639  1.0000
  H   H273      1.0  0.04879  0.58672  0.98605  1.0000
  H   H274      1.0  0.16972  0.57841  0.08648  1.0000
  C   C269      1.0  0.16103  0.51882  0.18177  1.0000
  H   H275      1.0  0.00272  0.52568  0.05662  1.0000
  C   C270      1.0  0.18775  0.51041  0.07392  1.0000
  C   C271      1.0  0.19445  0.52059  0.08616  1.0000
  C   C272      1.0  0.16421  0.54014  0.06539  1.0000
  H   H276      1.0  0.19103  0.54832  0.09729  1.0000
  H   H277      1.0  0.14647  0.56839  0.09233  1.0000
  N   N22       1.0  0.29249  0.76026  0.09732  1.0000
  C   C273      1.0  0.28064  0.74582  0.09928  1.0000
  Fe  Fe49      1.0  0.31857  0.73789  0.01166  1.0000
  H   H278      1.0  0.13351  0.48645  0.06344  1.0000
  H   H279      1.0  0.12936  0.52312  0.18091  1.0000
  H   H280      1.0  0.25306  0.71077  0.03439  1.0000
  H   H281      1.0  0.19250  0.50976  0.18266  1.0000
  H   H282      1.0  0.18721  0.66728  0.07378  1.0000
  H   H283      1.0  0.17189  0.67130  0.20328  1.0000
  H   H284      1.0  0.07145  0.56829  0.98355  1.0000
  N   N23       1.0  0.02989  0.52593  0.06729  1.0000
  N   N24       1.0  0.02537  0.73888  0.21058  1.0000
  H   H285      1.0  0.27685  0.71487  0.11008  1.0000
  C   C274      1.0  0.17809  0.50465  0.18476  1.0000
  C   C275      1.0  0.17283  0.52035  0.06317  1.0000
  H   H286      1.0  0.12712  0.48654  0.19048  1.0000
  H   H287      1.0  0.22023  0.64493  0.07369  1.0000
  C   C276      1.0  0.04778  0.51550  0.07195  1.0000
  C   C277      1.0  0.11396  0.69547  0.21887  1.0000
  H   H288      1.0  0.07595  0.72516  0.20412  1.0000
  N   N25       1.0  0.09860  0.63175  0.10133  1.0000
  C   C278      1.0  0.09912  0.65135  0.10252  1.0000
  C   C279      1.0  0.09103  0.62720  0.08643  1.0000
  C   C280      1.0  0.09176  0.66701  0.08865  1.0000
  C   C281      1.0  0.08357  0.64250  0.07229  1.0000
  C   C282      1.0  0.08403  0.66250  0.07341  1.0000
  C   C283      1.0  0.10776  0.61550  0.11512  1.0000
  H   H289      1.0  0.10593  0.65499  0.11377  1.0000
  H   H290      1.0  0.09131  0.61165  0.08509  1.0000
  H   H291      1.0  0.09305  0.68244  0.08918  1.0000
  H   H292      1.0  0.07831  0.63886  0.06001  1.0000
  H   H293      1.0  0.07909  0.67442  0.06205  1.0000
  H   H294      1.0  0.10175  0.60127  0.11624  1.0000
  H   H295      1.0  0.12425  0.61255  0.11013  1.0000
  H   H296      1.0  0.10489  0.61953  0.13008  1.0000
  H   H297      1.0  0.00746  0.74138  0.18863  1.0000
  C   C284      1.0  0.03618  0.55562  0.01964  1.0000
  H   H298      1.0  0.25110  0.65775  0.05563  1.0000
  C   C285      1.0  0.00769  0.73472  0.20424  1.0000
  C   C286      1.0  0.14260  0.51231  0.18366  1.0000
  H   H299      1.0  0.04557  0.71783  0.19442  1.0000
  H   H300      1.0  0.29593  0.79128  0.08809  1.0000
  H   H301      1.0  0.26696  0.74920  0.09299  1.0000
  C   C287      1.0  0.00537  0.54488  0.01635  1.0000
  C   C288      1.0  0.14249  0.48785  0.09072  1.0000
  C   C289      1.0  0.02483  0.54600  0.06854  1.0000
  H   H302      1.0  0.03410  0.57223  0.07476  1.0000
  C   C290      1.0  0.14134  0.49184  0.18896  1.0000
  C   C291      1.0  0.04396  0.72896  0.20394  1.0000
  C   C292      1.0  0.14131  0.49976  0.10509  1.0000
  C   C293      1.0  0.13259  0.49559  0.07465  1.0000
  H   H303      1.0  0.30860  0.70656  0.12388  1.0000
  H   H304      1.0  0.00778  0.71821  0.20606  1.0000
  H   H305      1.0  0.05187  0.49962  0.07082  1.0000
  C   C294      1.0  0.01611  0.51531  0.06114  1.0000
  C   C295      1.0  0.30397  0.72171  0.11666  1.0000
  H   H306      1.0  0.99343  0.74092  0.21316  1.0000
  C   C296      1.0  0.99452  0.56322  0.02105  1.0000
  H   H307      1.0  0.01077  0.50368  0.07331  1.0000
  C   C297      1.0  0.31601  0.73653  0.11458  1.0000
  S   S98       1.0  0.99286  0.52603  0.01287  1.0000
  H   H308      1.0  0.04661  0.54817  0.97675  1.0000
  H   H309      1.0  0.01086  0.55446  0.06448  1.0000
  C   C298      1.0  0.06215  0.58113  0.97565  1.0000
  H   H310      1.0  0.31559  0.85893  0.20943  1.0000
  C   C299      1.0  0.32123  0.86083  0.22220  1.0000
  S   S99       1.0  0.12975  0.96369  0.39799  1.0000
  H   H311      1.0  0.30793  0.88664  0.26079  1.0000
  C   C300      1.0  0.10127  0.88429  0.40349  1.0000
  H   H312      1.0  0.00542  0.56730  0.35770  1.0000
  Fe  Fe50      1.0  0.09385  0.70935  0.29150  1.0000
  S   S100      1.0  0.07293  0.73382  0.30541  1.0000
  S   S101      1.0  0.10099  0.67924  0.30993  1.0000
  Fe  Fe51      1.0  0.09958  0.73460  0.25183  1.0000
  S   S102      1.0  0.07891  0.76153  0.26242  1.0000
  Fe  Fe52      1.0  0.09467  0.75434  0.28873  1.0000
  S   S103      1.0  0.09826  0.77965  0.30437  1.0000
  Fe  Fe53      1.0  0.05884  0.73913  0.27841  1.0000
  S   S104      1.0  0.02481  0.74553  0.28207  1.0000
  S   S105      1.0  0.11697  0.72913  0.27682  1.0000
  S   S106      1.0  0.07815  0.71299  0.26577  1.0000
  Fe  Fe54      1.0  0.15878  0.86884  0.35635  1.0000
  S   S107      1.0  0.14801  0.84006  0.37155  1.0000
  S   S108      1.0  0.13423  0.89413  0.34900  1.0000
  Fe  Fe55      1.0  0.20269  0.85196  0.35710  1.0000
  S   S109      1.0  0.19519  0.82163  0.37233  1.0000
  S   S110      1.0  0.23519  0.85652  0.35367  1.0000
  Fe  Fe56      1.0  0.17348  0.82536  0.35122  1.0000
  S   S111      1.0  0.17290  0.80033  0.33410  1.0000
  Fe  Fe57      1.0  0.17044  0.83914  0.39117  1.0000
  S   S112      1.0  0.16173  0.83259  0.42422  1.0000
  S   S113      1.0  0.18298  0.85448  0.33451  1.0000
  S   S114      1.0  0.17916  0.86905  0.37745  1.0000
  H   H313      1.0  0.24430  0.86026  0.39411  1.0000
  Fe  Fe58      1.0  0.30637  0.92489  0.28017  1.0000
  S   S115      1.0  0.27597  0.91561  0.28216  1.0000
  H   H314      1.0  0.00362  0.48543  0.43896  1.0000
  S   S116      1.0  0.01195  0.65123  0.35317  1.0000
  C   C301      1.0  0.24617  0.87330  0.33389  1.0000
  C   C302      1.0  0.26584  0.87668  0.33331  1.0000
  C   C303      1.0  0.27511  0.88976  0.31768  1.0000
  C   C304      1.0  0.26481  0.89945  0.30241  1.0000
  C   C305      1.0  0.24514  0.89608  0.30299  1.0000
  C   C306      1.0  0.23582  0.88314  0.31869  1.0000
  H   H315      1.0  0.27396  0.86913  0.34499  1.0000
  H   H316      1.0  0.29025  0.89223  0.31741  1.0000
  H   H317      1.0  0.23705  0.90351  0.29125  1.0000
  H   H318      1.0  0.22068  0.88067  0.31897  1.0000
  C   C307      1.0  0.17646  0.83922  0.43917  1.0000
  C   C308      1.0  0.09448  0.87790  0.44415  1.0000
  C   C309      1.0  0.20433  0.85431  0.44330  1.0000
  C   C310      1.0  0.19208  0.85032  0.43114  1.0000
  Fe  Fe59      1.0  0.01822  0.62169  0.34257  1.0000
  H   H319      1.0  0.21666  0.86253  0.43693  1.0000
  H   H320      1.0  0.19503  0.85543  0.41552  1.0000
  C   C311      1.0  0.11915  0.78344  0.31388  1.0000
  C   C312      1.0  0.11589  0.79639  0.32791  1.0000
  C   C313      1.0  0.13211  0.80160  0.33439  1.0000
  C   C314      1.0  0.15185  0.79371  0.32704  1.0000
  C   C315      1.0  0.15510  0.78035  0.31340  1.0000
  C   C316      1.0  0.13888  0.77526  0.30682  1.0000
  H   H321      1.0  0.10069  0.80269  0.33358  1.0000
  H   H322      1.0  0.12934  0.81175  0.34501  1.0000
  H   H323      1.0  0.17031  0.77405  0.30773  1.0000
  H   H324      1.0  0.14166  0.76530  0.29602  1.0000
  C   C317      1.0  0.03523  0.62747  0.45914  1.0000
  C   C318      1.0  0.22268  0.80380  0.43645  1.0000
  C   C319      1.0  0.05647  0.63670  0.31233  1.0000
  C   C320      1.0  0.06332  0.64824  0.29447  1.0000
  C   C321      1.0  0.07688  0.66149  0.29364  1.0000
  C   C322      1.0  0.08403  0.66278  0.31056  1.0000
  C   C323      1.0  0.07759  0.65081  0.32828  1.0000
  C   C324      1.0  0.06350  0.63811  0.32926  1.0000
  H   H325      1.0  0.05792  0.64715  0.28135  1.0000
  H   H326      1.0  0.08211  0.67033  0.27982  1.0000
  H   H327      1.0  0.08327  0.65156  0.34135  1.0000
  H   H328      1.0  0.05835  0.62914  0.34308  1.0000
  C   C325      1.0  0.03115  0.63098  0.42508  1.0000
  C   C326      1.0  0.03550  0.61005  0.42614  1.0000
  C   C327      1.0  0.04026  0.59789  0.44355  1.0000
  C   C328      1.0  0.14004  0.64517  0.25190  1.0000
  S   S117      1.0  0.08846  0.93593  0.42731  1.0000
  C   C329      1.0  0.03102  0.63964  0.44160  1.0000
  H   H329      1.0  0.03589  0.60336  0.41333  1.0000
  H   H330      1.0  0.04422  0.58177  0.44415  1.0000
  S   S118      1.0  0.02694  0.64668  0.40303  1.0000
  H   H331      1.0  0.16052  0.82443  0.46587  1.0000
  S   S119      1.0  0.02266  0.60365  0.37196  1.0000
  S   S120      1.0  0.03861  0.62103  0.31365  1.0000
  C   C330      1.0  0.01098  0.73328  0.27063  1.0000
  H   H332      1.0  0.21355  0.79372  0.44654  1.0000
  C   C331      1.0  0.13119  0.94542  0.38309  1.0000
  C   C332      1.0  0.14977  0.93425  0.37667  1.0000
  C   C333      1.0  0.15081  0.91859  0.36604  1.0000
  C   C334      1.0  0.13331  0.91431  0.36149  1.0000
  C   C335      1.0  0.11480  0.92589  0.36740  1.0000
  C   C336      1.0  0.11370  0.94122  0.37843  1.0000
  H   H333      1.0  0.16333  0.93751  0.38019  1.0000
  H   H334      1.0  0.16522  0.91012  0.36104  1.0000
  H   H335      1.0  0.10124  0.92283  0.36372  1.0000
  H   H336      1.0  0.09932  0.94996  0.38314  1.0000
  C   C337      1.0  0.01028  0.93625  0.44295  1.0000
  C   C338      1.0  0.04021  0.60662  0.46003  1.0000
  H   H337      1.0  0.19486  0.89445  0.47088  1.0000
  C   C339      1.0  0.02016  0.71747  0.26035  1.0000
  C   C340      1.0  0.13219  0.65703  0.26653  1.0000
  H   H338      1.0  0.99786  0.97855  0.42875  1.0000
  H   H339      1.0  0.16821  0.83946  0.27741  1.0000
  H   H340      1.0  0.03850  0.76795  0.23840  1.0000
  C   C341      1.0  0.08064  0.64129  0.45796  1.0000
  S   S121      1.0  0.05164  0.95877  0.45635  1.0000
  H   H341      1.0  0.13015  0.86593  0.40545  1.0000
  H   H342      1.0  0.12217  0.65145  0.27958  1.0000
  C   C342      1.0  0.06071  0.89738  0.44529  1.0000
  H   H343      1.0  0.02204  0.93637  0.45102  1.0000
  H   H344      1.0  0.00166  0.94077  0.39632  1.0000
  H   H345      1.0  0.10389  0.88707  0.38757  1.0000
  C   C343      1.0  0.14340  0.91915  0.43312  1.0000
  C   C344      1.0  0.02470  0.71298  0.33247  1.0000
  H   H346      1.0  0.03490  0.71839  0.31956  1.0000
  H   H347      1.0  0.05199  0.90939  0.43597  1.0000
  H   H348      1.0  0.05947  0.70669  0.35313  1.0000
  H   H349      1.0  0.13125  0.68546  0.27570  1.0000
  H   H350      1.0  0.01586  0.57492  0.41367  1.0000
  N   N26       1.0  0.14338  0.84708  0.29964  1.0000
  C   C345      1.0  0.13564  0.86054  0.31234  1.0000
  C   C346      1.0  0.13116  0.83605  0.29447  1.0000
  C   C347      1.0  0.11510  0.86359  0.31983  1.0000
  C   C348      1.0  0.11049  0.83892  0.30146  1.0000
  C   C349      1.0  0.10246  0.85272  0.31430  1.0000
  C   C350      1.0  0.16503  0.84371  0.29230  1.0000
  H   H351      1.0  0.13740  0.82458  0.28526  1.0000
  H   H352      1.0  0.10914  0.87424  0.32999  1.0000
  H   H353      1.0  0.10094  0.82984  0.29757  1.0000
  H   H354      1.0  0.08653  0.85474  0.32019  1.0000
  H   H355      1.0  0.17176  0.85746  0.29139  1.0000
  H   H356      1.0  0.17254  0.83136  0.30228  1.0000
  H   H357      1.0  0.26912  0.95250  0.25492  1.0000
  C   C351      1.0  0.13723  0.67621  0.26433  1.0000
  H   H358      1.0  0.01429  0.50481  0.40684  1.0000
  N   N27       1.0  0.07997  0.88928  0.43420  1.0000
  H   H359      1.0  0.14531  0.86902  0.31683  1.0000
  H   H360      1.0  0.06160  0.69398  0.33244  1.0000
  H   H361      1.0  0.05733  0.68023  0.35664  1.0000
  C   C352      1.0  0.99875  0.93865  0.41219  1.0000
  H   H362      1.0  0.00861  0.76059  0.22817  1.0000
  C   C353      1.0  0.11606  0.87250  0.41352  1.0000
  S   S122      1.0  0.09738  0.97090  0.44918  1.0000
  C   C354      1.0  0.01409  0.93914  0.42244  1.0000
  H   H363      1.0  0.03958  0.52367  0.38464  1.0000
  H   H364      1.0  0.07173  0.90180  0.40620  1.0000
  C   C355      1.0  0.01523  0.51993  0.40878  1.0000
  C   C356      1.0  0.14749  0.93358  0.44271  1.0000
  C   C357      1.0  0.25519  0.84641  0.39758  1.0000
  H   H365      1.0  0.07259  0.64677  0.44572  1.0000
  H   H366      1.0  0.02463  0.68465  0.37699  1.0000
  H   H367      1.0  0.28412  0.98026  0.23203  1.0000
  H   H368      1.0  0.05153  0.88522  0.45133  1.0000
  H   H369      1.0  0.22994  0.82604  0.38884  1.0000
  H   H370      1.0  0.01591  0.69640  0.24286  1.0000
  C   C358      1.0  0.99024  0.73978  0.27173  1.0000
  C   C359      1.0  0.22062  0.80842  0.41673  1.0000
  C   C360      1.0  0.20110  0.84723  0.46354  1.0000
  H   H371      1.0  0.99282  0.57085  0.44405  1.0000
  H   H372      1.0  0.01757  0.53565  0.34373  1.0000
  S   S123      1.0  0.00486  0.49694  0.35347  1.0000
  H   H373      1.0  0.99638  0.51344  0.31237  1.0000
  H   H374      1.0  0.25637  0.83426  0.43598  1.0000
  C   C361      1.0  0.99070  0.71158  0.34922  1.0000
  C   C362      1.0  0.17266  0.83293  0.45953  1.0000
  C   C363      1.0  0.11265  0.86919  0.43397  1.0000
  H   H375      1.0  0.13604  0.63031  0.25335  1.0000
  H   H376      1.0  0.08074  0.67084  0.46434  1.0000
  C   C364      1.0  0.00542  0.53612  0.35610  1.0000
  N   N28       1.0  0.16658  0.90762  0.46269  1.0000
  H   H377      1.0  0.16772  0.87763  0.45801  1.0000
  C   C365      1.0  0.00869  0.70851  0.25094  1.0000
  H   H378      1.0  0.26222  0.84088  0.38355  1.0000
  Fe  Fe60      1.0  0.01331  0.63330  0.38297  1.0000
  C   C366      1.0  0.08313  0.89251  0.41412  1.0000
  C   C367      1.0  0.24682  0.82664  0.43028  1.0000
  Fe  Fe61      1.0  0.05826  0.95400  0.42504  1.0000
  C   C368      1.0  0.02941  0.53057  0.39626  1.0000
  C   C369      1.0  0.02984  0.55037  0.39821  1.0000
  H   H379      1.0  0.09206  0.87564  0.46007  1.0000
  C   C370      1.0  0.99661  0.51887  0.36415  1.0000
  H   H380      1.0  0.03610  0.71223  0.25950  1.0000
  H   H381      1.0  0.99849  0.72833  0.32028  1.0000
  C   C371      1.0  0.16226  0.89337  0.45363  1.0000
  H   H382      1.0  0.14807  0.88759  0.43099  1.0000
  H   H383      1.0  0.99103  0.68524  0.31901  1.0000
  N   N29       1.0  0.00228  0.54864  0.42511  1.0000
  C   C372      1.0  0.99850  0.55406  0.36391  1.0000
  H   H384      1.0  0.98973  0.48889  0.31654  1.0000
  H   H385      1.0  0.13450  0.92366  0.42148  1.0000
  C   C373      1.0  0.01895  0.69426  0.36451  1.0000
  H   H386      1.0  0.02755  0.65582  0.44086  1.0000
  Fe  Fe62      1.0  0.10032  0.96495  0.41846  1.0000
  C   C374      1.0  0.15924  0.92753  0.45754  1.0000
  S   S124      1.0  0.03772  0.94358  0.40919  1.0000
  C   C375      1.0  0.31681  0.87654  0.25101  1.0000
  H   H387      1.0  0.26721  0.85042  0.40388  1.0000
  C   C376      1.0  0.15295  0.65269  0.23525  1.0000
  C   C377      1.0  0.23183  0.82219  0.40410  1.0000
  C   C378      1.0  0.26266  0.96840  0.27961  1.0000
  H   H388      1.0  0.00733  0.65294  0.30688  1.0000
  Fe  Fe63      1.0  0.08315  0.94282  0.45777  1.0000
  N   N30       1.0  0.24467  0.83113  0.41095  1.0000
  C   C379      1.0  0.23597  0.81282  0.44328  1.0000
  H   H389      1.0  0.20994  0.80188  0.41140  1.0000
  C   C380      1.0  0.05361  0.69517  0.34761  1.0000
  C   C381      1.0  0.00403  0.71864  0.33280  1.0000
  N   N31       1.0  0.03190  0.70071  0.34810  1.0000
  C   C382      1.0  0.26978  0.96631  0.26003  1.0000
  C   C383      1.0  0.08524  0.65477  0.46836  1.0000
  H   H390      1.0  0.06317  0.90424  0.45756  1.0000
  C   C384      1.0  0.99818  0.69934  0.36521  1.0000
  C   C385      1.0  0.08609  0.62059  0.46370  1.0000
  C   C386      1.0  0.00163  0.52929  0.42317  1.0000
  N   N32       1.0  0.15757  0.67166  0.23312  1.0000
  H   H391      1.0  0.25643  0.95619  0.28974  1.0000
  H   H392      1.0  0.12405  0.85989  0.44186  1.0000
  Fe  Fe64      1.0  0.98941  0.60339  0.37589  1.0000
  H   H393      1.0  0.04039  0.55898  0.38816  1.0000
  H   H394      1.0  0.99983  0.62375  0.29540  1.0000
  H   H395      1.0  0.16230  0.93883  0.46498  1.0000
  S   S125      1.0  0.31132  0.95133  0.29243  1.0000
  C   C387      1.0  0.14996  0.68338  0.24742  1.0000
  H   H396      1.0  0.23711  0.80996  0.45875  1.0000
  H   H397      1.0  0.00051  0.69556  0.29411  1.0000
  C   C388      1.0  0.04020  0.75722  0.22841  1.0000
  H   H398      1.0  0.99021  0.52118  0.43245  1.0000
  H   H399      1.0  0.03499  0.63429  0.47183  1.0000
  H   H400      1.0  0.15349  0.69848  0.24569  1.0000
  H   H401      1.0  0.14168  0.94936  0.43854  1.0000
  C   C389      1.0  0.99445  0.65478  0.29962  1.0000
  C   C390      1.0  0.99025  0.63822  0.29310  1.0000
  H   H402      1.0  0.07243  0.75058  0.22578  1.0000
  C   C391      1.0  0.15088  0.89891  0.43854  1.0000
  C   C392      1.0  0.30953  0.87378  0.23473  1.0000
  C   C393      1.0  0.99116  0.93291  0.45311  1.0000
  H   H403      1.0  0.08226  0.61021  0.45566  1.0000
  H   H404      1.0  0.10468  0.69502  0.23318  1.0000
  C   C394      1.0  0.01599  0.55927  0.41273  1.0000
  C   C395      1.0  0.18492  0.83692  0.47170  1.0000
  S   S126      1.0  0.32131  0.93568  0.24947  1.0000
  H   H405      1.0  0.29498  0.88176  0.23180  1.0000
  H   H406      1.0  0.09889  0.65770  0.49259  1.0000
  H   H407      1.0  0.10146  0.58795  0.50130  1.0000
  C   C396      1.0  0.05433  0.53621  0.50112  1.0000
  C   C397      1.0  0.03100  0.68672  0.61064  1.0000
  H   H408      1.0  0.18135  0.87709  0.61768  1.0000
  H   H409      1.0  0.11661  0.58678  0.47728  1.0000
  N   N33       1.0  0.03254  0.53902  0.50757  1.0000
  H   H410      1.0  0.99309  0.67223  0.59494  1.0000
  H   H411      1.0  0.00015  0.68441  0.62362  1.0000
  S   S127      1.0  0.30260  0.97051  0.60333  1.0000
  N   N34       1.0  0.12309  0.64564  0.68467  1.0000
  H   H412      1.0  0.11227  0.65217  0.65740  1.0000
  C   C398      1.0  0.00649  0.71896  0.64669  1.0000
  Fe  Fe65      1.0  0.03120  0.59680  0.55078  1.0000
  S   S128      1.0  0.06100  0.59329  0.53087  1.0000
  S   S129      1.0  0.01896  0.57132  0.57187  1.0000
  Fe  Fe66      1.0  0.01883  0.63934  0.53114  1.0000
  S   S130      1.0  0.04707  0.63884  0.50903  1.0000
  C   C399      1.0  0.14078  0.63296  0.65541  1.0000
  Fe  Fe67      1.0  0.04304  0.60758  0.50716  1.0000
  Fe  Fe68      1.0  0.06210  0.62484  0.53495  1.0000
  S   S131      1.0  0.08931  0.63856  0.53557  1.0000
  S   S132      1.0  0.01317  0.60949  0.52680  1.0000
  S   S133      1.0  0.03394  0.62701  0.55723  1.0000
  Fe  Fe69      1.0  0.18140  0.88646  0.53063  1.0000
  S   S134      1.0  0.17606  0.85740  0.52386  1.0000
  S   S135      1.0  0.16092  0.91595  0.52501  1.0000
  Fe  Fe70      1.0  0.22218  0.86853  0.54311  1.0000
  S   S136      1.0  0.22013  0.83793  0.53669  1.0000
  S   S137      1.0  0.25032  0.87135  0.55450  1.0000
  Fe  Fe71      1.0  0.20833  0.85462  0.50936  1.0000
  H   H413      1.0  0.06080  0.52000  0.50420  1.0000
  Fe  Fe72      1.0  0.18796  0.84342  0.55168  1.0000
  S   S138      1.0  0.17174  0.82359  0.57716  1.0000
  S   S139      1.0  0.21310  0.88457  0.51459  1.0000
  S   S140      1.0  0.19074  0.87303  0.55965  1.0000
  Fe  Fe73      1.0  0.28877  0.94236  0.61486  1.0000
  S   S141      1.0  0.28351  0.94809  0.64605  1.0000
  S   S142      1.0  0.26222  0.93806  0.60177  1.0000
  S   S143      1.0  0.19737  0.63705  0.71487  1.0000
  H   H414      1.0  0.09374  0.64797  0.70140  1.0000
  C   C400      1.0  0.04199  0.67786  0.57882  1.0000
  Fe  Fe74      1.0  0.11649  0.68165  0.61779  1.0000
  S   S144      1.0  0.11164  0.70964  0.59601  1.0000
  S   S145      1.0  0.10979  0.65119  0.61585  1.0000
  Fe  Fe75      1.0  0.12393  0.70408  0.64835  1.0000
  S   S146      1.0  0.11885  0.73440  0.62930  1.0000
  Fe  Fe76      1.0  0.09314  0.72337  0.62146  1.0000
  S   S147      1.0  0.06421  0.74271  0.61474  1.0000
  Fe  Fe77      1.0  0.13780  0.71856  0.60526  1.0000
  S   S148      1.0  0.16026  0.73293  0.58111  1.0000
  S   S149      1.0  0.09619  0.69481  0.64273  1.0000
  S   S150      1.0  0.14465  0.68878  0.62484  1.0000
  H   H415      1.0  0.16435  0.67699  0.66136  1.0000
  H   H416      1.0  0.24506  0.86247  0.60060  1.0000
  C   C401      1.0  0.02294  0.67354  0.57859  1.0000
  C   C402      1.0  0.16277  0.66515  0.71778  1.0000
  C   C403      1.0  0.04203  0.73363  0.62723  1.0000
  C   C404      1.0  0.02431  0.73944  0.61919  1.0000
  H   H417      1.0  0.05782  0.54191  0.48519  1.0000
  C   C405      1.0  0.04189  0.72057  0.64506  1.0000
  C   C406      1.0  0.14799  0.68344  0.68940  1.0000
  H   H418      1.0  0.05533  0.71633  0.65158  1.0000
  C   C407      1.0  0.10142  0.59182  0.48524  1.0000
  C   C408      1.0  0.20885  0.83650  0.59859  1.0000
  C   C409      1.0  0.25349  0.89041  0.56709  1.0000
  C   C410      1.0  0.23804  0.90614  0.57151  1.0000
  C   C411      1.0  0.24097  0.92046  0.58225  1.0000
  C   C412      1.0  0.25928  0.91918  0.58881  1.0000
  C   C413      1.0  0.27470  0.90336  0.58451  1.0000
  C   C414      1.0  0.27181  0.88910  0.57368  1.0000
  H   H419      1.0  0.22384  0.90730  0.56664  1.0000
  H   H420      1.0  0.22894  0.93265  0.58546  1.0000
  H   H421      1.0  0.28884  0.90211  0.58951  1.0000
  H   H422      1.0  0.28382  0.87690  0.57045  1.0000
  C   C415      1.0  0.17008  0.79798  0.57826  1.0000
  C   C416      1.0  0.15919  0.78811  0.59518  1.0000
  C   C417      1.0  0.15638  0.76809  0.59635  1.0000
  C   C418      1.0  0.16460  0.75767  0.58065  1.0000
  C   C419      1.0  0.17596  0.76737  0.56390  1.0000
  C   C420      1.0  0.17861  0.78751  0.56264  1.0000
  H   H423      1.0  0.15267  0.79608  0.60738  1.0000
  H   H424      1.0  0.14790  0.76073  0.60941  1.0000
  H   H425      1.0  0.18245  0.75935  0.55173  1.0000
  H   H426      1.0  0.18709  0.79495  0.54957  1.0000
  C   C421      1.0  0.30013  0.95097  0.55990  1.0000
  H   H427      1.0  0.29109  0.93902  0.56467  1.0000
  H   H428      1.0  0.19323  0.70262  0.72206  1.0000
  N   N35       1.0  0.22763  0.84139  0.59643  1.0000
  C   C422      1.0  0.19196  0.84909  0.60654  1.0000
  C   C423      1.0  0.21362  0.87164  0.61004  1.0000
  C   C424      1.0  0.10550  0.65751  0.69488  1.0000
  C   C425      1.0  0.19438  0.86688  0.61209  1.0000
  H   H429      1.0  0.13703  0.63623  0.71010  1.0000
  H   H430      1.0  0.16920  0.61393  0.65789  1.0000
  C   C426      1.0  0.09385  0.64271  0.55812  1.0000
  C   C427      1.0  0.10699  0.65610  0.55810  1.0000
  C   C428      1.0  0.11161  0.65913  0.57578  1.0000
  C   C429      1.0  0.10343  0.64842  0.59357  1.0000
  C   C430      1.0  0.09013  0.63517  0.59363  1.0000
  C   C431      1.0  0.08513  0.63251  0.57596  1.0000
  H   H431      1.0  0.11383  0.66400  0.54434  1.0000
  H   H432      1.0  0.12196  0.66930  0.57559  1.0000
  H   H433      1.0  0.08376  0.62684  0.60735  1.0000
  H   H434      1.0  0.07506  0.62207  0.57611  1.0000
  H   H435      1.0  0.16666  0.61592  0.69327  1.0000
  C   C432      1.0  0.04584  0.51114  0.55151  1.0000
  C   C433      1.0  0.02546  0.51489  0.55955  1.0000
  C   C434      1.0  0.01739  0.53313  0.56649  1.0000
  C   C435      1.0  0.02956  0.54784  0.56490  1.0000
  C   C436      1.0  0.04996  0.54394  0.55708  1.0000
  C   C437      1.0  0.05812  0.52553  0.55062  1.0000
  H   H436      1.0  0.05954  0.55496  0.55640  1.0000
  H   H437      1.0  0.07396  0.52254  0.54472  1.0000
  C   C438      1.0  0.11025  0.91536  0.49188  1.0000
  C   C439      1.0  0.11896  0.89746  0.50230  1.0000
  C   C440      1.0  0.13420  0.89760  0.51285  1.0000
  C   C441      1.0  0.14089  0.91562  0.51298  1.0000
  C   C442      1.0  0.13193  0.93359  0.50284  1.0000
  C   C443      1.0  0.11669  0.93346  0.49224  1.0000
  H   H438      1.0  0.11382  0.88346  0.50233  1.0000
  H   H439      1.0  0.14043  0.88383  0.52121  1.0000
  H   H440      1.0  0.13684  0.94763  0.50312  1.0000
  N   N36       1.0  0.29123  0.97070  0.55796  1.0000
  S   S151      1.0  0.09140  0.91460  0.47858  1.0000
  H   H441      1.0  0.99545  0.56904  0.53245  1.0000
  H   H442      1.0  0.02875  0.51424  0.49497  1.0000
  C   C444      1.0  0.15615  0.62263  0.66548  1.0000
  C   C445      1.0  0.23019  0.85853  0.60235  1.0000
  H   H443      1.0  0.20680  0.82299  0.59376  1.0000
  N   N37       1.0  0.04572  0.68456  0.59468  1.0000
  C   C446      1.0  0.16385  0.67379  0.67706  1.0000
  H   H444      1.0  0.21573  0.88559  0.61398  1.0000
  S   S152      1.0  0.12799  0.70024  0.68011  1.0000
  C   C447      1.0  0.21717  0.67843  0.71516  1.0000
  H   H445      1.0  0.24117  0.63515  0.71848  1.0000
  C   C448      1.0  0.00784  0.67575  0.59483  1.0000
  H   H446      1.0  0.03202  0.56455  0.52108  1.0000
  C   C449      1.0  0.00253  0.55722  0.52386  1.0000
  H   H447      1.0  0.10856  0.62111  0.50180  1.0000
  H   H448      1.0  0.01595  0.50373  0.56059  1.0000
  S   S153      1.0  0.21871  0.84968  0.47772  1.0000
  S   S154      1.0  0.05640  0.48871  0.54236  1.0000
  H   H449      1.0  0.21137  0.67643  0.70253  1.0000
  H   H450      1.0  0.26510  0.97859  0.57827  1.0000
  C   C450      1.0  0.12419  0.64433  0.66533  1.0000
  H   H451      1.0  0.10964  0.66399  0.70659  1.0000
  H   H452      1.0  0.28226  0.93961  0.69557  1.0000
  H   H453      1.0  0.00162  0.53607  0.57265  1.0000
  C   C451      1.0  0.01183  0.68244  0.61096  1.0000
  C   C452      1.0  0.32105  0.94592  0.55615  1.0000
  C   C453      1.0  0.02330  0.55447  0.51756  1.0000
  H   H454      1.0  0.24304  0.82717  0.57234  1.0000
  H   H455      1.0  0.02415  0.70336  0.66866  1.0000
  N   N38       1.0  0.23394  0.66615  0.72060  1.0000
  C   C454      1.0  0.14764  0.67923  0.70976  1.0000
  C   C455      1.0  0.02415  0.71336  0.65481  1.0000
  H   H456      1.0  0.25919  0.83425  0.58589  1.0000
  C   C456      1.0  0.17909  0.65988  0.68506  1.0000
  C   C457      1.0  0.30657  0.97973  0.68900  1.0000
  H   H457      1.0  0.17706  0.84537  0.60770  1.0000
  C   C458      1.0  0.29320  0.96784  0.68643  1.0000
  S   S155      1.0  0.04783  0.59143  0.48114  1.0000
  H   H458      1.0  0.19125  0.65240  0.67541  1.0000
  H   H459      1.0  0.01986  0.66856  0.56590  1.0000
  H   H460      1.0  0.07599  0.68764  0.58095  1.0000
  H   H461      1.0  0.03407  0.69183  0.62322  1.0000
  Fe  Fe78      1.0  0.31418  0.93001  0.64785  1.0000
  H   H462      1.0  0.05373  0.67580  0.56624  1.0000
  C   C459      1.0  0.10074  0.62666  0.48942  1.0000
  C   C460      1.0  0.17967  0.90128  0.47753  1.0000
  C   C461      1.0  0.06541  0.68976  0.59477  1.0000
  H   H463      1.0  0.02431  0.74961  0.60542  1.0000
  H   H464      1.0  0.06382  0.70578  0.59664  1.0000
  H   H465      1.0  0.18233  0.83136  0.48727  1.0000
  H   H466      1.0  0.13546  0.68671  0.71940  1.0000
  C   C462      1.0  0.17844  0.65529  0.70544  1.0000
  C   C463      1.0  0.00658  0.73200  0.62882  1.0000
  C   C464      1.0  0.02147  0.52648  0.50294  1.0000
  N   N39       1.0  0.10632  0.78560  0.58895  1.0000
  C   C465      1.0  0.10811  0.76801  0.58179  1.0000
  C   C466      1.0  0.11615  0.80086  0.57843  1.0000
  C   C467      1.0  0.11980  0.76543  0.56354  1.0000
  C   C468      1.0  0.12782  0.79887  0.56004  1.0000
  C   C469      1.0  0.12968  0.78099  0.55261  1.0000
  C   C470      1.0  0.09505  0.78749  0.60864  1.0000
  H   H467      1.0  0.10077  0.75571  0.59034  1.0000
  H   H468      1.0  0.11552  0.81447  0.58444  1.0000
  H   H469      1.0  0.12184  0.75114  0.55831  1.0000
  H   H470      1.0  0.13610  0.81076  0.55204  1.0000
  H   H471      1.0  0.13938  0.77889  0.53878  1.0000
  H   H472      1.0  0.08834  0.80337  0.60979  1.0000
  H   H473      1.0  0.08246  0.77857  0.61231  1.0000
  H   H474      1.0  0.10521  0.78190  0.61962  1.0000
  H   H475      1.0  0.07222  0.68010  0.60707  1.0000
  H   H476      1.0  0.24635  0.81295  0.59628  1.0000
  H   H477      1.0  0.29930  0.91180  0.71652  1.0000
  C   C471      1.0  0.24493  0.82821  0.58741  1.0000
  C   C472      1.0  0.13787  0.63520  0.69477  1.0000
  H   H478      1.0  0.26171  0.96327  0.56148  1.0000
  H   H479      1.0  0.23856  0.65114  0.69560  1.0000
  H   H480      1.0  0.99191  0.51902  0.50497  1.0000
  C   C473      1.0  0.99113  0.54440  0.51937  1.0000
  Fe  Fe79      1.0  0.29990  0.97459  0.63458  1.0000
  C   C474      1.0  0.29236  0.94895  0.69803  1.0000
  H   H481      1.0  0.28357  0.97327  0.67547  1.0000
  H   H482      1.0  0.26057  0.65001  0.70626  1.0000
  C   C475      1.0  0.15466  0.62361  0.68533  1.0000
  H   H483      1.0  0.06178  0.54447  0.50905  1.0000
  C   C476      1.0  0.24413  0.64987  0.70964  1.0000
  H   H484      1.0  0.14165  0.63226  0.63998  1.0000
  H   H485      1.0  0.09054  0.58332  0.48194  1.0000
  S   S156      1.0  0.99715  0.66814  0.53125  1.0000
  H   H486      1.0  0.09927  0.67058  0.68467  1.0000
  S   S157      1.0  0.31840  0.92244  0.61734  1.0000
  H   H487      1.0  0.18129  0.91402  0.48451  1.0000
  N   N40       1.0  0.09567  0.61353  0.47949  1.0000
  H   H488      1.0  0.17329  0.88994  0.48937  1.0000
  H   H489      1.0  0.10974  0.94739  0.48463  1.0000
  C   C477      1.0  0.31866  0.97278  0.70338  1.0000
  C   C478      1.0  0.09546  0.64744  0.48413  1.0000
  S   S158      1.0  0.00141  0.48560  0.47971  1.0000
  H   H490      1.0  0.99301  0.73642  0.62247  1.0000
  C   C479      1.0  0.00059  0.52909  0.50862  1.0000
  N   N41       1.0  0.30423  0.94226  0.71212  1.0000
  C   C480      1.0  0.26934  0.97579  0.56284  1.0000
  C   C481      1.0  0.31711  0.95399  0.71506  1.0000
  S   S159      1.0  0.31872  0.90526  0.67376  1.0000
  S   S160      1.0  0.00226  0.48185  0.53536  1.0000
  S   S161      1.0  0.06371  0.57385  0.87146  1.0000
  H   H491      1.0  0.23467  0.72624  0.86486  1.0000
  H   H492      1.0  0.16433  0.54440  0.76505  1.0000
  S   S162      1.0  0.08587  0.58355  0.81348  1.0000
  H   H493      1.0  0.21636  0.74690  0.85586  1.0000
  C   C482      1.0  0.04319  0.56311  0.92867  1.0000
  S   S163      1.0  0.31412  0.68071  0.86774  1.0000
  C   C483      1.0  0.21392  0.69578  0.74267  1.0000
  S   S164      1.0  0.13572  0.50807  0.85784  1.0000
  C   C484      1.0  0.01722  0.54593  0.86057  1.0000
  Fe  Fe80      1.0  0.29204  0.70303  0.85189  1.0000
  S   S165      1.0  0.26356  0.69496  0.84510  1.0000
  H   H494      1.0  0.16218  0.66182  0.73351  1.0000
  S   S166      1.0  0.28769  0.72491  0.87336  1.0000
  S   S167      1.0  0.08018  0.53349  0.84948  1.0000
  Fe  Fe81      1.0  0.22120  0.63253  0.77954  1.0000
  S   S168      1.0  0.19497  0.65244  0.76749  1.0000
  S   S169      1.0  0.24940  0.64421  0.78268  1.0000
  Fe  Fe82      1.0  0.20369  0.59369  0.78027  1.0000
  S   S170      1.0  0.17656  0.61076  0.76820  1.0000
  S   S171      1.0  0.20389  0.56037  0.79188  1.0000
  Fe  Fe83      1.0  0.19762  0.62962  0.74764  1.0000
  H   H495      1.0  0.14310  0.57709  0.78162  1.0000
  Fe  Fe84      1.0  0.17617  0.63189  0.78899  1.0000
  S   S172      1.0  0.14806  0.64163  0.80939  1.0000
  S   S173      1.0  0.22523  0.61078  0.75803  1.0000
  S   S174      1.0  0.20202  0.61374  0.80262  1.0000
  C   C485      1.0  0.20352  0.54317  0.77621  1.0000
  C   C486      1.0  0.19962  0.52364  0.78441  1.0000
  C   C487      1.0  0.11870  0.52083  0.79468  1.0000
  C   C488      1.0  0.20661  0.53450  0.74375  1.0000
  C   C489      1.0  0.20683  0.54861  0.75584  1.0000
  Fe  Fe85      1.0  0.08373  0.56606  0.84383  1.0000
  C   C490      1.0  0.15153  0.53778  0.77350  1.0000
  H   H496      1.0  0.20986  0.56361  0.74937  1.0000
  C   C491      1.0  0.26015  0.68043  0.82783  1.0000
  C   C492      1.0  0.24075  0.67648  0.82793  1.0000
  C   C493      1.0  0.23720  0.66529  0.81439  1.0000
  C   C494      1.0  0.25302  0.65799  0.80046  1.0000
  C   C495      1.0  0.27239  0.66212  0.80024  1.0000
  C   C496      1.0  0.27597  0.67320  0.81387  1.0000
  H   H497      1.0  0.22838  0.68194  0.83867  1.0000
  H   H498      1.0  0.22222  0.66226  0.81479  1.0000
  H   H499      1.0  0.28475  0.65657  0.78954  1.0000
  H   H500      1.0  0.29096  0.67611  0.81354  1.0000
  H   H501      1.0  0.22611  0.72621  0.84251  1.0000
  C   C497      1.0  0.20273  0.51498  0.75191  1.0000
  Fe  Fe86      1.0  0.31343  0.73824  0.85337  1.0000
  H   H502      1.0  0.20947  0.53876  0.72798  1.0000
  H   H503      1.0  0.27216  0.78241  0.84667  1.0000
  C   C498      1.0  0.13072  0.51186  0.77925  1.0000
  C   C499      1.0  0.19908  0.50962  0.77232  1.0000
  H   H504      1.0  0.10825  0.60270  0.93430  1.0000
  C   C500      1.0  0.25695  0.74215  0.82336  1.0000
  S   S175      1.0  0.11170  0.56096  0.85667  1.0000
  S   S176      1.0  0.09954  0.58535  0.90361  1.0000
  C   C501      1.0  0.31249  0.71243  0.96999  1.0000
  C   C502      1.0  0.14727  0.52036  0.76857  1.0000
  H   H505      1.0  0.99273  0.52294  0.90325  1.0000
  H   H506      1.0  0.29125  0.77405  0.81476  1.0000
  Fe  Fe87      1.0  0.09165  0.56550  0.88505  1.0000
  H   H507      1.0  0.31166  0.75704  0.93914  1.0000
  H   H508      1.0  0.19697  0.51934  0.80018  1.0000
  H   H509      1.0  0.28167  0.74776  0.79989  1.0000
  C   C503      1.0  0.10106  0.60191  0.81183  1.0000
  C   C504      1.0  0.10324  0.60854  0.82878  1.0000
  C   C505      1.0  0.11699  0.62159  0.82776  1.0000
  C   C506      1.0  0.12907  0.62753  0.80991  1.0000
  C   C507      1.0  0.12637  0.62148  0.79283  1.0000
  C   C508      1.0  0.11217  0.60890  0.79375  1.0000
  H   H510      1.0  0.09432  0.60362  0.84272  1.0000
  H   H511      1.0  0.11863  0.62664  0.84093  1.0000
  H   H512      1.0  0.13504  0.62672  0.77888  1.0000
  H   H513      1.0  0.11024  0.60409  0.78057  1.0000
  C   C509      1.0  0.31071  0.72864  0.93058  1.0000
  C   C510      1.0  0.31175  0.69994  0.95650  1.0000
  C   C511      1.0  0.10907  0.58665  0.93917  1.0000
  C   C512      1.0  0.10551  0.57435  0.92685  1.0000
  C   C513      1.0  0.10678  0.55361  0.93321  1.0000
  C   C514      1.0  0.11185  0.54520  0.95169  1.0000
  C   C515      1.0  0.05104  0.58099  0.92571  1.0000
  H   H514      1.0  0.10410  0.54396  0.92390  1.0000
  H   H515      1.0  0.13534  0.56886  0.80735  1.0000
  H   H516      1.0  0.00435  0.55693  0.83427  1.0000
  H   H517      1.0  0.24386  0.76453  0.86352  1.0000
  H   H518      1.0  0.31196  0.68395  0.96136  1.0000
  H   H519      1.0  0.15683  0.51346  0.75660  1.0000
  H   H520      1.0  0.11682  0.58784  0.96711  1.0000
  H   H521      1.0  0.16086  0.56159  0.79605  1.0000
  C   C516      1.0  0.31272  0.73303  0.96376  1.0000
  C   C517      1.0  0.27311  0.75191  0.81360  1.0000
  C   C518      1.0  0.05723  0.58676  0.94130  1.0000
  C   C519      1.0  0.30227  0.92291  0.72485  1.0000
  H   H522      1.0  0.25320  0.73037  0.81700  1.0000
  C   C520      1.0  0.14500  0.56432  0.79376  1.0000
  C   C521      1.0  0.12353  0.53812  0.79934  1.0000
  C   C522      1.0  0.99533  0.53034  0.88819  1.0000
  H   H523      1.0  0.31799  0.65332  0.90618  1.0000
  H   H524      1.0  0.11412  0.54495  0.81138  1.0000
  C   C523      1.0  0.04792  0.55744  0.96243  1.0000
  H   H525      1.0  0.03161  0.55054  0.85414  1.0000
  C   C524      1.0  0.11381  0.57828  0.95780  1.0000
  S   S177      1.0  0.03368  0.52952  0.89369  1.0000
  H   H526      1.0  0.99250  0.48559  0.86190  1.0000
  C   C525      1.0  0.00181  0.54945  0.84931  1.0000
  C   C526      1.0  0.99594  0.48325  0.87662  1.0000
  C   C527      1.0  0.01404  0.53616  0.87997  1.0000
  H   H527      1.0  0.20583  0.70698  0.75159  1.0000
  H   H528      1.0  0.03532  0.53736  0.94965  1.0000
  N   N42       1.0  0.15377  0.56272  0.87236  1.0000
  C   C528      1.0  0.16304  0.55067  0.85871  1.0000
  C   C529      1.0  0.15009  0.58319  0.86707  1.0000
  C   C530      1.0  0.16956  0.55911  0.83933  1.0000
  C   C531      1.0  0.15654  0.59212  0.84783  1.0000
  C   C532      1.0  0.16630  0.57997  0.83390  1.0000
  C   C533      1.0  0.14674  0.55347  0.89247  1.0000
  H   H529      1.0  0.16521  0.53440  0.86270  1.0000
  H   H530      1.0  0.14195  0.59271  0.87768  1.0000
  H   H531      1.0  0.17712  0.54952  0.82859  1.0000
  H   H532      1.0  0.15387  0.60837  0.84367  1.0000
  H   H533      1.0  0.17122  0.58672  0.81891  1.0000
  H   H534      1.0  0.13207  0.54855  0.89328  1.0000
  H   H535      1.0  0.15766  0.54023  0.89735  1.0000
  H   H536      1.0  0.14474  0.56423  0.90297  1.0000
  Fe  Fe88      1.0  0.10690  0.52896  0.86450  1.0000
  N   N43       1.0  0.24650  0.74687  0.84098  1.0000
  H   H537      1.0  0.10586  0.51429  0.80316  1.0000
  H   H538      1.0  0.05275  0.59021  0.91133  1.0000
  C   C534      1.0  0.24092  0.66839  0.73682  1.0000
  H   H539      1.0  0.16494  0.49434  0.82625  1.0000
  C   C535      1.0  0.25177  0.76117  0.84931  1.0000
  Fe  Fe89      1.0  0.06240  0.54073  0.87841  1.0000
  C   C536      1.0  0.23003  0.73612  0.85154  1.0000
  C   C537      1.0  0.26773  0.77133  0.83988  1.0000
  S   S178      1.0  0.08895  0.53287  0.89413  1.0000
  H   H540      1.0  0.12734  0.49821  0.77573  1.0000
  H   H541      1.0  0.19602  0.49466  0.77879  1.0000
  C   C538      1.0  0.27848  0.76661  0.82193  1.0000
  C   C539      1.0  0.31105  0.70795  0.93672  1.0000
  N   N44       1.0  0.13988  0.54626  0.78885  1.0000
  H   H542      1.0  0.03845  0.55842  0.91665  1.0000
  C   C540      1.0  0.04152  0.55125  0.94716  1.0000
  H   H543      1.0  0.25391  0.65832  0.74144  1.0000
  S   S179      1.0  0.20278  0.49780  0.73607  1.0000
  H   H544      1.0  0.23645  0.68458  0.76118  1.0000
  C   C541      1.0  0.11525  0.55752  0.96407  1.0000
  C   C542      1.0  0.13434  0.49333  0.84054  1.0000
  H   H545      1.0  0.11301  0.52911  0.95647  1.0000
  S   S180      1.0  0.31168  0.69152  0.91996  1.0000
  C   C543      1.0  0.11659  0.48611  0.84071  1.0000
  S   S181      1.0  0.31576  0.71843  0.83081  1.0000
  H   H546      1.0  0.31008  0.73499  0.91541  1.0000
  Fe  Fe90      1.0  0.31154  0.70353  0.88767  1.0000
  C   C544      1.0  0.31157  0.74111  0.94407  1.0000
  H   H547      1.0  0.07148  0.59331  0.97050  1.0000
  H   H548      1.0  0.06365  0.60053  0.93870  1.0000
  S   S182      1.0  0.31529  0.77151  0.84665  1.0000
  N   N45       1.0  0.05582  0.57490  0.95932  1.0000
  C   C545      1.0  0.23110  0.68329  0.74803  1.0000
  H   H549      1.0  0.02235  0.50341  0.85167  1.0000
  H   H550      1.0  0.31636  0.91627  0.73070  1.0000
  H   H551      1.0  0.10352  0.48968  0.85157  1.0000
  H   H552      1.0  0.28977  0.92494  0.73730  1.0000
  C   C546      1.0  0.15127  0.48853  0.82659  1.0000
  C   C547      1.0  0.01847  0.48317  0.89821  1.0000
  C   C548      1.0  0.02938  0.49179  0.86267  1.0000
  H   H553      1.0  0.03290  0.48554  0.90062  1.0000
  N   N46       1.0  0.01421  0.48608  0.87961  1.0000
  H   H554      1.0  0.04103  0.49859  0.86696  1.0000
  C   C549      1.0  0.20685  0.69335  0.72614  1.0000
  Fe  Fe91      1.0  0.53138  0.09133  0.01453  1.0000
  S   S183      1.0  0.51601  0.07298  0.04087  1.0000
  Fe  Fe92      1.0  0.55023  0.11198  0.03952  1.0000
  S   S184      1.0  0.53683  0.09454  0.06780  1.0000
  S   S185      1.0  0.56983  0.13554  0.03782  1.0000
  Fe  Fe93      1.0  0.54512  0.06806  0.05173  1.0000
  S   S186      1.0  0.55900  0.03654  0.06250  1.0000
  Fe  Fe94      1.0  0.50907  0.10120  0.05408  1.0000
  S   S187      1.0  0.47873  0.10867  0.07203  1.0000
  S   S188      1.0  0.56117  0.08478  0.02452  1.0000
  S   S189      1.0  0.52173  0.12032  0.02659  1.0000
  H   H555      1.0  0.45367  0.17079  0.18057  1.0000
  Fe  Fe95      1.0  0.34498  0.36104  0.03793  1.0000
  H   H556      1.0  0.51623  0.03748  0.07388  1.0000
  S   S190      1.0  0.36008  0.37933  0.05199  1.0000
  Fe  Fe96      1.0  0.60148  0.18150  0.11763  1.0000
  S   S191      1.0  0.58128  0.19337  0.14347  1.0000
  S   S192      1.0  0.59707  0.15075  0.11357  1.0000
  Fe  Fe97      1.0  0.62145  0.21949  0.10532  1.0000
  S   S193      1.0  0.60214  0.23435  0.12978  1.0000
  C   C550      1.0  0.43258  0.15044  0.19382  1.0000
  Fe  Fe98      1.0  0.60862  0.20405  0.14838  1.0000
  S   S194      1.0  0.61712  0.20312  0.17810  1.0000
  Fe  Fe99      1.0  0.57682  0.22211  0.12249  1.0000
  S   S195      1.0  0.54667  0.23981  0.11725  1.0000
  S   S196      1.0  0.62933  0.18974  0.12431  1.0000
  S   S197      1.0  0.59562  0.20968  0.09628  1.0000
  Fe  Fe100     1.0  0.43348  0.20389  0.10786  1.0000
  S   S198      1.0  0.43560  0.23168  0.11916  1.0000
  S   S199      1.0  0.44937  0.20069  0.07735  1.0000
  Fe  Fe101     1.0  0.40887  0.18658  0.14609  1.0000
  S   S200      1.0  0.40880  0.21325  0.16034  1.0000
  S   S201      1.0  0.39932  0.15720  0.16206  1.0000
  Fe  Fe102     1.0  0.40289  0.23142  0.13122  1.0000
  S   S202      1.0  0.38263  0.26148  0.12750  1.0000
  Fe  Fe103     1.0  0.44145  0.21096  0.14672  1.0000
  S   S203      1.0  0.46636  0.20923  0.16389  1.0000
  S   S204      1.0  0.40038  0.20480  0.11797  1.0000
  S   S205      1.0  0.44193  0.18311  0.13442  1.0000
  C   C551      1.0  0.37665  0.15604  0.17867  1.0000
  C   C552      1.0  0.37352  0.13748  0.19015  1.0000
  C   C553      1.0  0.34403  0.17116  0.19438  1.0000
  C   C554      1.0  0.36194  0.17297  0.18089  1.0000
  H   H557      1.0  0.38471  0.12428  0.18829  1.0000
  C   C555      1.0  0.47445  0.14448  0.99728  1.0000
  H   H558      1.0  0.36422  0.18733  0.17199  1.0000
  C   C556      1.0  0.52459  0.23103  0.13044  1.0000
  C   C557      1.0  0.50686  0.23672  0.12245  1.0000
  C   C558      1.0  0.48900  0.22992  0.13250  1.0000
  C   C559      1.0  0.48863  0.21776  0.15085  1.0000
  C   C560      1.0  0.50636  0.21213  0.15891  1.0000
  C   C561      1.0  0.52436  0.21854  0.14862  1.0000
  H   H559      1.0  0.50693  0.24643  0.10842  1.0000
  H   H560      1.0  0.47544  0.23445  0.12621  1.0000
  H   H561      1.0  0.50618  0.20277  0.17313  1.0000
  H   H562      1.0  0.53792  0.21426  0.15499  1.0000
  C   C562      1.0  0.35412  0.27952  0.07198  1.0000
  C   C563      1.0  0.35975  0.25916  0.07921  1.0000
  C   C564      1.0  0.36869  0.25350  0.09610  1.0000
  C   C565      1.0  0.37163  0.26816  0.10615  1.0000
  C   C566      1.0  0.36570  0.28856  0.09909  1.0000
  C   C567      1.0  0.35718  0.29426  0.08191  1.0000
  H   H563      1.0  0.37291  0.23776  0.10155  1.0000
  H   H564      1.0  0.36795  0.29999  0.10681  1.0000
  C   C568      1.0  0.61888  0.40497  0.98392  1.0000
  H   H565      1.0  0.59076  0.07238  0.11289  1.0000
  H   H566      1.0  0.47045  0.15023  0.98246  1.0000
  H   H567      1.0  0.46448  0.15396  0.00762  1.0000
  H   H568      1.0  0.47063  0.06635  0.01986  1.0000
  S   S206      1.0  0.36085  0.33655  0.02091  1.0000
  H   H569      1.0  0.49022  0.99204  0.98855  1.0000
  C   C569      1.0  0.59150  0.07389  0.06431  1.0000
  H   H570      1.0  0.33254  0.18418  0.19588  1.0000
  C   C570      1.0  0.64474  0.16830  0.17624  1.0000
  H   H571      1.0  0.64583  0.23358  0.12531  1.0000
  C   C571      1.0  0.38328  0.43258  0.01022  1.0000
  C   C572      1.0  0.38197  0.43117  0.03047  1.0000
  C   C573      1.0  0.37514  0.41458  0.04315  1.0000
  C   C574      1.0  0.36919  0.39955  0.03567  1.0000
  C   C575      1.0  0.37012  0.40108  0.01542  1.0000
  C   C576      1.0  0.37728  0.41756  0.00267  1.0000
  H   H572      1.0  0.52541  0.12543  0.97930  1.0000
  H   H573      1.0  0.37450  0.41341  0.05879  1.0000
  H   H574      1.0  0.36548  0.38951  0.00958  1.0000
  H   H575      1.0  0.46741  0.12518  0.03394  1.0000
  C   C577      1.0  0.47055  0.13432  0.07314  1.0000
  C   C578      1.0  0.47977  0.14906  0.05973  1.0000
  C   C579      1.0  0.47290  0.16950  0.06076  1.0000
  C   C580      1.0  0.45709  0.17520  0.07547  1.0000
  C   C581      1.0  0.44787  0.16049  0.08888  1.0000
  C   C582      1.0  0.45448  0.14007  0.08759  1.0000
  H   H576      1.0  0.49213  0.14480  0.04855  1.0000
  H   H577      1.0  0.48009  0.18089  0.05043  1.0000
  H   H578      1.0  0.43549  0.16482  0.10015  1.0000
  H   H579      1.0  0.44723  0.12872  0.09793  1.0000
  C   C583      1.0  0.57490  0.14144  0.05945  1.0000
  C   C584      1.0  0.58597  0.15703  0.05815  1.0000
  C   C585      1.0  0.59194  0.16080  0.07491  1.0000
  C   C586      1.0  0.58695  0.14888  0.09305  1.0000
  C   C587      1.0  0.57522  0.13383  0.09448  1.0000
  C   C588      1.0  0.56911  0.13020  0.07776  1.0000
  H   H580      1.0  0.59047  0.16584  0.04403  1.0000
  H   H581      1.0  0.60115  0.17234  0.07364  1.0000
  H   H582      1.0  0.57127  0.12461  0.10850  1.0000
  H   H583      1.0  0.56058  0.11820  0.07901  1.0000
  C   C589      1.0  0.54310  0.01983  0.06079  1.0000
  C   C590      1.0  0.55098  0.00238  0.05244  1.0000
  C   C591      1.0  0.50963  0.01118  0.06525  1.0000
  C   C592      1.0  0.52240  0.02418  0.06718  1.0000
  H   H584      1.0  0.56696  0.99905  0.04732  1.0000
  H   H585      1.0  0.60600  0.15343  0.20531  1.0000
  C   C593      1.0  0.35597  0.13581  0.20398  1.0000
  C   C594      1.0  0.63105  0.35349  0.06233  1.0000
  H   H586      1.0  0.61733  0.12369  0.04835  1.0000
  C   C595      1.0  0.51743  0.99397  0.05656  1.0000
  C   C596      1.0  0.60282  0.08949  0.05705  1.0000
  Fe  Fe104     1.0  0.33705  0.31902  0.03836  1.0000
  H   H587      1.0  0.57796  0.05584  0.09018  1.0000
  N   N47       1.0  0.40357  0.16388  0.21536  1.0000
  C   C597      1.0  0.64683  0.40614  0.00773  1.0000
  C   C598      1.0  0.65270  0.23368  0.13826  1.0000
  H   H588      1.0  0.40876  0.13409  0.20857  1.0000
  C   C599      1.0  0.62189  0.39508  0.05526  1.0000
  C   C600      1.0  0.46906  0.11553  0.02297  1.0000
  H   H589      1.0  0.61133  0.09946  0.09935  1.0000
  N   N48       1.0  0.41603  0.27097  0.06944  1.0000
  C   C601      1.0  0.40454  0.28342  0.05688  1.0000
  C   C602      1.0  0.41984  0.25068  0.06921  1.0000
  C   C603      1.0  0.39700  0.27566  0.04331  1.0000
  C   C604      1.0  0.41235  0.24237  0.05601  1.0000
  C   C605      1.0  0.40083  0.25498  0.04299  1.0000
  C   C606      1.0  0.42347  0.27917  0.08392  1.0000
  H   H590      1.0  0.40077  0.29940  0.05757  1.0000
  H   H591      1.0  0.42864  0.24074  0.07932  1.0000
  H   H592      1.0  0.38749  0.28551  0.03368  1.0000
  H   H593      1.0  0.41535  0.22620  0.05613  1.0000
  H   H594      1.0  0.39450  0.24872  0.03297  1.0000
  H   H595      1.0  0.43874  0.27124  0.08603  1.0000
  H   H596      1.0  0.42442  0.29543  0.07932  1.0000
  H   H597      1.0  0.41325  0.27724  0.09824  1.0000
  H   H598      1.0  0.63506  0.33722  0.06499  1.0000
  C   C607      1.0  0.41054  0.18185  0.21230  1.0000
  H   H599      1.0  0.44063  0.13832  0.18606  1.0000
  H   H600      1.0  0.32423  0.40732  0.04127  1.0000
  H   H601      1.0  0.61896  0.41138  0.05184  1.0000
  H   H602      1.0  0.40472  0.37178  0.98375  1.0000
  C   C608      1.0  0.49931  0.00402  0.98477  1.0000
  C   C609      1.0  0.53091  0.02742  0.00886  1.0000
  H   H603      1.0  0.53778  0.04136  0.00411  1.0000
  H   H604      1.0  0.61253  0.33617  0.04199  1.0000
  C   C610      1.0  0.64121  0.26949  0.09648  1.0000
  C   C611      1.0  0.60742  0.15706  0.21926  1.0000
  C   C612      1.0  0.59422  0.07697  0.09716  1.0000
  H   H605      1.0  0.35369  0.12136  0.21261  1.0000
  C   C613      1.0  0.63272  0.38785  0.98876  1.0000
  N   N49       1.0  0.53109  0.18319  0.09875  1.0000
  C   C614      1.0  0.51545  0.18317  0.11411  1.0000
  C   C615      1.0  0.53164  0.17271  0.08388  1.0000
  C   C616      1.0  0.49994  0.17225  0.11504  1.0000
  C   C617      1.0  0.51654  0.16136  0.08446  1.0000
  C   C618      1.0  0.50057  0.16119  0.10015  1.0000
  C   C619      1.0  0.54670  0.19539  0.09785  1.0000
  H   H606      1.0  0.51489  0.19168  0.12573  1.0000
  H   H607      1.0  0.54379  0.17307  0.07146  1.0000
  H   H608      1.0  0.48749  0.17250  0.12719  1.0000
  H   H609      1.0  0.51714  0.15289  0.07275  1.0000
  H   H610      1.0  0.48863  0.15265  0.10069  1.0000
  H   H611      1.0  0.56059  0.19059  0.08773  1.0000
  H   H612      1.0  0.54114  0.21149  0.09282  1.0000
  H   H613      1.0  0.55096  0.19403  0.11253  1.0000
  H   H614      1.0  0.60486  0.35859  0.02570  1.0000
  H   H615      1.0  0.35738  0.24769  0.07162  1.0000
  H   H616      1.0  0.62899  0.26440  0.10731  1.0000
  H   H617      1.0  0.60931  0.39065  0.03117  1.0000
  H   H618      1.0  0.33490  0.41227  0.07137  1.0000
  S   S207      1.0  0.34362  0.28604  0.05036  1.0000
  C   C620      1.0  0.62245  0.11412  0.06160  1.0000
  H   H619      1.0  0.37782  0.41883  0.98707  1.0000
  C   C621      1.0  0.41442  0.14821  0.20646  1.0000
  H   H620      1.0  0.63266  0.37410  0.98334  1.0000
  N   N50       1.0  0.47222  0.12323  0.00343  1.0000
  C   C622      1.0  0.60588  0.09224  0.08940  1.0000
  H   H621      1.0  0.54305  0.01468  0.01192  1.0000
  H   H622      1.0  0.47652  0.08059  0.98431  1.0000
  H   H623      1.0  0.52022  0.02931  0.02268  1.0000
  C   C623      1.0  0.63652  0.36488  0.07438  1.0000
  H   H624      1.0  0.58613  0.06661  0.05439  1.0000
  H   H625      1.0  0.43424  0.19884  0.19732  1.0000
  N   N51       1.0  0.62126  0.36272  0.04712  1.0000
  S   S208      1.0  0.39247  0.45325  0.99466  1.0000
  H   H626      1.0  0.38660  0.44273  0.03634  1.0000
  N   N52       1.0  0.60983  0.09846  0.06957  1.0000
  C   C624      1.0  0.34110  0.15258  0.20606  1.0000
  C   C625      1.0  0.52386  0.03346  0.97514  1.0000
  H   H627      1.0  0.60578  0.09452  0.04134  1.0000
  H   H628      1.0  0.63305  0.43704  0.00824  1.0000
  C   C626      1.0  0.63207  0.38581  0.07067  1.0000
  C   C627      1.0  0.61659  0.38324  0.04354  1.0000
  C   C628      1.0  0.58703  0.06774  0.08448  1.0000
  C   C629      1.0  0.42881  0.18450  0.19999  1.0000
  C   C630      1.0  0.64658  0.28839  0.09624  1.0000
  H   H629      1.0  0.64463  0.35749  0.08619  1.0000
  H   H630      1.0  0.62161  0.12434  0.07238  1.0000
  S   S209      1.0  0.52742  0.08180  0.98696  1.0000
  C   C631      1.0  0.65179  0.25722  0.08285  1.0000
  C   C632      1.0  0.61715  0.35056  0.03376  1.0000
  H   H631      1.0  0.63618  0.19771  0.21178  1.0000
  C   C633      1.0  0.63621  0.18433  0.18641  1.0000
  H   H632      1.0  0.35299  0.31002  0.07640  1.0000
  C   C634      1.0  0.50845  0.00898  0.99890  1.0000
  H   H633      1.0  0.60846  0.43603  0.98714  1.0000
  H   H634      1.0  0.49365  0.01458  0.07037  1.0000
  H   H635      1.0  0.63832  0.10712  0.05768  1.0000
  C   C635      1.0  0.61925  0.42280  0.99068  1.0000
  H   H636      1.0  0.40186  0.19433  0.21920  1.0000
  S   S210      1.0  0.32454  0.37542  0.01639  1.0000
  C   C636      1.0  0.63312  0.42333  0.00268  1.0000
  C   C637      1.0  0.64683  0.38852  0.00043  1.0000
  N   N53       1.0  0.52059  0.02349  0.99397  1.0000
  H   H637      1.0  0.49028  0.14624  0.99683  1.0000
  C   C638      1.0  0.64272  0.18533  0.20383  1.0000
  C   C639      1.0  0.47459  0.11094  0.98966  1.0000
  C   C640      1.0  0.47399  0.09033  0.99532  1.0000
  C   C641      1.0  0.43978  0.16872  0.19059  1.0000
  C   C642      1.0  0.46814  0.09503  0.02916  1.0000
  Fe  Fe105     1.0  0.33844  0.34921  0.00067  1.0000
  C   C643      1.0  0.53812  0.98963  0.05005  1.0000
  H   H638      1.0  0.63092  0.34711  0.02291  1.0000
  H   H639      1.0  0.63688  0.39483  0.07946  1.0000
  H   H640      1.0  0.39265  0.35252  0.97852  1.0000
  H   H641      1.0  0.46581  0.08900  0.04470  1.0000
  C   C644      1.0  0.47080  0.08235  0.01522  1.0000
  H   H642      1.0  0.50609  0.00087  0.01376  1.0000
  H   H643      1.0  0.58823  0.18578  0.21486  1.0000
  H   H644      1.0  0.63172  0.12543  0.20910  1.0000
  H   H645      1.0  0.63856  0.29758  0.10709  1.0000
  H   H646      1.0  0.63978  0.16731  0.16287  1.0000
  S   S211      1.0  0.64661  0.23265  0.08360  1.0000
  H   H647      1.0  0.64016  0.23516  0.15084  1.0000
  S   S212      1.0  0.32318  0.34234  0.05738  1.0000
  H   H648      1.0  0.37204  0.17269  0.22209  1.0000
  Fe  Fe106     1.0  0.41422  0.02134  0.38239  1.0000
  S   S213      1.0  0.44577  0.02701  0.37121  1.0000
  S   S214      1.0  0.39850  0.02195  0.41359  1.0000
  Fe  Fe107     1.0  0.40838  0.01357  0.34300  1.0000
  S   S215      1.0  0.43957  0.01831  0.32854  1.0000
  S   S216      1.0  0.38683  0.01123  0.32353  1.0000
  H   H649      1.0  0.60378  0.02487  0.31166  1.0000
  N   N54       1.0  0.50759  0.08396  0.34787  1.0000
  Fe  Fe108     1.0  0.43400  0.04453  0.34462  1.0000
  S   S217      1.0  0.44576  0.07283  0.32929  1.0000
  H   H650      1.0  0.58802  0.98237  0.45669  1.0000
  S   S218      1.0  0.40198  0.04143  0.35704  1.0000
  Fe  Fe109     1.0  0.56405  0.03383  0.35600  1.0000
  S   S219      1.0  0.57557  0.00583  0.37528  1.0000
  S   S220      1.0  0.54424  0.03650  0.33370  1.0000
  Fe  Fe110     1.0  0.58661  0.06035  0.37061  1.0000
  S   S221      1.0  0.60052  0.03472  0.39095  1.0000
  S   S222      1.0  0.59061  0.09214  0.37007  1.0000
  Fe  Fe111     1.0  0.60500  0.01740  0.36594  1.0000
  S   S223      1.0  0.63499  0.99986  0.35558  1.0000
  Fe  Fe112     1.0  0.56985  0.02577  0.39843  1.0000
  S   S224      1.0  0.55538  0.01711  0.42978  1.0000
  S   S225      1.0  0.59386  0.04408  0.34498  1.0000
  S   S226      1.0  0.55550  0.05272  0.37993  1.0000
  C   C645      1.0  0.60348  0.00784  0.44771  1.0000
  H   H651      1.0  0.50534  0.04034  0.32394  1.0000
  C   C646      1.0  0.60280  0.10605  0.34899  1.0000
  H   H652      1.0  0.43126  0.04517  0.40438  1.0000
  C   C647      1.0  0.61125  0.13853  0.33247  1.0000
  C   C648      1.0  0.60124  0.12676  0.34846  1.0000
  H   H653      1.0  0.60988  0.15458  0.33225  1.0000
  H   H654      1.0  0.59228  0.13379  0.36054  1.0000
  C   C649      1.0  0.47285  0.00768  0.43846  1.0000
  H   H655      1.0  0.51825  0.01875  0.41617  1.0000
  H   H656      1.0  0.42130  0.08650  0.23885  1.0000
  C   C650      1.0  0.43348  0.04343  0.45250  1.0000
  C   C651      1.0  0.55900  0.03359  0.44466  1.0000
  C   C652      1.0  0.56723  0.05104  0.43625  1.0000
  C   C653      1.0  0.57204  0.06303  0.44821  1.0000
  C   C654      1.0  0.34797  0.00649  0.36169  1.0000
  H   H657      1.0  0.36839  0.00086  0.40301  1.0000
  H   H658      1.0  0.57018  0.05523  0.42049  1.0000
  H   H659      1.0  0.57873  0.07634  0.44158  1.0000
  H   H660      1.0  0.51312  0.01768  0.45188  1.0000
  C   C655      1.0  0.43090  0.08678  0.31231  1.0000
  C   C656      1.0  0.41122  0.08351  0.31329  1.0000
  C   C657      1.0  0.39977  0.09423  0.29916  1.0000
  C   C658      1.0  0.40806  0.10808  0.28392  1.0000
  C   C659      1.0  0.42773  0.11138  0.28296  1.0000
  C   C660      1.0  0.43907  0.10087  0.29724  1.0000
  H   H661      1.0  0.40480  0.07272  0.32486  1.0000
  H   H662      1.0  0.38473  0.09139  0.29982  1.0000
  H   H663      1.0  0.43420  0.12206  0.27116  1.0000
  H   H664      1.0  0.45428  0.10344  0.29643  1.0000
  H   H665      1.0  0.64616  0.12264  0.22801  1.0000
  C   C661      1.0  0.36166  0.00816  0.39025  1.0000
  C   C662      1.0  0.53060  0.00091  0.35105  1.0000
  C   C663      1.0  0.52667  0.01987  0.33970  1.0000
  C   C664      1.0  0.33781  0.03681  0.33899  1.0000
  N   N55       1.0  0.34590  0.02699  0.35678  1.0000
  C   C665      1.0  0.59473  0.99318  0.46167  1.0000
  H   H666      1.0  0.47922  0.01856  0.33366  1.0000
  C   C666      1.0  0.32713  0.01151  0.26041  1.0000
  C   C667      1.0  0.46694  0.00091  0.42325  1.0000
  C   C668      1.0  0.43852  0.04759  0.43206  1.0000
  C   C669      1.0  0.42749  0.04152  0.42008  1.0000
  C   C670      1.0  0.41153  0.03098  0.42844  1.0000
  H   H667      1.0  0.45107  0.05543  0.42546  1.0000
  C   C671      1.0  0.61450  0.09706  0.33329  1.0000
  C   C672      1.0  0.60529  0.01258  0.30362  1.0000
  H   H668      1.0  0.55349  0.08950  0.32132  1.0000
  C   C673      1.0  0.62544  0.99013  0.28311  1.0000
  S   S227      1.0  0.41799  0.99298  0.36946  1.0000
  C   C674      1.0  0.40617  0.02723  0.44891  1.0000
  H   H669      1.0  0.44918  0.07304  0.25780  1.0000
  C   C675      1.0  0.65037  0.04700  0.35720  1.0000
  N   N56       1.0  0.49116  0.01380  0.43590  1.0000
  C   C676      1.0  0.61168  0.16745  0.25422  1.0000
  C   C677      1.0  0.48981  0.07521  0.34746  1.0000
  C   C678      1.0  0.50831  0.02590  0.33305  1.0000
  H   H670      1.0  0.60272  0.98102  0.34924  1.0000
  C   C679      1.0  0.49674  0.02183  0.45160  1.0000
  C   C680      1.0  0.41923  0.07519  0.25180  1.0000
  C   C681      1.0  0.32266  0.02321  0.29166  1.0000
  H   H671      1.0  0.47560  0.99507  0.39349  1.0000
  H   H672      1.0  0.32886  0.06195  0.25405  1.0000
  H   H673      1.0  0.49272  0.03848  0.44929  1.0000
  C   C682      1.0  0.35871  0.02909  0.38557  1.0000
  S   S228      1.0  0.34307  0.10752  0.30103  1.0000
  H   H674      1.0  0.46254  0.00833  0.45222  1.0000
  H   H675      1.0  0.33106  0.03435  0.23494  1.0000
  H   H676      1.0  0.63997  0.98456  0.27513  1.0000
  H   H677      1.0  0.54494  0.99598  0.35589  1.0000
  C   C683      1.0  0.51597  0.98812  0.35591  1.0000
  C   C684      1.0  0.49724  0.99459  0.34993  1.0000
  H   H678      1.0  0.37890  0.03264  0.28346  1.0000
  C   C685      1.0  0.52333  0.08329  0.33260  1.0000
  C   C686      1.0  0.61126  0.02251  0.45390  1.0000
  C   C687      1.0  0.49848  0.00683  0.40285  1.0000
  S   S229      1.0  0.34851  0.10236  0.25442  1.0000
  H   H679      1.0  0.37196  0.05286  0.29777  1.0000
  H   H680      1.0  0.36645  0.05674  0.27339  1.0000
  Fe  Fe113     1.0  0.36173  0.11836  0.27249  1.0000
  Fe  Fe114     1.0  0.44881  0.00036  0.35625  1.0000
  C   C688      1.0  0.41711  0.03347  0.46095  1.0000
  C   C689      1.0  0.54084  0.09061  0.33322  1.0000
  H   H681      1.0  0.49138  0.05934  0.35497  1.0000
  H   H682      1.0  0.55576  0.10426  0.35031  1.0000
  S   S230      1.0  0.32758  0.99242  0.24660  1.0000
  C   C690      1.0  0.50885  0.09166  0.36408  1.0000
  C   C691      1.0  0.49349  0.01349  0.33850  1.0000
  H   H683      1.0  0.61573  0.08105  0.33356  1.0000
  H   H684      1.0  0.44353  0.04830  0.28826  1.0000
  H   H685      1.0  0.52267  0.07645  0.32009  1.0000
  H   H686      1.0  0.36311  0.03805  0.39473  1.0000
  C   C692      1.0  0.63049  0.12532  0.22509  1.0000
  H   H687      1.0  0.61729  0.03448  0.44328  1.0000
  H   H688      1.0  0.64592  0.10603  0.35610  1.0000
  H   H689      1.0  0.45225  0.99643  0.42520  1.0000
  H   H690      1.0  0.63567  0.07459  0.36729  1.0000
  H   H691      1.0  0.63969  0.02097  0.30755  1.0000
  C   C693      1.0  0.35080  0.03833  0.36865  1.0000
  C   C694      1.0  0.62508  0.10884  0.31741  1.0000
  C   C695      1.0  0.37775  0.04914  0.28279  1.0000
  H   H692      1.0  0.48768  0.07538  0.33218  1.0000
  S   S231      1.0  0.39462  0.12039  0.26523  1.0000
  H   H693      1.0  0.52720  0.10523  0.37801  1.0000
  N   N57       1.0  0.62363  0.00529  0.29377  1.0000
  C   C696      1.0  0.58832  0.00401  0.30377  1.0000
  H   H694      1.0  0.49657  0.09175  0.37638  1.0000
  H   H695      1.0  0.65488  0.00239  0.29415  1.0000
  H   H696      1.0  0.63439  0.10192  0.30544  1.0000
  H   H697      1.0  0.36311  0.00033  0.29959  1.0000
  H   H698      1.0  0.34359  0.02781  0.32691  1.0000
  H   H699      1.0  0.48866  0.01587  0.46623  1.0000
  C   C697      1.0  0.50385  0.01362  0.41832  1.0000
  C   C698      1.0  0.60879  0.98117  0.28296  1.0000
  C   C699      1.0  0.56893  0.05749  0.46863  1.0000
  C   C700      1.0  0.36673  0.98732  0.31039  1.0000
  H   H700      1.0  0.47585  0.08383  0.35466  1.0000
  C   C701      1.0  0.52608  0.09930  0.36510  1.0000
  H   H701      1.0  0.63118  0.13919  0.25781  1.0000
  C   C702      1.0  0.43484  0.06768  0.26245  1.0000
  C   C703      1.0  0.37880  0.98828  0.32393  1.0000
  H   H702      1.0  0.34389  0.99752  0.35237  1.0000
  C   C704      1.0  0.55488  0.02859  0.46511  1.0000
  C   C705      1.0  0.64847  0.06758  0.35785  1.0000
  S   S232      1.0  0.34095  0.14729  0.26759  1.0000
  N   N58       1.0  0.39750  0.05538  0.27545  1.0000
  C   C706      1.0  0.41282  0.04776  0.28584  1.0000
  C   C707      1.0  0.40053  0.06886  0.25856  1.0000
  H   H703      1.0  0.63932  0.03818  0.36599  1.0000
  H   H704      1.0  0.61364  0.17130  0.26793  1.0000
  C   C708      1.0  0.64135  0.01416  0.29408  1.0000
  H   H705      1.0  0.38839  0.07519  0.25042  1.0000
  H   H706      1.0  0.41037  0.03737  0.29937  1.0000
  C   C709      1.0  0.62343  0.12965  0.31707  1.0000
  H   H707      1.0  0.50860  0.00665  0.38897  1.0000
  C   C710      1.0  0.43169  0.05380  0.27954  1.0000
  C   C711      1.0  0.54215  0.09876  0.34954  1.0000
  H   H708      1.0  0.39375  0.01920  0.45548  1.0000
  H   H709      1.0  0.34904  0.05459  0.36487  1.0000
  H   H710      1.0  0.60339  0.00831  0.43225  1.0000
  S   S233      1.0  0.63603  0.14523  0.29768  1.0000
  Fe  Fe115     1.0  0.32624  0.13083  0.25138  1.0000
  C   C712      1.0  0.35616  0.99674  0.37831  1.0000
  C   C713      1.0  0.47994  0.00037  0.40539  1.0000
  H   H711      1.0  0.64398  0.02576  0.28091  1.0000
  C   C714      1.0  0.62166  0.14926  0.24838  1.0000
  H   H712      1.0  0.57726  0.98094  0.29382  1.0000
  C   C715      1.0  0.59948  0.18064  0.24219  1.0000
  C   C716      1.0  0.32443  0.04287  0.28208  1.0000
  H   H713      1.0  0.34248  0.05183  0.33347  1.0000
  S   S234      1.0  0.44897  0.04929  0.46700  1.0000
  H   H714      1.0  0.38481  0.16402  0.24316  1.0000
  H   H715      1.0  0.57391  0.00948  0.31203  1.0000
  C   C717      1.0  0.59017  0.98807  0.29348  1.0000
  C   C718      1.0  0.59723  0.17541  0.22463  1.0000
  Fe  Fe116     1.0  0.32793  0.09356  0.28256  1.0000
  H   H716      1.0  0.59197  0.19499  0.24634  1.0000
  C   C719      1.0  0.63460  0.98117  0.34170  1.0000
  H   H717      1.0  0.38032  0.14643  0.22935  1.0000
  H   H718      1.0  0.54847  0.01513  0.47170  1.0000
  N   N59       1.0  0.61972  0.14442  0.23094  1.0000
  C   C720      1.0  0.32761  0.04682  0.26159  1.0000
  C   C721      1.0  0.32884  0.03118  0.25080  1.0000
  H   H719      1.0  0.62278  0.11267  0.23336  1.0000
  C   C722      1.0  0.32411  0.00757  0.28088  1.0000
  C   C723      1.0  0.38424  0.16170  0.22811  1.0000
  H   H720      1.0  0.51596  0.07416  0.47361  1.0000
  C   C724      1.0  0.61059  0.02213  0.47388  1.0000
  Fe  Fe117     1.0  0.44463  0.03485  0.53988  1.0000
  S   S235      1.0  0.45543  0.05871  0.51608  1.0000
  S   S236      1.0  0.46653  0.01463  0.55725  1.0000
  Fe  Fe118     1.0  0.40175  0.04663  0.53356  1.0000
  S   S237      1.0  0.40874  0.07173  0.50894  1.0000
  S   S238      1.0  0.36991  0.04288  0.54707  1.0000
  Fe  Fe119     1.0  0.43552  0.04970  0.49877  1.0000
  H   H721      1.0  0.42509  0.00020  0.56712  1.0000
  Fe  Fe120     1.0  0.42801  0.07866  0.52820  1.0000
  S   S239      1.0  0.43088  0.11026  0.53008  1.0000
  S   S240      1.0  0.42697  0.02373  0.52169  1.0000
  S   S241      1.0  0.41888  0.05558  0.55362  1.0000
  Fe  Fe121     1.0  0.55742  0.05591  0.55596  1.0000
  S   S242      1.0  0.55847  0.03853  0.53186  1.0000
  S   S243      1.0  0.52694  0.06702  0.57200  1.0000
  Fe  Fe122     1.0  0.60230  0.05555  0.54811  1.0000
  S   S244      1.0  0.60716  0.03838  0.52297  1.0000
  S   S245      1.0  0.35427  0.13648  0.68823  1.0000
  Fe  Fe123     1.0  0.57970  0.05862  0.51427  1.0000
  S   S246      1.0  0.62981  0.06104  0.55788  1.0000
  Fe  Fe124     1.0  0.58557  0.01963  0.54263  1.0000
  S   S247      1.0  0.57684  0.07783  0.53756  1.0000
  S   S248      1.0  0.58259  0.03506  0.56865  1.0000
  C   C725      1.0  0.65301  0.16463  0.69330  1.0000
  S   S249      1.0  0.36889  0.15735  0.59106  1.0000
  H   H722      1.0  0.37134  0.04621  0.60125  1.0000
  H   H723      1.0  0.59647  0.19581  0.66921  1.0000
  S   S250      1.0  0.34869  0.06822  0.63218  1.0000
  C   C726      1.0  0.50461  0.10009  0.53379  1.0000
  S   S251      1.0  0.64856  0.13257  0.63587  1.0000
  S   S252      1.0  0.36374  0.11732  0.63810  1.0000
  C   C727      1.0  0.64717  0.18232  0.68087  1.0000
  C   C728      1.0  0.38333  0.18672  0.70176  1.0000
  C   C729      1.0  0.37533  0.18945  0.68435  1.0000
  C   C730      1.0  0.36566  0.17463  0.68028  1.0000
  C   C731      1.0  0.36385  0.15687  0.69363  1.0000
  Fe  Fe125     1.0  0.34247  0.13340  0.66083  1.0000
  H   H724      1.0  0.37702  0.20291  0.67371  1.0000
  H   H725      1.0  0.36001  0.17674  0.66664  1.0000
  C   C732      1.0  0.38721  0.04033  0.60042  1.0000
  C   C733      1.0  0.41240  0.18055  0.64382  1.0000
  C   C734      1.0  0.63786  0.19967  0.68898  1.0000
  H   H726      1.0  0.57821  0.22191  0.68941  1.0000
  S   S253      1.0  0.39718  0.20494  0.70514  1.0000
  S   S254      1.0  0.32643  0.12360  0.61345  1.0000
  H   H727      1.0  0.33894  0.13096  0.57245  1.0000
  C   C735      1.0  0.34804  0.09115  0.57353  1.0000
  C   C736      1.0  0.35060  0.01443  0.57250  1.0000
  H   H728      1.0  0.33171  0.00178  0.63237  1.0000
  C   C737      1.0  0.41469  0.12221  0.54857  1.0000
  C   C738      1.0  0.40327  0.11161  0.56458  1.0000
  C   C739      1.0  0.38962  0.12211  0.57834  1.0000
  C   C740      1.0  0.38727  0.14318  0.57585  1.0000
  C   C741      1.0  0.39906  0.15357  0.56015  1.0000
  C   C742      1.0  0.41278  0.14313  0.54665  1.0000
  H   H729      1.0  0.40481  0.09543  0.56625  1.0000
  H   H730      1.0  0.38061  0.11402  0.59055  1.0000
  H   H731      1.0  0.39732  0.16982  0.55819  1.0000
  H   H732      1.0  0.42159  0.15139  0.53439  1.0000
  C   C743      1.0  0.36699  0.01804  0.55769  1.0000
  H   H733      1.0  0.60825  0.13305  0.56232  1.0000
  H   H734      1.0  0.33962  0.02691  0.57710  1.0000
  H   H735      1.0  0.47311  0.11132  0.53387  1.0000
  H   H736      1.0  0.53562  0.08639  0.53021  1.0000
  C   C744      1.0  0.39503  0.02209  0.59362  1.0000
  Fe  Fe126     1.0  0.34976  0.14114  0.61642  1.0000
  C   C745      1.0  0.34907  0.12665  0.55959  1.0000
  C   C746      1.0  0.48296  0.02897  0.56235  1.0000
  C   C747      1.0  0.47659  0.04932  0.56399  1.0000
  C   C748      1.0  0.48988  0.06077  0.56785  1.0000
  C   C749      1.0  0.50978  0.05211  0.56928  1.0000
  C   C750      1.0  0.51607  0.03174  0.56775  1.0000
  C   C751      1.0  0.50260  0.02012  0.56457  1.0000
  H   H737      1.0  0.46141  0.05624  0.56240  1.0000
  H   H738      1.0  0.48486  0.07643  0.56926  1.0000
  H   H739      1.0  0.53133  0.02487  0.56917  1.0000
  H   H740      1.0  0.50757  0.00438  0.56336  1.0000
  C   C752      1.0  0.36852  0.10148  0.54174  1.0000
  H   H741      1.0  0.55745  0.03602  0.49276  1.0000
  H   H742      1.0  0.37360  0.08575  0.54040  1.0000
  S   S255      1.0  0.64948  0.18303  0.65535  1.0000
  C   C753      1.0  0.33155  0.05100  0.63567  1.0000
  C   C754      1.0  0.59344  0.19218  0.68509  1.0000
  H   H743      1.0  0.63827  0.08478  0.63964  1.0000
  C   C755      1.0  0.39997  0.05094  0.60607  1.0000
  S   S256      1.0  0.58912  0.98653  0.54204  1.0000
  H   H744      1.0  0.60556  0.10099  0.55197  1.0000
  N   N60       1.0  0.59401  0.99301  0.48126  1.0000
  H   H745      1.0  0.60871  0.16184  0.68543  1.0000
  C   C756      1.0  0.58340  0.20684  0.69642  1.0000
  C   C757      1.0  0.37046  0.13649  0.52910  1.0000
  C   C758      1.0  0.63362  0.19915  0.70943  1.0000
  C   C759      1.0  0.34865  0.99471  0.58181  1.0000
  C   C760      1.0  0.48608  0.09467  0.51006  1.0000
  H   H746      1.0  0.64128  0.03660  0.59478  1.0000
  H   H747      1.0  0.35523  0.22763  0.70607  1.0000
  C   C761      1.0  0.42785  0.02532  0.59712  1.0000
  C   C762      1.0  0.50192  0.07385  0.48460  1.0000
  C   C763      1.0  0.63431  0.12051  0.57586  1.0000
  H   H748      1.0  0.61597  0.03138  0.60208  1.0000
  S   S257      1.0  0.63590  0.14313  0.58345  1.0000
  H   H749      1.0  0.47195  0.09690  0.50470  1.0000
  C   C764      1.0  0.62846  0.03601  0.60719  1.0000
  H   H750      1.0  0.64456  0.05017  0.63211  1.0000
  C   C765      1.0  0.60197  0.00709  0.48743  1.0000
  C   C766      1.0  0.41376  0.13558  0.68344  1.0000
  C   C767      1.0  0.60039  0.17293  0.69439  1.0000
  H   H751      1.0  0.60128  0.00694  0.50295  1.0000
  H   H752      1.0  0.61617  0.99479  0.56573  1.0000
  C   C768      1.0  0.38082  0.16935  0.71545  1.0000
  C   C769      1.0  0.35666  0.14177  0.54536  1.0000
  C   C770      1.0  0.42046  0.04343  0.60440  1.0000
  C   C771      1.0  0.32580  0.01704  0.63481  1.0000
  C   C772      1.0  0.64702  0.08540  0.57358  1.0000
  H   H753      1.0  0.38242  0.24625  0.70486  1.0000
  C   C773      1.0  0.63302  0.06103  0.62590  1.0000
  N   N61       1.0  0.50294  0.08365  0.50108  1.0000
  C   C774      1.0  0.38131  0.00186  0.55214  1.0000
  H   H754      1.0  0.49986  0.05793  0.49008  1.0000
  C   C775      1.0  0.61754  0.10163  0.55962  1.0000
  C   C776      1.0  0.63157  0.08443  0.56367  1.0000
  H   H755      1.0  0.41497  0.14406  0.69504  1.0000
  C   C777      1.0  0.64904  0.16420  0.71374  1.0000
  N   N62       1.0  0.40943  0.14929  0.66559  1.0000
  C   C778      1.0  0.52059  0.08068  0.50815  1.0000
  S   S258      1.0  0.57685  0.07195  0.48298  1.0000
  H   H756      1.0  0.63327  0.02422  0.61925  1.0000
  H   H757      1.0  0.42799  0.12519  0.68014  1.0000
  C   C779      1.0  0.39923  0.14352  0.65330  1.0000
  H   H758      1.0  0.39367  0.12923  0.65712  1.0000
  C   C780      1.0  0.39522  0.15624  0.63602  1.0000
  N   N63       1.0  0.41511  0.01483  0.59198  1.0000
  C   C781      1.0  0.37112  0.15454  0.71139  1.0000
  C   C782      1.0  0.61906  0.11973  0.56553  1.0000
  H   H759      1.0  0.39385  0.00445  0.54061  1.0000
  C   C783      1.0  0.41623  0.16743  0.66095  1.0000
  C   C784      1.0  0.33893  0.03104  0.63274  1.0000
  H   H760      1.0  0.50524  0.10597  0.54689  1.0000
  H   H761      1.0  0.38754  0.11206  0.51486  1.0000
  C   C785      1.0  0.37637  0.11625  0.52719  1.0000
  C   C786      1.0  0.48664  0.10299  0.52656  1.0000
  H   H762      1.0  0.61613  0.03378  0.47887  1.0000
  H   H763      1.0  0.41737  0.19512  0.64045  1.0000
  H   H764      1.0  0.40138  0.12661  0.68964  1.0000
  H   H765      1.0  0.42410  0.17213  0.67082  1.0000
  H   H766      1.0  0.61741  0.14041  0.71430  1.0000
  C   C787      1.0  0.62936  0.08058  0.63035  1.0000
  H   H767      1.0  0.33211  0.09563  0.58005  1.0000
  C   C788      1.0  0.64824  0.10327  0.57989  1.0000
  N   N64       1.0  0.62258  0.05580  0.61350  1.0000
  C   C789      1.0  0.60786  0.06951  0.60577  1.0000
  H   H768      1.0  0.39851  0.18489  0.61805  1.0000
  C   C790      1.0  0.60361  0.08915  0.61007  1.0000
  C   C791      1.0  0.52171  0.08898  0.52447  1.0000
  C   C792      1.0  0.61465  0.09477  0.62223  1.0000
  H   H769      1.0  0.63341  0.21343  0.67942  1.0000
  H   H770      1.0  0.59999  0.06558  0.59544  1.0000
  H   H771      1.0  0.35252  0.15742  0.54742  1.0000
  H   H772      1.0  0.59250  0.10019  0.60326  1.0000
  C   C793      1.0  0.40180  0.17487  0.63131  1.0000
  H   H773      1.0  0.61215  0.11020  0.62495  1.0000
  H   H774      1.0  0.53393  0.07174  0.50126  1.0000
  H   H775      1.0  0.41263  0.98519  0.58834  1.0000
  C   C794      1.0  0.56003  0.04040  0.47707  1.0000
  H   H776      1.0  0.38494  0.01381  0.58956  1.0000
  H   H777      1.0  0.37706  0.14801  0.51832  1.0000
  N   N65       1.0  0.35502  0.10679  0.55769  1.0000
  C   C795      1.0  0.42304  0.99646  0.58337  1.0000
  Fe  Fe127     1.0  0.33878  0.10072  0.63710  1.0000
  H   H778      1.0  0.43063  0.05173  0.60837  1.0000
  H   H779      1.0  0.39392  0.06498  0.61164  1.0000
  H   H780      1.0  0.38685  0.15181  0.62642  1.0000
  H   H781      1.0  0.33621  0.99212  0.59350  1.0000
  H   H782      1.0  0.44388  0.01987  0.59534  1.0000
  H   H783      1.0  0.43788  0.98937  0.58745  1.0000
  S   S259      1.0  0.32995  0.15856  0.63896  1.0000
  H   H784      1.0  0.35489  0.02623  0.62904  1.0000
  H   H785      1.0  0.34901  0.07668  0.56814  1.0000
  H   H786      1.0  0.35735  0.08849  0.58528  1.0000
  H   H787      1.0  0.62596  0.21243  0.71553  1.0000
  H   H788      1.0  0.33282  0.99320  0.54484  1.0000
  N   N66       1.0  0.59762  0.16850  0.71441  1.0000
  H   H789      1.0  0.41317  0.03017  0.47673  1.0000
  C   C796      1.0  0.63893  0.18130  0.72188  1.0000
  H   H790      1.0  0.57180  0.98568  0.50582  1.0000
  C   C797      1.0  0.37919  0.98213  0.56122  1.0000
  H   H791      1.0  0.48917  0.08147  0.47699  1.0000
  C   C798      1.0  0.58040  0.20212  0.71683  1.0000
  H   H792      1.0  0.39278  0.27587  0.71319  1.0000
  C   C799      1.0  0.37283  0.25413  0.71611  1.0000
  C   C800      1.0  0.32368  0.98126  0.54869  1.0000
  C   C801      1.0  0.37873  0.27094  0.72064  1.0000
  H   H793      1.0  0.36967  0.14094  0.72190  1.0000
  C   C802      1.0  0.35005  0.22922  0.72177  1.0000
  H   H794      1.0  0.65474  0.17718  0.56090  1.0000
  C   C803      1.0  0.60480  0.14822  0.72401  1.0000
  H   H795      1.0  0.65336  0.15039  0.72331  1.0000
  H   H796      1.0  0.32913  0.98192  0.70546  1.0000
  C   C804      1.0  0.32462  0.42937  0.89867  1.0000
  Fe  Fe128     1.0  0.46183  0.12258  0.87303  1.0000
  S   S260      1.0  0.48266  0.09845  0.85831  1.0000
  S   S261      1.0  0.42883  0.12890  0.87200  1.0000
  Fe  Fe129     1.0  0.49316  0.12941  0.89503  1.0000
  S   S262      1.0  0.51647  0.10572  0.88236  1.0000
  S   S263      1.0  0.50135  0.14602  0.91627  1.0000
  Fe  Fe130     1.0  0.50533  0.11928  0.85430  1.0000
  S   S264      1.0  0.52863  0.12452  0.82750  1.0000
  Fe  Fe131     1.0  0.49176  0.08723  0.88783  1.0000
  S   S265      1.0  0.49442  0.05515  0.90340  1.0000
  S   S266      1.0  0.48356  0.14453  0.86647  1.0000
  S   S267      1.0  0.46924  0.10983  0.90296  1.0000
  N   N67       1.0  0.57800  0.29889  0.78171  1.0000
  Fe  Fe132     1.0  0.40270  0.43028  0.92842  1.0000
  S   S268      1.0  0.41324  0.41532  0.95660  1.0000
  S   S269      1.0  0.37917  0.41478  0.92178  1.0000
  H   H797      1.0  0.44707  0.03084  0.83134  1.0000
  Fe  Fe133     1.0  0.44309  0.42338  0.94159  1.0000
  S   S270      1.0  0.47168  0.40258  0.94615  1.0000
  S   S271      1.0  0.39376  0.46071  0.93786  1.0000
  S   S272      1.0  0.43334  0.43622  0.91258  1.0000
  Fe  Fe134     1.0  0.56707  0.45031  0.91881  1.0000
  H   H798      1.0  0.48094  0.45996  0.93822  1.0000
  H   H799      1.0  0.51516  0.07813  0.95193  1.0000
  C   C805      1.0  0.42975  0.36861  0.95118  1.0000
  Fe  Fe135     1.0  0.42548  0.46533  0.92503  1.0000
  Fe  Fe136     1.0  0.60950  0.45930  0.91505  1.0000
  H   H800      1.0  0.49588  0.01005  0.95436  1.0000
  S   S273      1.0  0.59684  0.43085  0.91964  1.0000
  Fe  Fe137     1.0  0.58810  0.20808  0.80342  1.0000
  S   S274      1.0  0.58134  0.19957  0.77656  1.0000
  S   S275      1.0  0.57570  0.19318  0.83345  1.0000
  Fe  Fe138     1.0  0.60965  0.24245  0.78103  1.0000
  S   S276      1.0  0.62525  0.26882  0.78223  1.0000
  Fe  Fe139     1.0  0.57310  0.23255  0.76727  1.0000
  H   H801      1.0  0.57996  0.41932  0.87971  1.0000
  S   S277      1.0  0.57757  0.24105  0.79521  1.0000
  S   S278      1.0  0.62054  0.20982  0.79130  1.0000
  S   S279      1.0  0.42875  0.21894  0.77751  1.0000
  S   S280      1.0  0.38866  0.22252  0.75689  1.0000
  Fe  Fe140     1.0  0.41288  0.24072  0.75544  1.0000
  H   H802      1.0  0.57282  0.21350  0.72577  1.0000
  Fe  Fe141     1.0  0.40600  0.19970  0.77714  1.0000
  S   S281      1.0  0.38775  0.18702  0.80515  1.0000
  Fe  Fe142     1.0  0.35181  0.36828  0.84456  1.0000
  S   S282      1.0  0.34761  0.33702  0.85978  1.0000
  S   S283      1.0  0.37986  0.38158  0.84349  1.0000
  H   H803      1.0  0.50207  0.25552  0.75367  1.0000
  H   H804      1.0  0.34023  0.28127  0.75748  1.0000
  H   H805      1.0  0.44182  0.36988  0.90182  1.0000
  S   S284      1.0  0.35142  0.35355  0.96837  1.0000
  C   C806      1.0  0.64859  0.29669  0.81696  1.0000
  C   C807      1.0  0.55950  0.29310  0.78485  1.0000
  H   H806      1.0  0.64644  0.43802  0.94363  1.0000
  Fe  Fe143     1.0  0.44621  0.20470  0.75188  1.0000
  C   C808      1.0  0.38735  0.28302  0.77543  1.0000
  C   C809      1.0  0.37233  0.27153  0.78459  1.0000
  C   C810      1.0  0.35639  0.27924  0.79832  1.0000
  C   C811      1.0  0.35557  0.29830  0.80337  1.0000
  C   C812      1.0  0.37052  0.30986  0.79415  1.0000
  C   C813      1.0  0.38626  0.30231  0.78006  1.0000
  H   H807      1.0  0.37301  0.25667  0.78113  1.0000
  H   H808      1.0  0.34488  0.27021  0.80541  1.0000
  H   H809      1.0  0.37003  0.32456  0.79796  1.0000
  H   H810      1.0  0.39777  0.31134  0.77294  1.0000
  C   C814      1.0  0.52330  0.19930  0.80411  1.0000
  H   H811      1.0  0.63905  0.30260  0.94083  1.0000
  C   C815      1.0  0.40403  0.25235  0.81642  1.0000
  H   H812      1.0  0.33024  0.44156  0.88806  1.0000
  H   H813      1.0  0.54233  0.12725  0.89805  1.0000
  H   H814      1.0  0.40564  0.36692  0.90663  1.0000
  C   C816      1.0  0.64655  0.28418  0.83517  1.0000
  H   H815      1.0  0.58004  0.38163  0.94812  1.0000
  H   H816      1.0  0.64652  0.41610  0.91939  1.0000
  H   H817      1.0  0.58397  0.39677  0.86867  1.0000
  Fe  Fe144     1.0  0.57551  0.47792  0.94363  1.0000
  H   H818      1.0  0.44347  0.06845  0.83094  1.0000
  C   C817      1.0  0.38064  0.40542  0.89981  1.0000
  C   C818      1.0  0.36679  0.39305  0.89920  1.0000
  C   C819      1.0  0.36654  0.38587  0.88195  1.0000
  C   C820      1.0  0.38047  0.39057  0.86518  1.0000
  C   C821      1.0  0.39488  0.40241  0.86586  1.0000
  C   C822      1.0  0.39493  0.40992  0.88316  1.0000
  H   H819      1.0  0.35617  0.38892  0.91213  1.0000
  H   H820      1.0  0.35562  0.37657  0.88162  1.0000
  H   H821      1.0  0.40576  0.40604  0.85289  1.0000
  H   H822      1.0  0.40578  0.41936  0.88351  1.0000
  C   C823      1.0  0.49235  0.41407  0.93368  1.0000
  C   C824      1.0  0.50877  0.41336  0.94295  1.0000
  C   C825      1.0  0.52507  0.42305  0.93313  1.0000
  C   C826      1.0  0.52521  0.43290  0.91381  1.0000
  C   C827      1.0  0.50903  0.43311  0.90442  1.0000
  C   C828      1.0  0.49243  0.42411  0.91446  1.0000
  H   H823      1.0  0.56147  0.40274  0.88584  1.0000
  H   H824      1.0  0.53755  0.42272  0.94046  1.0000
  H   H825      1.0  0.47988  0.42453  0.90717  1.0000
  C   C829      1.0  0.41862  0.14550  0.85292  1.0000
  C   C830      1.0  0.43051  0.15414  0.83600  1.0000
  C   C831      1.0  0.42125  0.16693  0.82100  1.0000
  C   C832      1.0  0.40024  0.17108  0.82311  1.0000
  C   C833      1.0  0.38857  0.16252  0.84007  1.0000
  C   C834      1.0  0.39770  0.14973  0.85483  1.0000
  H   H826      1.0  0.44669  0.15082  0.83448  1.0000
  H   H827      1.0  0.43021  0.17347  0.80780  1.0000
  H   H828      1.0  0.37236  0.16565  0.84175  1.0000
  H   H829      1.0  0.38847  0.14308  0.86783  1.0000
  C   C835      1.0  0.54238  0.14283  0.82977  1.0000
  C   C836      1.0  0.55939  0.14659  0.81588  1.0000
  C   C837      1.0  0.56974  0.16204  0.81695  1.0000
  C   C838      1.0  0.56297  0.17385  0.83182  1.0000
  C   C839      1.0  0.54616  0.16989  0.84587  1.0000
  C   C840      1.0  0.53598  0.15432  0.84492  1.0000
  H   H830      1.0  0.56454  0.13757  0.80426  1.0000
  H   H831      1.0  0.58316  0.16455  0.80649  1.0000
  H   H832      1.0  0.54093  0.17896  0.85743  1.0000
  H   H833      1.0  0.52311  0.15134  0.85588  1.0000
  C   C841      1.0  0.49847  0.03742  0.88749  1.0000
  C   C842      1.0  0.50441  0.04294  0.86733  1.0000
  C   C843      1.0  0.50634  0.02893  0.85465  1.0000
  C   C844      1.0  0.49486  0.01773  0.89497  1.0000
  H   H834      1.0  0.50757  0.05800  0.86150  1.0000
  H   H835      1.0  0.51084  0.03331  0.83904  1.0000
  C   C845      1.0  0.58963  0.29984  0.76349  1.0000
  C   C846      1.0  0.50883  0.12854  0.93607  1.0000
  C   C847      1.0  0.51475  0.13486  0.95157  1.0000
  H   H836      1.0  0.43659  0.36950  0.96355  1.0000
  C   C848      1.0  0.33634  0.34822  0.91713  1.0000
  C   C849      1.0  0.51518  0.09393  0.95187  1.0000
  C   C850      1.0  0.50900  0.10808  0.93632  1.0000
  H   H837      1.0  0.51461  0.15071  0.95141  1.0000
  H   H838      1.0  0.47290  0.03181  0.83272  1.0000
  C   C851      1.0  0.39209  0.23718  0.82216  1.0000
  H   H839      1.0  0.39654  0.22314  0.81628  1.0000
  S   S285      1.0  0.43751  0.45264  0.95277  1.0000
  H   H840      1.0  0.52325  0.19896  0.81993  1.0000
  H   H841      1.0  0.52082  0.21520  0.79675  1.0000
  H   H842      1.0  0.47638  0.23504  0.75200  1.0000
  H   H843      1.0  0.48410  0.21273  0.80762  1.0000
  C   C852      1.0  0.52627  0.23047  0.75461  1.0000
  Fe  Fe145     1.0  0.61296  0.20419  0.76326  1.0000
  H   H844      1.0  0.53847  0.19244  0.79749  1.0000
  H   H845      1.0  0.50182  0.14334  0.79270  1.0000
  H   H846      1.0  0.61090  0.44851  0.87584  1.0000
  S   S286      1.0  0.43216  0.22804  0.72946  1.0000
  C   C853      1.0  0.60820  0.38508  0.89482  1.0000
  C   C854      1.0  0.57789  0.40324  0.88237  1.0000
  H   H847      1.0  0.50871  0.40562  0.95784  1.0000
  H   H848      1.0  0.61339  0.42292  0.85444  1.0000
  N   N68       1.0  0.45119  0.04523  0.85427  1.0000
  C   C855      1.0  0.45271  0.04047  0.87373  1.0000
  C   C856      1.0  0.44432  0.06455  0.84644  1.0000
  C   C857      1.0  0.44737  0.05525  0.88588  1.0000
  C   C858      1.0  0.43840  0.07961  0.85826  1.0000
  C   C859      1.0  0.44005  0.07491  0.87809  1.0000
  C   C860      1.0  0.45785  0.02985  0.84144  1.0000
  H   H849      1.0  0.45836  0.02524  0.87992  1.0000
  C   C861      1.0  0.49649  0.00381  0.88223  1.0000
  H   H850      1.0  0.44931  0.05158  0.90114  1.0000
  H   H851      1.0  0.43295  0.09496  0.85206  1.0000
  H   H852      1.0  0.43596  0.08657  0.88732  1.0000
  H   H853      1.0  0.65435  0.34237  0.96554  1.0000
  C   C862      1.0  0.61870  0.37633  0.91020  1.0000
  C   C863      1.0  0.56397  0.28894  0.75094  1.0000
  N   N69       1.0  0.56105  0.14999  0.88932  1.0000
  C   C864      1.0  0.55547  0.13211  0.88835  1.0000
  C   C865      1.0  0.57728  0.15647  0.87675  1.0000
  C   C866      1.0  0.56626  0.12017  0.87450  1.0000
  C   C867      1.0  0.58850  0.14482  0.86284  1.0000
  C   C868      1.0  0.58281  0.12665  0.86162  1.0000
  C   C869      1.0  0.54863  0.16281  0.90304  1.0000
  H   H854      1.0  0.58118  0.17109  0.87678  1.0000
  H   H855      1.0  0.60085  0.15044  0.85239  1.0000
  H   H856      1.0  0.59088  0.11789  0.85038  1.0000
  H   H857      1.0  0.54419  0.15364  0.91753  1.0000
  H   H858      1.0  0.55667  0.17453  0.90541  1.0000
  H   H859      1.0  0.53470  0.17028  0.89725  1.0000
  Fe  Fe146     1.0  0.40651  0.44599  0.96482  1.0000
  H   H860      1.0  0.40665  0.28260  0.81889  1.0000
  C   C870      1.0  0.52104  0.10014  0.96738  1.0000
  H   H861      1.0  0.61074  0.14898  0.73741  1.0000
  C   C871      1.0  0.43292  0.36888  0.91641  1.0000
  H   H862      1.0  0.34672  0.27520  0.86202  1.0000
  H   H863      1.0  0.49782  0.46049  0.96593  1.0000
  C   C872      1.0  0.44160  0.36950  0.93255  1.0000
  H   H864      1.0  0.58565  0.17922  0.74148  1.0000
  S   S287      1.0  0.60620  0.46075  0.94707  1.0000
  H   H865      1.0  0.47577  0.47085  0.90593  1.0000
  C   C873      1.0  0.63904  0.29741  0.92680  1.0000
  C   C874      1.0  0.55215  0.28819  0.76950  1.0000
  H   H866      1.0  0.45920  0.01437  0.84995  1.0000
  C   C875      1.0  0.50254  0.01410  0.96554  1.0000
  C   C876      1.0  0.50630  0.23949  0.75369  1.0000
  H   H867      1.0  0.53366  0.04481  0.97115  1.0000
  H   H868      1.0  0.58921  0.28879  0.80836  1.0000
  H   H869      1.0  0.51733  0.03695  0.94572  1.0000
  H   H870      1.0  0.36453  0.22876  0.83902  1.0000
  S   S288      1.0  0.34001  0.36585  0.81753  1.0000
  S   S289      1.0  0.42447  0.18324  0.75331  1.0000
  S   S290      1.0  0.54529  0.44513  0.90100  1.0000
  C   C877      1.0  0.51262  0.16930  0.79752  1.0000
  C   C878      1.0  0.63349  0.27417  0.80287  1.0000
  H   H871      1.0  0.34351  0.34907  0.90197  1.0000
  Fe  Fe147     1.0  0.33335  0.33563  0.83400  1.0000
  C   C879      1.0  0.36672  0.28097  0.73532  1.0000
  S   S291      1.0  0.64801  0.33988  0.87568  1.0000
  C   C880      1.0  0.50201  0.00949  0.86205  1.0000
  S   S292      1.0  0.63167  0.17914  0.74759  1.0000
  H   H872      1.0  0.32952  0.41838  0.95603  1.0000
  H   H873      1.0  0.59236  0.13919  0.72812  1.0000
  N   N70       1.0  0.50767  0.18850  0.80170  1.0000
  C   C881      1.0  0.48803  0.19747  0.80444  1.0000
  H   H874      1.0  0.54685  0.20259  0.75516  1.0000
  H   H875      1.0  0.53765  0.28318  0.77207  1.0000
  H   H876      1.0  0.56148  0.10627  0.87339  1.0000
  H   H877      1.0  0.38675  0.16706  0.72897  1.0000
  C   C882      1.0  0.58561  0.30309  0.79832  1.0000
  H   H878      1.0  0.55865  0.28454  0.73909  1.0000
  H   H879      1.0  0.59241  0.29488  0.73364  1.0000
  H   H880      1.0  0.45726  0.19446  0.80473  1.0000
  S   S293      1.0  0.60430  0.23701  0.75181  1.0000
  H   H881      1.0  0.52812  0.16214  0.79523  1.0000
  H   H882      1.0  0.64714  0.27647  0.89737  1.0000
  C   C883      1.0  0.53157  0.20975  0.75449  1.0000
  N   N71       1.0  0.40966  0.36773  0.95356  1.0000
  C   C884      1.0  0.47277  0.18722  0.80288  1.0000
  C   C885      1.0  0.63122  0.26179  0.82113  1.0000
  H   H883      1.0  0.62459  0.24829  0.82289  1.0000
  C   C886      1.0  0.51708  0.19826  0.75312  1.0000
  H   H884      1.0  0.50922  0.44042  0.88938  1.0000
  H   H885      1.0  0.56216  0.39720  0.92037  1.0000
  C   C887      1.0  0.33794  0.34905  0.95121  1.0000
  S   S294      1.0  0.40738  0.27386  0.75786  1.0000
  S   S295      1.0  0.54420  0.24564  0.75547  1.0000
  C   C888      1.0  0.34833  0.26180  0.85471  1.0000
  C   C889      1.0  0.47772  0.16767  0.79854  1.0000
  C   C890      1.0  0.49776  0.15859  0.79594  1.0000
  H   H886      1.0  0.46612  0.15967  0.79689  1.0000
  H   H887      1.0  0.50427  0.10306  0.92457  1.0000
  H   H888      1.0  0.61630  0.38628  0.87990  1.0000
  H   H889      1.0  0.53891  0.98644  0.88684  1.0000
  S   S296      1.0  0.47936  0.19216  0.75083  1.0000
  H   H890      1.0  0.49017  0.01348  0.91056  1.0000
  C   C891      1.0  0.58796  0.38210  0.93313  1.0000
  S   S297      1.0  0.64521  0.39172  0.84290  1.0000
  H   H891      1.0  0.63469  0.37097  0.90717  1.0000
  C   C892      1.0  0.58286  0.29476  0.74788  1.0000
  H   H892      1.0  0.33853  0.43478  0.92150  1.0000
  S   S298      1.0  0.63981  0.45780  0.89605  1.0000
  Fe  Fe148     1.0  0.59160  0.43326  0.95144  1.0000
  C   C893      1.0  0.40111  0.36685  0.93785  1.0000
  C   C894      1.0  0.49171  0.22792  0.75273  1.0000
  C   C895      1.0  0.49709  0.20727  0.75228  1.0000
  H   H893      1.0  0.59968  0.30975  0.79348  1.0000
  H   H894      1.0  0.38516  0.36645  0.93971  1.0000
  H   H895      1.0  0.61659  0.36871  0.94159  1.0000
  N   N72       1.0  0.58811  0.39233  0.89853  1.0000
  C   C896      1.0  0.39787  0.27043  0.82382  1.0000
  C   C897      1.0  0.51475  0.02905  0.96067  1.0000
  S   S299      1.0  0.50266  0.99288  0.84574  1.0000
  H   H896      1.0  0.37457  0.28764  0.84174  1.0000
  C   C898      1.0  0.64214  0.29167  0.80093  1.0000
  H   H897      1.0  0.63568  0.31098  0.91581  1.0000
  N   N73       1.0  0.36800  0.25826  0.84223  1.0000
  C   C899      1.0  0.64438  0.41110  0.85635  1.0000
  C   C900      1.0  0.37970  0.27316  0.83680  1.0000
  C   C901      1.0  0.62497  0.43868  0.87245  1.0000
  C   C902      1.0  0.64178  0.44059  0.87994  1.0000
  C   C903      1.0  0.58761  0.18272  0.72563  1.0000
  S   S300      1.0  0.56043  0.45033  0.95119  1.0000
  Fe  Fe149     1.0  0.40893  0.20765  0.73272  1.0000
  C   C904      1.0  0.34926  0.27389  0.74559  1.0000
  C   C905      1.0  0.62638  0.42422  0.86034  1.0000
  C   C906      1.0  0.41262  0.36726  0.91909  1.0000
  H   H898      1.0  0.36257  0.35234  0.92719  1.0000
  C   C907      1.0  0.34711  0.35003  0.93150  1.0000
  C   C908      1.0  0.37396  0.24045  0.83508  1.0000
  C   C909      1.0  0.57794  0.39088  0.91739  1.0000
  C   C910      1.0  0.34393  0.25688  0.74085  1.0000
  C   C911      1.0  0.49217  0.46970  0.93622  1.0000
  H   H899      1.0  0.52135  0.18230  0.75270  1.0000
  C   C912      1.0  0.60851  0.37494  0.92947  1.0000
  H   H900      1.0  0.33631  0.26473  0.84558  1.0000
  N   N74       1.0  0.35550  0.24744  0.72605  1.0000
  H   H901      1.0  0.55050  0.29183  0.79938  1.0000
  C   C913      1.0  0.39704  0.36764  0.97295  1.0000
  H   H902      1.0  0.57435  0.31374  0.80645  1.0000
  H   H903      1.0  0.41770  0.25037  0.80577  1.0000
  H   H904      1.0  0.64401  0.30134  0.78688  1.0000
  H   H905      1.0  0.62691  0.28810  0.92927  1.0000
  C   C914      1.0  0.63778  0.26675  0.83714  1.0000
  S   S301      1.0  0.60100  0.40365  0.96980  1.0000
  C   C915      1.0  0.50167  0.46993  0.95198  1.0000
  H   H906      1.0  0.33354  0.22950  0.72483  1.0000
  H   H907      1.0  0.63613  0.25693  0.85111  1.0000
  H   H908      1.0  0.45732  0.37108  0.93064  1.0000
  H   H909      1.0  0.35728  0.21572  0.73079  1.0000
  C   C916      1.0  0.52084  0.12062  0.96731  1.0000
  S   S302      1.0  0.33641  0.30623  0.82227  1.0000
  C   C917      1.0  0.32920  0.42549  0.91765  1.0000
  H   H910      1.0  0.60457  0.30384  0.76109  1.0000
  S   S303      1.0  0.58013  0.47900  0.91103  1.0000
  S   S304      1.0  0.65480  0.28947  0.85584  1.0000
  H   H911      1.0  0.37133  0.29385  0.73916  1.0000
  H   H912      1.0  0.34528  0.39624  0.94810  1.0000
  H   H913      1.0  0.33060  0.25116  0.74923  1.0000
  H   H914      1.0  0.49766  0.47765  0.88918  1.0000
  H   H915      1.0  0.34601  0.24860  0.86630  1.0000
  H   H916      1.0  0.65535  0.31011  0.81518  1.0000
  C   C918      1.0  0.32968  0.40457  0.94989  1.0000
  H   H917      1.0  0.38310  0.37879  0.97196  1.0000
  H   H918      1.0  0.49336  0.98875  0.88792  1.0000
  N   N75       1.0  0.32295  0.40956  0.93082  1.0000
  H   H919      1.0  0.47744  0.11694  0.97414  1.0000
  H   H920      1.0  0.40265  0.64213  0.98835  1.0000
  C   C919      1.0  0.56199  0.94972  0.08151  1.0000
  C   C920      1.0  0.49816  0.61400  0.98434  1.0000
  Fe  Fe150     1.0  0.51536  0.91336  0.02643  1.0000
  S   S305      1.0  0.53909  0.91641  0.99963  1.0000
  S   S306      1.0  0.50701  0.88273  0.03871  1.0000
  Fe  Fe151     1.0  0.55373  0.93101  0.01773  1.0000
  S   S307      1.0  0.58706  0.92481  0.01671  1.0000
  H   H921      1.0  0.56508  0.95890  0.06730  1.0000
  S   S308      1.0  0.53137  0.92576  0.04511  1.0000
  S   S309      1.0  0.49633  0.94300  0.01767  1.0000
  C   C921      1.0  0.63564  0.90638  0.18369  1.0000
  H   H922      1.0  0.60436  0.76768  0.10237  1.0000
  C   C922      1.0  0.61879  0.66192  0.03406  1.0000
  S   S310      1.0  0.63845  0.68074  0.05411  1.0000
  C   C923      1.0  0.38772  0.87848  0.20976  1.0000
  Fe  Fe152     1.0  0.60255  0.87530  0.11897  1.0000
  S   S311      1.0  0.57908  0.85990  0.11286  1.0000
  S   S312      1.0  0.62050  0.89518  0.09608  1.0000
  Fe  Fe153     1.0  0.59864  0.85720  0.16169  1.0000
  S   S313      1.0  0.57435  0.83985  0.15948  1.0000
  S   S314      1.0  0.61148  0.85491  0.18967  1.0000
  Fe  Fe154     1.0  0.59368  0.83280  0.13106  1.0000
  S   S315      1.0  0.59585  0.80309  0.12056  1.0000
  Fe  Fe155     1.0  0.56143  0.86810  0.14127  1.0000
  S   S316      1.0  0.52871  0.88199  0.14144  1.0000
  S   S317      1.0  0.61889  0.84750  0.13479  1.0000
  S   S318      1.0  0.58398  0.88607  0.14593  1.0000
  Fe  Fe156     1.0  0.43354  0.83482  0.13539  1.0000
  S   S319      1.0  0.41749  0.86662  0.13106  1.0000
  S   S320      1.0  0.46477  0.82501  0.14332  1.0000
  Fe  Fe157     1.0  0.40104  0.81801  0.12092  1.0000
  S   S321      1.0  0.38280  0.84865  0.11565  1.0000
  S   S322      1.0  0.39502  0.78914  0.11271  1.0000
  Fe  Fe158     1.0  0.41221  0.85931  0.10295  1.0000
  S   S323      1.0  0.41570  0.88103  0.07472  1.0000
  Fe  Fe159     1.0  0.38959  0.85307  0.14450  1.0000
  S   S324      1.0  0.36379  0.86838  0.16481  1.0000
  S   S325      1.0  0.43017  0.82852  0.10622  1.0000
  S   S326      1.0  0.40589  0.82139  0.15090  1.0000
  C   C924      1.0  0.36798  0.87833  0.18475  1.0000
  H   H923      1.0  0.58470  0.92656  0.11961  1.0000
  C   C925      1.0  0.38586  0.87228  0.19235  1.0000
  S   S327      1.0  0.53856  0.96213  0.00787  1.0000
  H   H924      1.0  0.39802  0.86233  0.18513  1.0000
  C   C926      1.0  0.62244  0.87476  0.19431  1.0000
  C   C927      1.0  0.62630  0.89123  0.17983  1.0000
  C   C928      1.0  0.44516  0.65864  0.99355  1.0000
  H   H925      1.0  0.46137  0.62382  0.03045  1.0000
  H   H926      1.0  0.62223  0.89225  0.16557  1.0000
  C   C929      1.0  0.51083  0.86596  0.14295  1.0000
  C   C930      1.0  0.51666  0.84522  0.14335  1.0000
  C   C931      1.0  0.50229  0.83290  0.14377  1.0000
  C   C932      1.0  0.48199  0.84115  0.14367  1.0000
  C   C933      1.0  0.47611  0.86187  0.14349  1.0000
  C   C934      1.0  0.49050  0.87423  0.14306  1.0000
  H   H927      1.0  0.53225  0.83865  0.14329  1.0000
  H   H928      1.0  0.50695  0.81687  0.14403  1.0000
  H   H929      1.0  0.46047  0.86835  0.14381  1.0000
  H   H930      1.0  0.48584  0.89024  0.14286  1.0000
  C   C935      1.0  0.37855  0.76772  0.09229  1.0000
  C   C936      1.0  0.37728  0.78632  0.09856  1.0000
  H   H931      1.0  0.39001  0.75538  0.09651  1.0000
  H   H932      1.0  0.36106  0.81644  0.09792  1.0000
  C   C937      1.0  0.63619  0.79935  0.10451  1.0000
  C   C938      1.0  0.61825  0.79158  0.10735  1.0000
  Fe  Fe160     1.0  0.51488  0.95564  0.03383  1.0000
  H   H933      1.0  0.63646  0.81296  0.11004  1.0000
  C   C939      1.0  0.46127  0.63683  0.01897  1.0000
  H   H934      1.0  0.54422  0.97646  0.04319  1.0000
  C   C940      1.0  0.59742  0.86374  0.04698  1.0000
  H   H935      1.0  0.63976  0.81679  0.17787  1.0000
  H   H936      1.0  0.60828  0.93968  0.09322  1.0000
  H   H937      1.0  0.59576  0.96536  0.08829  1.0000
  H   H938      1.0  0.63867  0.91895  0.17228  1.0000
  H   H939      1.0  0.61368  0.83665  0.08729  1.0000
  H   H940      1.0  0.36287  0.85415  0.04269  1.0000
  H   H941      1.0  0.40364  0.53201  0.01107  1.0000
  H   H942      1.0  0.48913  0.67260  0.99636  1.0000
  C   C941      1.0  0.38829  0.64759  0.99652  1.0000
  C   C942      1.0  0.38727  0.65957  0.01092  1.0000
  C   C943      1.0  0.36864  0.66722  0.02115  1.0000
  C   C944      1.0  0.35105  0.66253  0.01722  1.0000
  C   C945      1.0  0.35207  0.65033  0.00303  1.0000
  H   H943      1.0  0.61596  0.67900  0.97783  1.0000
  H   H944      1.0  0.40085  0.66324  0.01395  1.0000
  S   S328      1.0  0.32478  0.72059  0.06660  1.0000
  H   H945      1.0  0.34756  0.84079  0.19791  1.0000
  C   C946      1.0  0.47668  0.66415  0.00010  1.0000
  C   C947      1.0  0.34894  0.79928  0.08139  1.0000
  H   H946      1.0  0.49689  0.60034  0.99480  1.0000
  H   H947      1.0  0.52422  0.92781  0.11166  1.0000
  C   C948      1.0  0.48125  0.88205  0.04660  1.0000
  C   C949      1.0  0.47498  0.86391  0.05627  1.0000
  C   C950      1.0  0.45478  0.86340  0.06457  1.0000
  C   C951      1.0  0.44068  0.88095  0.06288  1.0000
  C   C952      1.0  0.44676  0.89887  0.05231  1.0000
  C   C953      1.0  0.46707  0.89948  0.04438  1.0000
  H   H948      1.0  0.48584  0.85030  0.05777  1.0000
  H   H949      1.0  0.45021  0.84942  0.07227  1.0000
  H   H950      1.0  0.43587  0.91246  0.05083  1.0000
  H   H951      1.0  0.47171  0.91348  0.03679  1.0000
  C   C954      1.0  0.59572  0.91681  0.03911  1.0000
  C   C955      1.0  0.61590  0.91693  0.03969  1.0000
  C   C956      1.0  0.62340  0.91019  0.05726  1.0000
  C   C957      1.0  0.61084  0.90294  0.07424  1.0000
  C   C958      1.0  0.59070  0.90261  0.07369  1.0000
  C   C959      1.0  0.58311  0.90970  0.05617  1.0000
  H   H952      1.0  0.62574  0.92232  0.02652  1.0000
  H   H953      1.0  0.63899  0.91052  0.05765  1.0000
  H   H954      1.0  0.58084  0.89730  0.08681  1.0000
  H   H955      1.0  0.56769  0.90909  0.05581  1.0000
  Fe  Fe161     1.0  0.56262  0.62170  0.98013  1.0000
  C   C960      1.0  0.37068  0.64285  0.99266  1.0000
  H   H956      1.0  0.36662  0.75063  0.07555  1.0000
  C   C961      1.0  0.63679  0.66847  0.03470  1.0000
  C   C962      1.0  0.44524  0.64209  0.00852  1.0000
  C   C963      1.0  0.61676  0.84393  0.07175  1.0000
  C   C964      1.0  0.36230  0.80208  0.09313  1.0000
  Fe  Fe162     1.0  0.34110  0.70769  0.03953  1.0000
  C   C965      1.0  0.62792  0.87373  0.21275  1.0000
  C   C966      1.0  0.54283  0.94438  0.08811  1.0000
  H   H957      1.0  0.60333  0.81536  0.18632  1.0000
  H   H958      1.0  0.43310  0.63325  0.01179  1.0000
  C   C967      1.0  0.56506  0.84352  0.06239  1.0000
  H   H959      1.0  0.33668  0.66797  0.02538  1.0000
  Fe  Fe163     1.0  0.60493  0.63025  0.97689  1.0000
  N   N76       1.0  0.40616  0.81397  0.05954  1.0000
  C   C968      1.0  0.39224  0.80860  0.05087  1.0000
  C   C969      1.0  0.40527  0.83361  0.06159  1.0000
  C   C970      1.0  0.37650  0.82295  0.04462  1.0000
  C   C971      1.0  0.38968  0.84832  0.05561  1.0000
  C   C972      1.0  0.37516  0.84291  0.04717  1.0000
  C   C973      1.0  0.42266  0.79876  0.06582  1.0000
  H   H960      1.0  0.39287  0.79303  0.04929  1.0000
  H   H961      1.0  0.41655  0.83805  0.06798  1.0000
  H   H962      1.0  0.36513  0.81845  0.03835  1.0000
  H   H963      1.0  0.38890  0.86381  0.05762  1.0000
  C   C974      1.0  0.63360  0.80580  0.17250  1.0000
  H   H964      1.0  0.41802  0.78361  0.07011  1.0000
  H   H965      1.0  0.43587  0.79831  0.05389  1.0000
  H   H966      1.0  0.42703  0.80205  0.07910  1.0000
  N   N77       1.0  0.48709  0.88126  0.09326  1.0000
  C   C975      1.0  0.49457  0.89866  0.08508  1.0000
  C   C976      1.0  0.46695  0.88168  0.09986  1.0000
  C   C977      1.0  0.48176  0.91713  0.08321  1.0000
  C   C978      1.0  0.45372  0.89988  0.09832  1.0000
  C   C979      1.0  0.46120  0.91768  0.08987  1.0000
  C   C980      1.0  0.50088  0.86212  0.09431  1.0000
  H   H967      1.0  0.51048  0.89817  0.07950  1.0000
  H   H968      1.0  0.46094  0.86786  0.10605  1.0000
  H   H969      1.0  0.48766  0.93087  0.07628  1.0000
  H   H970      1.0  0.43768  0.90006  0.10305  1.0000
  H   H971      1.0  0.45102  0.93181  0.08817  1.0000
  H   H972      1.0  0.49303  0.84921  0.10164  1.0000
  H   H973      1.0  0.50799  0.85932  0.07930  1.0000
  H   H974      1.0  0.51274  0.86259  0.10279  1.0000
  N   N78       1.0  0.47685  0.64765  0.01449  1.0000
  H   H975      1.0  0.40744  0.49221  0.99280  1.0000
  C   C981      1.0  0.55403  0.92592  0.11770  1.0000
  C   C982      1.0  0.63712  0.88901  0.21668  1.0000
  H   H976      1.0  0.58901  0.79103  0.17297  1.0000
  H   H977      1.0  0.55100  0.91658  0.13190  1.0000
  S   S329      1.0  0.34745  0.73750  0.02215  1.0000
  C   C983      1.0  0.36128  0.70711  0.97959  1.0000
  C   C984      1.0  0.37188  0.89101  0.21951  1.0000
  C   C985      1.0  0.41607  0.52653  0.99974  1.0000
  C   C986      1.0  0.46087  0.66986  0.98940  1.0000
  C   C987      1.0  0.63602  0.76359  0.09058  1.0000
  C   C988      1.0  0.57297  0.93166  0.11071  1.0000
  H   H978      1.0  0.63591  0.74972  0.08540  1.0000
  H   H979      1.0  0.65127  0.65408  0.08923  1.0000
  Fe  Fe164     1.0  0.52149  0.94710  0.99233  1.0000
  C   C989      1.0  0.61820  0.77378  0.10023  1.0000
  H   H980      1.0  0.33746  0.81162  0.07723  1.0000
  C   C990      1.0  0.36529  0.76497  0.08042  1.0000
  S   S330      1.0  0.36769  0.68290  0.03847  1.0000
  H   H981      1.0  0.48979  0.93324  0.97686  1.0000
  C   C991      1.0  0.53892  0.93227  0.10630  1.0000
  H   H982      1.0  0.55254  0.83543  0.06852  1.0000
  N   N79       1.0  0.40795  0.52366  0.98291  1.0000
  H   H983      1.0  0.57918  0.88096  0.02597  1.0000
  H   H984      1.0  0.62494  0.86110  0.22410  1.0000
  H   H985      1.0  0.48922  0.64760  0.03983  1.0000
  H   H986      1.0  0.33010  0.73305  0.12016  1.0000
  H   H987      1.0  0.33840  0.64678  0.00003  1.0000
  H   H988      1.0  0.43320  0.66253  0.98485  1.0000
  C   C992      1.0  0.35052  0.78082  0.07475  1.0000
  C   C993      1.0  0.64595  0.79250  0.16069  1.0000
  C   C994      1.0  0.49348  0.64183  0.02565  1.0000
  N   N80       1.0  0.63799  0.77896  0.15367  1.0000
  C   C995      1.0  0.64116  0.90537  0.20208  1.0000
  C   C996      1.0  0.65211  0.65438  0.00512  1.0000
  C   C997      1.0  0.56371  0.85886  0.04632  1.0000
  S   S331      1.0  0.59211  0.60133  0.98259  1.0000
  S   S332      1.0  0.33367  0.77848  0.05945  1.0000
  C   C998      1.0  0.61739  0.65184  0.01880  1.0000
  H   H989      1.0  0.62320  0.85769  0.07171  1.0000
  H   H990      1.0  0.60118  0.94910  0.06977  1.0000
  H   H991      1.0  0.34895  0.82136  0.21912  1.0000
  H   H992      1.0  0.40142  0.87332  0.21580  1.0000
  C   C999      1.0  0.61306  0.80506  0.17722  1.0000
  C   C1000     1.0  0.58004  0.86895  0.03846  1.0000
  H   H993      1.0  0.61140  0.76780  0.15230  1.0000
  S   S333      1.0  0.53303  0.61449  0.99741  1.0000
  C   C1001     1.0  0.58270  0.83866  0.07053  1.0000
  C   C1002     1.0  0.35230  0.89119  0.19429  1.0000
  H   H994      1.0  0.60347  0.64687  0.01836  1.0000
  H   H995      1.0  0.42668  0.53765  0.99513  1.0000
  C   C1003     1.0  0.65334  0.66480  0.02004  1.0000
  H   H996      1.0  0.46123  0.68235  0.97735  1.0000
  C   C1004     1.0  0.59645  0.94973  0.08571  1.0000
  H   H997      1.0  0.37606  0.70065  0.98405  1.0000
  C   C1005     1.0  0.65133  0.76442  0.14222  1.0000
  H   H998      1.0  0.58365  0.82667  0.08301  1.0000
  C   C1006     1.0  0.40435  0.50503  0.98154  1.0000
  C   C1007     1.0  0.63417  0.64788  0.00442  1.0000
  C   C1008     1.0  0.61783  0.77820  0.15819  1.0000
  H   H999      1.0  0.60589  0.66468  0.04535  1.0000
  H   H1000     1.0  0.62806  0.83338  0.06348  1.0000
  C   C1009     1.0  0.64018  0.71743  0.97912  1.0000
  H   H1001     1.0  0.42468  0.51229  0.00628  1.0000
  H   H1002     1.0  0.49768  0.62516  0.02840  1.0000
  C   C1010     1.0  0.60506  0.79130  0.16991  1.0000
  N   N81       1.0  0.57676  0.94329  0.09273  1.0000
  H   H1003     1.0  0.62345  0.69797  0.00146  1.0000
  H   H1004     1.0  0.55006  0.86291  0.03993  1.0000
  H   H1005     1.0  0.33846  0.89597  0.18845  1.0000
  H   H1006     1.0  0.53111  0.94971  0.07921  1.0000
  Fe  Fe165     1.0  0.32910  0.75060  0.04822  1.0000
  S   S334      1.0  0.63357  0.63524  0.98504  1.0000
  H   H1007     1.0  0.36783  0.83772  0.21097  1.0000
  S   S335      1.0  0.57507  0.65045  0.97759  1.0000
  H   H1008     1.0  0.50728  0.64768  0.01734  1.0000
  S   S336      1.0  0.50105  0.97828  0.05374  1.0000
  H   H1009     1.0  0.60996  0.87184  0.04089  1.0000
  N   N82       1.0  0.59842  0.84905  0.06305  1.0000
  C   C1011     1.0  0.62881  0.70188  0.98589  1.0000
  C   C1012     1.0  0.35427  0.89763  0.21154  1.0000
  H   H1010     1.0  0.35726  0.72291  0.98244  1.0000
  H   H1011     1.0  0.64399  0.72552  0.98939  1.0000
  H   H1012     1.0  0.34199  0.90731  0.21889  1.0000
  H   H1013     1.0  0.64322  0.75915  0.13244  1.0000
  C   C1013     1.0  0.65405  0.77112  0.08810  1.0000
  C   C1014     1.0  0.51473  0.62381  0.98244  1.0000
  C   C1015     1.0  0.35154  0.83697  0.21288  1.0000
  C   C1016     1.0  0.65401  0.78914  0.09491  1.0000
  H   H1014     1.0  0.34967  0.69869  0.98908  1.0000
  S   S337      1.0  0.65454  0.92408  0.20526  1.0000
  H   H1015     1.0  0.40779  0.95629  0.29851  1.0000
  S   S338      1.0  0.37405  0.89675  0.24235  1.0000
  S   S339      1.0  0.35810  0.94299  0.26906  1.0000
  S   S340      1.0  0.63418  0.93471  0.30292  1.0000
  Fe  Fe166     1.0  0.34050  0.93211  0.29810  1.0000
  S   S341      1.0  0.35450  0.93038  0.32480  1.0000
  Fe  Fe167     1.0  0.34943  0.91733  0.25870  1.0000
  H   H1016     1.0  0.38091  0.89704  0.30387  1.0000
  C   C1017     1.0  0.65261  0.95828  0.31932  1.0000
  H   H1017     1.0  0.41729  0.94199  0.24013  1.0000
  H   H1018     1.0  0.39258  0.97209  0.34844  1.0000
  S   S342      1.0  0.64671  0.95549  0.24853  1.0000
  H   H1019     1.0  0.61044  0.96850  0.27526  1.0000
  C   C1018     1.0  0.39368  0.89516  0.29155  1.0000
  H   H1020     1.0  0.40650  0.90906  0.25385  1.0000
  C   C1019     1.0  0.40684  0.91934  0.26372  1.0000
  H   H1021     1.0  0.39728  0.92309  0.31163  1.0000
  C   C1020     1.0  0.40773  0.94596  0.28859  1.0000
  C   C1021     1.0  0.40168  0.92720  0.29592  1.0000
  H   H1022     1.0  0.41774  0.96602  0.26250  1.0000
  Fe  Fe168     1.0  0.32864  0.96043  0.26254  1.0000
  H   H1023     1.0  0.64125  0.88802  0.23091  1.0000
  H   H1024     1.0  0.38804  0.88925  0.28035  1.0000
  C   C1022     1.0  0.41329  0.95140  0.26840  1.0000
  H   H1025     1.0  0.40608  0.88396  0.29691  1.0000
  C   C1023     1.0  0.36347  0.95279  0.32479  1.0000
  C   C1024     1.0  0.37553  0.95370  0.33840  1.0000
  C   C1025     1.0  0.35920  0.96960  0.31074  1.0000
  N   N83       1.0  0.40074  0.91443  0.28348  1.0000
  C   C1026     1.0  0.41303  0.93796  0.25586  1.0000
  H   H1026     1.0  0.37895  0.94067  0.34925  1.0000
  C   C1027     1.0  0.63466  0.95197  0.31839  1.0000
  H   H1027     1.0  0.60283  0.95503  0.32903  1.0000
  C   C1028     1.0  0.61674  0.95998  0.32954  1.0000
  C   C1029     1.0  0.33565  0.86639  0.25453  1.0000
  C   C1030     1.0  0.34695  0.85358  0.24170  1.0000
  S   S343      1.0  0.47807  0.97973  0.35761  1.0000
  H   H1028     1.0  0.34169  0.86875  0.26687  1.0000
  C   C1031     1.0  0.38331  0.97142  0.33791  1.0000
  N   N84       1.0  0.33973  0.85102  0.22572  1.0000
  S   S344      1.0  0.33412  0.90479  0.28853  1.0000
  C   C1032     1.0  0.65259  0.97273  0.33102  1.0000
  C   C1033     1.0  0.61665  0.97476  0.34095  1.0000
  H   H1029     1.0  0.36176  0.84612  0.24432  1.0000
  H   H1030     1.0  0.34998  0.96900  0.30018  1.0000
  H   H1031     1.0  0.51897  0.97345  0.36466  1.0000
  H   H1032     1.0  0.35851  0.98044  0.38171  1.0000
  H   H1033     1.0  0.63203  0.92270  0.71828  1.0000
  C   C1034     1.0  0.43271  0.89285  0.70918  1.0000
  C   C1035     1.0  0.60616  0.97088  0.55607  1.0000
  S   S345      1.0  0.36006  0.95358  0.58649  1.0000
  C   C1036     1.0  0.62181  0.93704  0.56759  1.0000
  H   H1034     1.0  0.33245  0.87462  0.70401  1.0000
  H   H1035     1.0  0.40031  0.90540  0.69256  1.0000
  H   H1036     1.0  0.32809  0.93028  0.55813  1.0000
  C   C1037     1.0  0.64065  0.91815  0.68813  1.0000
  C   C1038     1.0  0.34594  0.92098  0.68830  1.0000
  S   S346      1.0  0.33005  0.95695  0.63898  1.0000
  H   H1037     1.0  0.44402  0.85399  0.70502  1.0000
  C   C1039     1.0  0.42112  0.84942  0.69032  1.0000
  H   H1038     1.0  0.39585  0.84929  0.67643  1.0000
  C   C1040     1.0  0.63337  0.94472  0.57780  1.0000
  H   H1039     1.0  0.62672  0.88166  0.66919  1.0000
  C   C1041     1.0  0.58439  0.97801  0.49595  1.0000
  H   H1040     1.0  0.61022  0.95532  0.65468  1.0000
  N   N85       1.0  0.42334  0.88098  0.69931  1.0000
  C   C1042     1.0  0.61779  0.88648  0.69922  1.0000
  C   C1043     1.0  0.63108  0.91362  0.70758  1.0000
  C   C1044     1.0  0.63931  0.90635  0.67440  1.0000
  C   C1045     1.0  0.40641  0.88974  0.69167  1.0000
  H   H1041     1.0  0.36507  0.93377  0.70184  1.0000
  C   C1046     1.0  0.60547  0.94196  0.65206  1.0000
  C   C1047     1.0  0.33641  0.90448  0.68905  1.0000
  C   C1048     1.0  0.58900  0.93664  0.68637  1.0000
  C   C1049     1.0  0.35228  0.88707  0.71706  1.0000
  C   C1050     1.0  0.35811  0.92075  0.70223  1.0000
  H   H1042     1.0  0.39017  0.96964  0.55665  1.0000
  C   C1051     1.0  0.62801  0.89049  0.67997  1.0000
  C   C1052     1.0  0.40374  0.85823  0.68262  1.0000
  H   H1043     1.0  0.59939  0.94398  0.54889  1.0000
  H   H1044     1.0  0.38268  0.88550  0.67753  1.0000
  H   H1045     1.0  0.34341  0.93418  0.67740  1.0000
  H   H1046     1.0  0.60980  0.91454  0.61556  1.0000
  H   H1047     1.0  0.34910  0.95747  0.54772  1.0000
  C   C1053     1.0  0.43080  0.86109  0.69865  1.0000
  H   H1048     1.0  0.61920  0.94569  0.62148  1.0000
  H   H1049     1.0  0.59539  0.96899  0.50512  1.0000
  C   C1054     1.0  0.60827  0.95006  0.55676  1.0000
  C   C1055     1.0  0.33981  0.88744  0.70333  1.0000
  H   H1050     1.0  0.58094  0.90393  0.67569  1.0000
  C   C1056     1.0  0.61966  0.89783  0.71312  1.0000
  C   C1057     1.0  0.39636  0.87855  0.68320  1.0000
  H   H1051     1.0  0.42685  0.83356  0.69023  1.0000
  C   C1058     1.0  0.58906  0.91336  0.66376  1.0000
  H   H1052     1.0  0.62334  0.92096  0.56801  1.0000
  S   S347      1.0  0.60110  0.86878  0.70499  1.0000
  C   C1059     1.0  0.61076  0.93653  0.63334  1.0000
  H   H1053     1.0  0.59035  0.89351  0.64295  1.0000
  C   C1060     1.0  0.63130  0.96557  0.57722  1.0000
  C   C1061     1.0  0.60534  0.91903  0.62998  1.0000
  H   H1054     1.0  0.58649  0.92357  0.69812  1.0000
  H   H1055     1.0  0.42317  0.89514  0.72353  1.0000
  C   C1062     1.0  0.59441  0.90733  0.64527  1.0000
  H   H1056     1.0  0.43434  0.90778  0.70015  1.0000
  H   H1057     1.0  0.60111  0.94342  0.68985  1.0000
  N   N86       1.0  0.59485  0.93035  0.66700  1.0000
  Fe  Fe169     1.0  0.33174  0.95108  0.60839  1.0000
  C   C1063     1.0  0.61766  0.97869  0.56632  1.0000
  S   S348      1.0  0.65002  0.92774  0.59131  1.0000
  C   C1064     1.0  0.36117  0.90388  0.71676  1.0000
  H   H1058     1.0  0.44788  0.88523  0.71194  1.0000
  H   H1059     1.0  0.57503  0.94780  0.68676  1.0000
  S   S349      1.0  0.65265  0.93962  0.68111  1.0000
  H   H1060     1.0  0.57828  0.96757  0.48923  1.0000
  C   C1065     1.0  0.33284  0.96119  0.55034  1.0000
  H   H1061     1.0  0.64031  0.97162  0.58498  1.0000
  C   C1066     1.0  0.36284  0.97850  0.57603  1.0000
  S   S350      1.0  0.65182  0.96541  0.62709  1.0000
  H   H1062     1.0  0.64647  0.90977  0.65936  1.0000
  C   C1067     1.0  0.62696  0.67086  0.87245  1.0000
  H   H1063     1.0  0.53338  0.50289  0.92913  1.0000
  H   H1064     1.0  0.46293  0.92473  0.96222  1.0000
  C   C1068     1.0  0.34077  0.63835  0.92325  1.0000
  Fe  Fe170     1.0  0.49447  0.92048  0.86510  1.0000
  S   S351      1.0  0.46208  0.91820  0.87648  1.0000
  S   S352      1.0  0.51678  0.89205  0.86539  1.0000
  Fe  Fe171     1.0  0.45598  0.94311  0.85177  1.0000
  S   S353      1.0  0.43303  0.94529  0.83236  1.0000
  Fe  Fe172     1.0  0.46288  0.94293  0.89286  1.0000
  S   S354      1.0  0.44968  0.94016  0.92481  1.0000
  S   S355      1.0  0.48844  0.94317  0.83873  1.0000
  S   S356      1.0  0.49586  0.94317  0.88358  1.0000
  Fe  Fe173     1.0  0.38769  0.87672  0.75446  1.0000
  C   C1069     1.0  0.48612  0.94177  0.96311  1.0000
  Fe  Fe174     1.0  0.42300  0.61729  0.91580  1.0000
  H   H1065     1.0  0.59927  0.77492  0.77606  1.0000
  S   S357      1.0  0.41995  0.61768  0.88466  1.0000
  C   C1070     1.0  0.44690  0.50477  0.93928  1.0000
  H   H1066     1.0  0.38162  0.60587  0.90695  1.0000
  H   H1067     1.0  0.52906  0.64918  0.96748  1.0000
  S   S358      1.0  0.45337  0.60670  0.92450  1.0000
  H   H1068     1.0  0.52744  0.54450  0.94497  1.0000
  C   C1071     1.0  0.64692  0.72231  0.95907  1.0000
  C   C1072     1.0  0.36423  0.68544  0.93403  1.0000
  C   C1073     1.0  0.61852  0.68998  0.87700  1.0000
  C   C1074     1.0  0.36027  0.72159  0.92569  1.0000
  C   C1075     1.0  0.34139  0.63414  0.88988  1.0000
  H   H1069     1.0  0.61526  0.80830  0.81279  1.0000
  H   H1070     1.0  0.58800  0.75984  0.84844  1.0000
  C   C1076     1.0  0.57441  0.52510  0.95138  1.0000
  C   C1077     1.0  0.39233  0.72240  0.80182  1.0000
  H   H1071     1.0  0.62233  0.74073  0.84573  1.0000
  C   C1078     1.0  0.59046  0.52526  0.93572  1.0000
  H   H1072     1.0  0.40130  0.72531  0.78692  1.0000
  C   C1079     1.0  0.62766  0.79617  0.81428  1.0000
  H   H1073     1.0  0.62219  0.74833  0.79323  1.0000
  H   H1074     1.0  0.45721  0.51227  0.96357  1.0000
  Fe  Fe175     1.0  0.60934  0.82532  0.76960  1.0000
  S   S359      1.0  0.61624  0.85622  0.75657  1.0000
  Fe  Fe176     1.0  0.56426  0.83819  0.77086  1.0000
  Fe  Fe177     1.0  0.58947  0.86688  0.77800  1.0000
  S   S360      1.0  0.58893  0.89199  0.79449  1.0000
  S   S361      1.0  0.58455  0.83592  0.79284  1.0000
  Fe  Fe178     1.0  0.40094  0.86146  0.79432  1.0000
  S   S362      1.0  0.41746  0.83214  0.78554  1.0000
  S   S363      1.0  0.40321  0.86587  0.82465  1.0000
  Fe  Fe179     1.0  0.39021  0.83232  0.77235  1.0000
  S   S364      1.0  0.37846  0.80311  0.77393  1.0000
  Fe  Fe180     1.0  0.42872  0.85094  0.75730  1.0000
  S   S365      1.0  0.37272  0.86055  0.78302  1.0000
  H   H1075     1.0  0.38829  0.94524  0.84551  1.0000
  S   S366      1.0  0.36707  0.68412  0.83336  1.0000
  C   C1080     1.0  0.35977  0.79533  0.79352  1.0000
  C   C1081     1.0  0.35370  0.77660  0.79467  1.0000
  S   S367      1.0  0.56033  0.50517  0.95746  1.0000
  C   C1082     1.0  0.51740  0.55826  0.94929  1.0000
  H   H1076     1.0  0.63185  0.84021  0.84549  1.0000
  C   C1083     1.0  0.35168  0.80682  0.80847  1.0000
  H   H1077     1.0  0.35988  0.76766  0.78314  1.0000
  S   S368      1.0  0.53507  0.82671  0.78430  1.0000
  S   S369      1.0  0.41527  0.64299  0.93276  1.0000
  H   H1078     1.0  0.35626  0.82125  0.80776  1.0000
  C   C1084     1.0  0.36221  0.70275  0.92008  1.0000
  C   C1085     1.0  0.48667  0.48168  0.90221  1.0000
  C   C1086     1.0  0.58019  0.78224  0.80273  1.0000
  C   C1087     1.0  0.59644  0.77141  0.79195  1.0000
  S   S370      1.0  0.58877  0.82489  0.74862  1.0000
  C   C1088     1.0  0.60205  0.69221  0.89215  1.0000
  H   H1079     1.0  0.56551  0.59416  0.91112  1.0000
  H   H1080     1.0  0.35987  0.60049  0.87089  1.0000
  C   C1089     1.0  0.40673  0.90376  0.89883  1.0000
  H   H1081     1.0  0.57502  0.57056  0.96430  1.0000
  C   C1090     1.0  0.64280  0.71108  0.94608  1.0000
  H   H1082     1.0  0.62956  0.66744  0.94565  1.0000
  H   H1083     1.0  0.53682  0.92995  0.93665  1.0000
  Fe  Fe181     1.0  0.48721  0.96595  0.85821  1.0000
  C   C1091     1.0  0.52160  0.49374  0.93128  1.0000
  C   C1092     1.0  0.36016  0.72284  0.94532  1.0000
  C   C1093     1.0  0.51178  0.49315  0.91584  1.0000
  C   C1094     1.0  0.59416  0.67527  0.90287  1.0000
  C   C1095     1.0  0.40641  0.63812  0.87119  1.0000
  C   C1096     1.0  0.40942  0.63905  0.85086  1.0000
  C   C1097     1.0  0.39758  0.65360  0.83948  1.0000
  C   C1098     1.0  0.38221  0.66703  0.84836  1.0000
  C   C1099     1.0  0.37913  0.66636  0.86876  1.0000
  C   C1100     1.0  0.39152  0.65208  0.88018  1.0000
  H   H1084     1.0  0.42084  0.62827  0.84387  1.0000
  H   H1085     1.0  0.40003  0.65407  0.82376  1.0000
  H   H1086     1.0  0.36726  0.67676  0.87568  1.0000
  H   H1087     1.0  0.38916  0.65144  0.89590  1.0000
  C   C1101     1.0  0.44794  0.53884  0.94370  1.0000
  C   C1102     1.0  0.44069  0.54623  0.92608  1.0000
  C   C1103     1.0  0.43641  0.53284  0.91517  1.0000
  C   C1104     1.0  0.43902  0.51208  0.92199  1.0000
  H   H1088     1.0  0.43820  0.56226  0.92092  1.0000
  H   H1089     1.0  0.43062  0.53863  0.90165  1.0000
  S   S371      1.0  0.63473  0.79967  0.77393  1.0000
  S   S372      1.0  0.33676  0.71860  0.86954  1.0000
  H   H1090     1.0  0.56455  0.78648  0.83164  1.0000
  H   H1091     1.0  0.38160  0.78405  0.84096  1.0000
  H   H1092     1.0  0.59591  0.70695  0.89603  1.0000
  H   H1093     1.0  0.40623  0.55460  0.97005  1.0000
  C   C1105     1.0  0.61811  0.65412  0.88220  1.0000
  H   H1094     1.0  0.50184  0.55699  0.94794  1.0000
  S   S373      1.0  0.40308  0.84847  0.74292  1.0000
  S   S374      1.0  0.41423  0.88022  0.76705  1.0000
  C   C1106     1.0  0.42660  0.92263  0.82916  1.0000
  C   C1107     1.0  0.43045  0.90496  0.84236  1.0000
  C   C1108     1.0  0.42312  0.88761  0.84091  1.0000
  C   C1109     1.0  0.41240  0.88770  0.82593  1.0000
  C   C1110     1.0  0.40897  0.90522  0.81241  1.0000
  C   C1111     1.0  0.41592  0.92271  0.81413  1.0000
  H   H1095     1.0  0.43850  0.90480  0.85408  1.0000
  H   H1096     1.0  0.42580  0.87405  0.85139  1.0000
  H   H1097     1.0  0.40053  0.90543  0.80091  1.0000
  H   H1098     1.0  0.41277  0.93640  0.80396  1.0000
  C   C1112     1.0  0.53688  0.89237  0.84577  1.0000
  C   C1113     1.0  0.54955  0.87435  0.84256  1.0000
  C   C1114     1.0  0.56550  0.87418  0.82673  1.0000
  C   C1115     1.0  0.56905  0.89211  0.81432  1.0000
  C   C1116     1.0  0.55659  0.91019  0.81773  1.0000
  C   C1117     1.0  0.54032  0.91028  0.83327  1.0000
  H   H1099     1.0  0.54692  0.86047  0.85222  1.0000
  H   H1100     1.0  0.57522  0.86023  0.82434  1.0000
  H   H1101     1.0  0.55930  0.92407  0.80810  1.0000
  H   H1102     1.0  0.53055  0.92422  0.83562  1.0000
  C   C1118     1.0  0.49685  0.95722  0.95325  1.0000
  H   H1103     1.0  0.52392  0.48257  0.96155  1.0000
  C   C1119     1.0  0.47094  0.93696  0.95484  1.0000
  C   C1120     1.0  0.46674  0.94743  0.93663  1.0000
  C   C1121     1.0  0.47712  0.96317  0.92714  1.0000
  H   H1104     1.0  0.38327  0.92006  0.84945  1.0000
  H   H1105     1.0  0.59480  0.51272  0.92767  1.0000
  C   C1122     1.0  0.59524  0.55826  0.94043  1.0000
  C   C1123     1.0  0.51451  0.83312  0.77163  1.0000
  H   H1106     1.0  0.62421  0.63944  0.87826  1.0000
  S   S375      1.0  0.46593  0.65048  0.94535  1.0000
  H   H1107     1.0  0.50164  0.85455  0.72721  1.0000
  H   H1108     1.0  0.32654  0.94868  0.72624  1.0000
  C   C1124     1.0  0.54303  0.92919  0.88852  1.0000
  C   C1125     1.0  0.48483  0.63961  0.95930  1.0000
  C   C1126     1.0  0.54660  0.94162  0.87039  1.0000
  C   C1127     1.0  0.48331  0.62178  0.97262  1.0000
  H   H1109     1.0  0.51793  0.55854  0.96490  1.0000
  C   C1128     1.0  0.60080  0.54184  0.93022  1.0000
  C   C1129     1.0  0.41216  0.93822  0.89437  1.0000
  C   C1130     1.0  0.36759  0.61618  0.90675  1.0000
  H   H1110     1.0  0.54995  0.93530  0.85690  1.0000
  H   H1111     1.0  0.54070  0.90863  0.92421  1.0000
  H   H1112     1.0  0.53120  0.84566  0.74431  1.0000
  C   C1131     1.0  0.36404  0.68726  0.95350  1.0000
  H   H1113     1.0  0.62480  0.70304  0.86897  1.0000
  H   H1114     1.0  0.35809  0.73518  0.91510  1.0000
  C   C1132     1.0  0.45146  0.51807  0.95004  1.0000
  C   C1133     1.0  0.61987  0.73652  0.83198  1.0000
  H   H1115     1.0  0.36895  0.62382  0.85935  1.0000
  N   N87       1.0  0.39410  0.92801  0.87293  1.0000
  H   H1116     1.0  0.33369  0.64531  0.93607  1.0000
  C   C1134     1.0  0.39630  0.90878  0.88297  1.0000
  C   C1135     1.0  0.64849  0.77207  0.83501  1.0000
  C   C1136     1.0  0.34007  0.76917  0.81087  1.0000
  H   H1117     1.0  0.39024  0.89713  0.87853  1.0000
  H   H1118     1.0  0.54325  0.91324  0.88876  1.0000
  H   H1119     1.0  0.42283  0.91501  0.91681  1.0000
  H   H1120     1.0  0.61629  0.86876  0.82281  1.0000
  C   C1137     1.0  0.54981  0.59425  0.91771  1.0000
  H   H1121     1.0  0.36555  0.62113  0.93657  1.0000
  Fe  Fe182     1.0  0.57969  0.64962  0.94537  1.0000
  N   N88       1.0  0.47704  0.87816  0.79752  1.0000
  C   C1138     1.0  0.49304  0.87896  0.78254  1.0000
  C   C1139     1.0  0.47941  0.87850  0.81628  1.0000
  C   C1140     1.0  0.51216  0.87940  0.78626  1.0000
  C   C1141     1.0  0.49833  0.87909  0.82050  1.0000
  C   C1142     1.0  0.51481  0.87941  0.80536  1.0000
  C   C1143     1.0  0.45703  0.87790  0.79340  1.0000
  H   H1122     1.0  0.49118  0.87884  0.76764  1.0000
  H   H1123     1.0  0.46666  0.87825  0.82810  1.0000
  H   H1124     1.0  0.52489  0.87940  0.77443  1.0000
  H   H1125     1.0  0.50024  0.87921  0.83541  1.0000
  H   H1126     1.0  0.52962  0.87963  0.80840  1.0000
  H   H1127     1.0  0.45779  0.87312  0.77902  1.0000
  H   H1128     1.0  0.44910  0.86709  0.80472  1.0000
  H   H1129     1.0  0.44806  0.89318  0.79319  1.0000
  H   H1130     1.0  0.61168  0.89500  0.72796  1.0000
  C   C1144     1.0  0.63754  0.84202  0.82987  1.0000
  C   C1145     1.0  0.39300  0.51829  0.95068  1.0000
  C   C1146     1.0  0.53617  0.61211  0.91633  1.0000
  H   H1131     1.0  0.63496  0.73370  0.82283  1.0000
  H   H1132     1.0  0.38428  0.60489  0.87338  1.0000
  H   H1133     1.0  0.61307  0.54197  0.91796  1.0000
  C   C1147     1.0  0.53284  0.92434  0.92430  1.0000
  H   H1134     1.0  0.41845  0.94979  0.89869  1.0000
  N   N89       1.0  0.52369  0.57662  0.93716  1.0000
  N   N90       1.0  0.53836  0.93719  0.90557  1.0000
  Fe  Fe183     1.0  0.59382  0.85691  0.73731  1.0000
  C   C1148     1.0  0.50141  0.64937  0.95744  1.0000
  S   S376      1.0  0.61025  0.63164  0.94431  1.0000
  H   H1135     1.0  0.59550  0.64321  0.90558  1.0000
  Fe  Fe184     1.0  0.44424  0.63031  0.94394  1.0000
  C   C1149     1.0  0.41459  0.91864  0.90460  1.0000
  C   C1150     1.0  0.62796  0.68368  0.93927  1.0000
  S   S377      1.0  0.57563  0.67776  0.92360  1.0000
  Fe  Fe185     1.0  0.59518  0.60447  0.95001  1.0000
  H   H1136     1.0  0.50546  0.62584  0.92435  1.0000
  C   C1151     1.0  0.40190  0.94266  0.87841  1.0000
  C   C1152     1.0  0.49987  0.84750  0.74241  1.0000
  H   H1137     1.0  0.40348  0.78513  0.80831  1.0000
  N   N91       1.0  0.36187  0.70577  0.95896  1.0000
  C   C1153     1.0  0.60192  0.65626  0.89764  1.0000
  S   S378      1.0  0.37604  0.90463  0.73427  1.0000
  C   C1154     1.0  0.63224  0.78765  0.83295  1.0000
  H   H1138     1.0  0.36640  0.93846  0.86271  1.0000
  C   C1155     1.0  0.54041  0.97032  0.88720  1.0000
  C   C1156     1.0  0.51662  0.84249  0.75206  1.0000
  H   H1139     1.0  0.37070  0.72541  0.83685  1.0000
  H   H1140     1.0  0.51601  0.50205  0.90167  1.0000
  H   H1141     1.0  0.36490  0.75408  0.85519  1.0000
  H   H1142     1.0  0.36165  0.70156  0.90507  1.0000
  N   N92       1.0  0.35906  0.62110  0.89015  1.0000
  H   H1143     1.0  0.50267  0.66316  0.94714  1.0000
  C   C1157     1.0  0.37506  0.75439  0.84127  1.0000
  Fe  Fe186     1.0  0.43740  0.58726  0.94952  1.0000
  C   C1158     1.0  0.33776  0.79953  0.82452  1.0000
  C   C1159     1.0  0.33198  0.64293  0.90641  1.0000
  H   H1144     1.0  0.33577  0.75461  0.81171  1.0000
  H   H1145     1.0  0.54111  0.62606  0.90856  1.0000
  H   H1146     1.0  0.51634  0.92429  0.92720  1.0000
  H   H1147     1.0  0.33456  0.63791  0.87677  1.0000
  C   C1160     1.0  0.63934  0.78908  0.79763  1.0000
  C   C1161     1.0  0.53727  0.95743  0.90509  1.0000
  C   C1162     1.0  0.49202  0.96816  0.93548  1.0000
  H   H1148     1.0  0.37734  0.71968  0.80018  1.0000
  C   C1163     1.0  0.64507  0.60211  0.90025  1.0000
  Fe  Fe187     1.0  0.40232  0.62062  0.95723  1.0000
  H   H1149     1.0  0.35787  0.73758  0.94971  1.0000
  H   H1150     1.0  0.40877  0.88844  0.90655  1.0000
  C   C1164     1.0  0.54493  0.96235  0.86975  1.0000
  C   C1165     1.0  0.54323  0.57652  0.92808  1.0000
  N   N93       1.0  0.38998  0.73923  0.81264  1.0000
  C   C1166     1.0  0.47875  0.83428  0.77196  1.0000
  C   C1167     1.0  0.49554  0.82902  0.78152  1.0000
  C   C1168     1.0  0.51620  0.61202  0.92533  1.0000
  C   C1169     1.0  0.39675  0.77179  0.81499  1.0000
  S   S379      1.0  0.56734  0.87020  0.75772  1.0000
  C   C1170     1.0  0.59044  0.76301  0.83254  1.0000
  S   S380      1.0  0.40767  0.59571  0.93934  1.0000
  H   H1151     1.0  0.46422  0.83101  0.77971  1.0000
  H   H1152     1.0  0.49382  0.82179  0.79667  1.0000
  C   C1171     1.0  0.48088  0.84347  0.75234  1.0000
  N   N94       1.0  0.60644  0.75255  0.82184  1.0000
  C   C1172     1.0  0.57713  0.77805  0.82317  1.0000
  H   H1153     1.0  0.64872  0.71457  0.93058  1.0000
  H   H1154     1.0  0.40821  0.75669  0.79016  1.0000
  C   C1173     1.0  0.36846  0.61205  0.87263  1.0000
  C   C1174     1.0  0.60942  0.75643  0.80178  1.0000
  H   H1155     1.0  0.47352  0.97153  0.91334  1.0000
  H   H1156     1.0  0.62325  0.79322  0.84583  1.0000
  H   H1157     1.0  0.55394  0.56273  0.92895  1.0000
  H   H1158     1.0  0.65182  0.60497  0.88449  1.0000
  C   C1175     1.0  0.57939  0.55796  0.95632  1.0000
  H   H1159     1.0  0.39984  0.70844  0.81000  1.0000
  C   C1176     1.0  0.35865  0.62483  0.92350  1.0000
  C   C1177     1.0  0.38236  0.93321  0.85693  1.0000
  C   C1178     1.0  0.37817  0.73836  0.83074  1.0000
  H   H1160     1.0  0.38798  0.51594  0.93773  1.0000
  C   C1179     1.0  0.38441  0.77120  0.83329  1.0000
  H   H1161     1.0  0.44954  0.48891  0.94441  1.0000
  S   S381      1.0  0.45112  0.55527  0.95883  1.0000
  C   C1180     1.0  0.62882  0.85798  0.81720  1.0000
  H   H1162     1.0  0.57003  0.79393  0.79527  1.0000
  C   C1181     1.0  0.39928  0.75564  0.80473  1.0000
  H   H1163     1.0  0.64762  0.58557  0.90524  1.0000
  Fe  Fe188     1.0  0.33738  0.69779  0.84854  1.0000
  C   C1182     1.0  0.65426  0.60518  0.93133  1.0000
  S   S382      1.0  0.56495  0.62265  0.94780  1.0000
  H   H1164     1.0  0.35461  0.87396  0.72814  1.0000
  H   H1165     1.0  0.39340  0.55001  0.94103  1.0000
  S   S383      1.0  0.60774  0.57929  0.93261  1.0000
  H   H1166     1.0  0.49479  0.59426  0.94334  1.0000
  C   C1183     1.0  0.51023  0.59408  0.93596  1.0000
  S   S384      1.0  0.46013  0.85038  0.73989  1.0000
  N   N95       1.0  0.63214  0.69547  0.95292  1.0000
  H   H1167     1.0  0.62859  0.60721  0.90180  1.0000
  H   H1168     1.0  0.63863  0.68507  0.92518  1.0000
  N   N96       1.0  0.65363  0.61276  0.91200  1.0000
  S   S385      1.0  0.43220  0.49571  0.90874  1.0000
  H   H1169     1.0  0.36553  0.67072  0.92992  1.0000
  H   H1170     1.0  0.62974  0.87258  0.78725  1.0000
  C   C1184     1.0  0.62476  0.69111  0.97247  1.0000
  S   S386      1.0  0.45407  0.96798  0.86913  1.0000
  H   H1171     1.0  0.40046  0.95782  0.87026  1.0000
  C   C1185     1.0  0.56897  0.54142  0.96175  1.0000
  H   H1172     1.0  0.54675  0.97227  0.85575  1.0000
  C   C1186     1.0  0.51633  0.48221  0.94950  1.0000
  S   S387      1.0  0.65422  0.76199  0.85845  1.0000
  C   C1187     1.0  0.39605  0.53736  0.95253  1.0000
  C   C1188     1.0  0.63628  0.86006  0.79716  1.0000
  S   S388      1.0  0.51720  0.96251  0.96195  1.0000
  H   H1173     1.0  0.53363  0.96375  0.91860  1.0000
  C   C1189     1.0  0.51639  0.64143  0.96889  1.0000
  H   H1174     1.0  0.61338  0.72232  0.83563  1.0000
  H   H1175     1.0  0.47806  0.49690  0.89838  1.0000
  C   C1190     1.0  0.65361  0.82830  0.82222  1.0000
  H   H1176     1.0  0.61240  0.68880  0.93619  1.0000
  H   H1177     1.0  0.36523  0.67380  0.96428  1.0000
  H   H1178     1.0  0.33161  0.80848  0.83605  1.0000
  C   C1191     1.0  0.65203  0.84582  0.78995  1.0000
  C   C1192     1.0  0.33212  0.78058  0.82590  1.0000
  H   H1179     1.0  0.39435  0.48728  0.96431  1.0000
  S   S389      1.0  0.64965  0.66750  0.85607  1.0000
  H   H1180     1.0  0.64868  0.59120  0.93793  1.0000
  S   S390      1.0  0.43058  0.61005  0.96999  1.0000
  C   C1193     1.0  0.39688  0.50210  0.96541  1.0000
  N   N97       1.0  0.49713  0.48139  0.91850  1.0000
  C   C1194     1.0  0.40340  0.53982  0.96895  1.0000
  S   S391      1.0  0.37143  0.62899  0.97386  1.0000
  H   H1181     1.0  0.55665  0.54130  0.97397  1.0000
  H   H1182     1.0  0.47058  0.61416  0.97414  1.0000
  C   C1195     1.0  0.65538  0.77332  0.79974  1.0000
  H   H1183     1.0  0.49998  0.98035  0.92800  1.0000
  Fe  Fe189     1.0  0.68322  0.37786  0.03261  1.0000
  S   S392      1.0  0.71519  0.37376  0.01763  1.0000
  C   C1196     1.0  0.76666  0.41538  0.03314  1.0000
  Fe  Fe190     1.0  0.68791  0.33670  0.05803  1.0000
  S   S393      1.0  0.72038  0.32921  0.04442  1.0000
  H   H1184     1.0  0.86347  0.42745  0.16661  1.0000
  Fe  Fe191     1.0  0.72293  0.36091  0.04755  1.0000
  S   S394      1.0  0.75125  0.36807  0.05578  1.0000
  Fe  Fe192     1.0  0.70972  0.34297  0.01573  1.0000
  H   H1185     1.0  0.80638  0.41127  0.02981  1.0000
  S   S395      1.0  0.69106  0.36761  0.06277  1.0000
  S   S396      1.0  0.67722  0.34779  0.02926  1.0000
  Fe  Fe193     1.0  0.82916  0.44559  0.10517  1.0000
  H   H1186     1.0  0.66645  0.14115  0.17540  1.0000
  S   S397      1.0  0.84725  0.45506  0.07562  1.0000
  Fe  Fe194     1.0  0.82579  0.41764  0.14428  1.0000
  S   S398      1.0  0.79399  0.43159  0.15390  1.0000
  S   S399      1.0  0.84387  0.39223  0.16199  1.0000
  Fe  Fe195     1.0  0.78963  0.43058  0.12312  1.0000
  S   S400      1.0  0.76108  0.42205  0.11712  1.0000
  H   H1187     1.0  0.87260  0.45116  0.15789  1.0000
  S   S401      1.0  0.82077  0.41459  0.11436  1.0000
  S   S402      1.0  0.83724  0.44701  0.13414  1.0000
  C   C1197     1.0  0.78057  0.38257  0.17693  1.0000
  H   H1188     1.0  0.67171  0.20899  0.11296  1.0000
  H   H1189     1.0  0.69002  0.40151  0.98542  1.0000
  C   C1198     1.0  0.80469  0.36730  0.19892  1.0000
  H   H1190     1.0  0.68453  0.28874  0.05716  1.0000
  S   S403      1.0  0.66325  0.40690  0.02370  1.0000
  C   C1199     1.0  0.77845  0.44459  0.06826  1.0000
  H   H1191     1.0  0.82122  0.36277  0.19793  1.0000
  C   C1200     1.0  0.67550  0.20422  0.12758  1.0000
  S   S404      1.0  0.68517  0.13556  0.20927  1.0000
  N   N98       1.0  0.77789  0.42406  0.04427  1.0000
  N   N99       1.0  0.66686  0.21520  0.14226  1.0000
  Fe  Fe196     1.0  0.80516  0.46109  0.14143  1.0000
  H   H1192     1.0  0.75157  0.43842  0.06101  1.0000
  C   C1201     1.0  0.86206  0.38142  0.21487  1.0000
  C   C1202     1.0  0.79844  0.42068  0.04056  1.0000
  C   C1203     1.0  0.77425  0.38590  0.15873  1.0000
  H   H1193     1.0  0.77044  0.45341  0.07950  1.0000
  C   C1204     1.0  0.79939  0.44112  0.06464  1.0000
  C   C1205     1.0  0.83120  0.40651  0.19720  1.0000
  C   C1206     1.0  0.84537  0.39359  0.18638  1.0000
  C   C1207     1.0  0.86068  0.38094  0.19531  1.0000
  H   H1194     1.0  0.81926  0.41624  0.19050  1.0000
  H   H1195     1.0  0.87166  0.37086  0.18702  1.0000
  H   H1196     1.0  0.76609  0.42463  0.01847  1.0000
  H   H1197     1.0  0.80783  0.44760  0.07267  1.0000
  C   C1208     1.0  0.67192  0.20944  0.16055  1.0000
  H   H1198     1.0  0.75105  0.41437  0.04091  1.0000
  H   H1199     1.0  0.77092  0.38929  0.18891  1.0000
  C   C1209     1.0  0.75348  0.38208  0.07389  1.0000
  C   C1210     1.0  0.73679  0.39279  0.08438  1.0000
  C   C1211     1.0  0.73941  0.40472  0.09770  1.0000
  C   C1212     1.0  0.75869  0.40623  0.10062  1.0000
  C   C1213     1.0  0.77541  0.39547  0.09018  1.0000
  C   C1214     1.0  0.77278  0.38344  0.07696  1.0000
  H   H1200     1.0  0.72186  0.39197  0.08215  1.0000
  H   H1201     1.0  0.72636  0.41294  0.10570  1.0000
  H   H1202     1.0  0.79036  0.39654  0.09213  1.0000
  H   H1203     1.0  0.78580  0.37527  0.06888  1.0000
  N   N100      1.0  0.79873  0.37119  0.17952  1.0000
  S   S405      1.0  0.79764  0.46157  0.11176  1.0000
  C   C1215     1.0  0.69401  0.18032  0.14998  1.0000
  H   H1204     1.0  0.67672  0.34035  0.98969  1.0000
  C   C1216     1.0  0.87006  0.43929  0.17085  1.0000
  C   C1217     1.0  0.78660  0.37744  0.14320  1.0000
  H   H1205     1.0  0.87415  0.37191  0.22149  1.0000
  C   C1218     1.0  0.66222  0.29545  0.08211  1.0000
  S   S406      1.0  0.66882  0.31899  0.08299  1.0000
  H   H1206     1.0  0.88496  0.43239  0.17487  1.0000
  C   C1219     1.0  0.85971  0.44099  0.20600  1.0000
  C   C1220     1.0  0.83222  0.40653  0.21693  1.0000
  H   H1207     1.0  0.82581  0.42639  0.04792  1.0000
  C   C1221     1.0  0.80507  0.36586  0.14595  1.0000
  C   C1222     1.0  0.81087  0.36272  0.16437  1.0000
  H   H1208     1.0  0.77376  0.39969  0.03138  1.0000
  S   S407      1.0  0.72046  0.33266  0.98605  1.0000
  C   C1223     1.0  0.80950  0.42914  0.05070  1.0000
  C   C1224     1.0  0.66731  0.26438  0.06858  1.0000
  C   C1225     1.0  0.76785  0.43600  0.05778  1.0000
  H   H1209     1.0  0.68922  0.18713  0.17933  1.0000
  H   H1210     1.0  0.82543  0.35397  0.16630  1.0000
  C   C1226     1.0  0.68311  0.33801  0.97487  1.0000
  H   H1211     1.0  0.75999  0.39522  0.15651  1.0000
  H   H1212     1.0  0.78189  0.38002  0.12901  1.0000
  C   C1227     1.0  0.87707  0.47762  0.05864  1.0000
  H   H1213     1.0  0.81496  0.35954  0.13384  1.0000
  H   H1214     1.0  0.79717  0.35510  0.20849  1.0000
  C   C1228     1.0  0.68561  0.19196  0.16467  1.0000
  H   H1215     1.0  0.67555  0.25503  0.05795  1.0000
  C   C1229     1.0  0.66613  0.15434  0.20093  1.0000
  H   H1216     1.0  0.80067  0.38109  0.20590  1.0000
  C   C1230     1.0  0.68902  0.18650  0.13126  1.0000
  C   C1231     1.0  0.82638  0.46928  0.19880  1.0000
  C   C1232     1.0  0.65978  0.15345  0.18341  1.0000
  H   H1217     1.0  0.83715  0.46671  0.16858  1.0000
  C   C1233     1.0  0.67241  0.28349  0.06808  1.0000
  H   H1218     1.0  0.87226  0.42935  0.20911  1.0000
  H   H1219     1.0  0.70420  0.16643  0.15322  1.0000
  N   N101      1.0  0.85649  0.44774  0.18714  1.0000
  H   H1220     1.0  0.66497  0.21810  0.17220  1.0000
  C   C1234     1.0  0.84000  0.46159  0.18345  1.0000
  H   H1221     1.0  0.69547  0.17759  0.11970  1.0000
  C   C1235     1.0  0.82963  0.46259  0.21806  1.0000
  H   H1222     1.0  0.69319  0.37646  0.98021  1.0000
  C   C1236     1.0  0.86414  0.47902  0.09291  1.0000
  H   H1223     1.0  0.66054  0.24699  0.13525  1.0000
  H   H1224     1.0  0.85383  0.47495  0.10602  1.0000
  C   C1237     1.0  0.86410  0.47143  0.07586  1.0000
  C   C1238     1.0  0.65747  0.17027  0.21120  1.0000
  C   C1239     1.0  0.84640  0.44836  0.22172  1.0000
  H   H1225     1.0  0.87706  0.47192  0.04533  1.0000
  H   H1226     1.0  0.65762  0.37539  0.00372  1.0000
  H   H1227     1.0  0.81328  0.48019  0.19568  1.0000
  Fe  Fe197     1.0  0.94624  0.10432  0.44480  1.0000
  C   C1240     1.0  0.94597  0.31403  0.25098  1.0000
  Fe  Fe198     1.0  0.90963  0.13645  0.44114  1.0000
  H   H1228     1.0  0.68956  0.07845  0.32566  1.0000
  S   S408      1.0  0.89516  0.16680  0.42812  1.0000
  H   H1229     1.0  0.97334  0.41764  0.46549  1.0000
  H   H1230     1.0  0.72637  0.24588  0.31545  1.0000
  Fe  Fe199     1.0  0.90460  0.09319  0.45483  1.0000
  S   S409      1.0  0.88494  0.07043  0.45512  1.0000
  H   H1231     1.0  0.94396  0.99683  0.42526  1.0000
  S   S410      1.0  0.92133  0.10868  0.42724  1.0000
  S   S411      1.0  0.94887  0.45138  0.43322  1.0000
  S   S412      1.0  0.93214  0.45528  0.33818  1.0000
  C   C1241     1.0  0.68083  0.04920  0.33376  1.0000
  S   S413      1.0  0.95697  0.42740  0.38567  1.0000
  Fe  Fe200     1.0  0.82410  0.18924  0.35720  1.0000
  S   S414      1.0  0.79562  0.18502  0.37834  1.0000
  S   S415      1.0  0.85028  0.16398  0.35894  1.0000
  Fe  Fe201     1.0  0.80703  0.23045  0.33785  1.0000
  S   S416      1.0  0.77732  0.22932  0.35775  1.0000
  S   S417      1.0  0.80870  0.25871  0.31527  1.0000
  Fe  Fe202     1.0  0.79530  0.21696  0.38195  1.0000
  S   S418      1.0  0.78512  0.22797  0.41133  1.0000
  Fe  Fe203     1.0  0.78032  0.19751  0.35214  1.0000
  S   S419      1.0  0.75194  0.18733  0.34765  1.0000
  S   S420      1.0  0.82479  0.22058  0.36240  1.0000
  S   S421      1.0  0.80896  0.19941  0.33060  1.0000
  H   H1232     1.0  0.83109  0.25990  0.39857  1.0000
  S   S422      1.0  0.69154  0.11461  0.29688  1.0000
  C   C1242     1.0  0.86378  0.10740  0.36347  1.0000
  Fe  Fe204     1.0  0.71092  0.13337  0.27389  1.0000
  S   S423      1.0  0.73838  0.14519  0.27870  1.0000
  S   S424      1.0  0.68485  0.15259  0.26091  1.0000
  Fe  Fe205     1.0  0.87346  0.37624  0.26626  1.0000
  S   S425      1.0  0.86477  0.36080  0.29736  1.0000
  S   S426      1.0  0.84955  0.39617  0.24999  1.0000
  Fe  Fe206     1.0  0.91801  0.36175  0.26610  1.0000
  S   S427      1.0  0.91279  0.34498  0.29660  1.0000
  C   C1243     1.0  0.66664  0.03781  0.34504  1.0000
  Fe  Fe207     1.0  0.88714  0.33462  0.28803  1.0000
  S   S428      1.0  0.88607  0.30150  0.29983  1.0000
  Fe  Fe208     1.0  0.89104  0.37232  0.30362  1.0000
  S   S429      1.0  0.89213  0.38057  0.33293  1.0000
  S   S430      1.0  0.89421  0.34910  0.25645  1.0000
  S   S431      1.0  0.89785  0.39002  0.27355  1.0000
  C   C1244     1.0  0.96981  0.35827  0.25994  1.0000
  C   C1245     1.0  0.98858  0.39396  0.29155  1.0000
  H   H1233     1.0  0.93006  0.04337  0.39954  1.0000
  C   C1246     1.0  0.78448  0.21394  0.27796  1.0000
  C   C1247     1.0  0.81741  0.18171  0.47179  1.0000
  C   C1248     1.0  0.96799  0.34994  0.27977  1.0000
  C   C1249     1.0  0.66047  0.10024  0.34736  1.0000
  H   H1234     1.0  0.84874  0.44247  0.23668  1.0000
  H   H1235     1.0  0.94883  0.02648  0.43476  1.0000
  H   H1236     1.0  0.95356  0.34727  0.28806  1.0000
  C   C1250     1.0  0.69517  0.02332  0.27725  1.0000
  C   C1251     1.0  0.68954  0.01020  0.26682  1.0000
  H   H1237     1.0  0.70218  0.01721  0.29001  1.0000
  H   H1238     1.0  0.69219  0.99413  0.27159  1.0000
  C   C1252     1.0  0.83044  0.27030  0.31058  1.0000
  C   C1253     1.0  0.83028  0.28956  0.29928  1.0000
  C   C1254     1.0  0.84715  0.29945  0.29595  1.0000
  C   C1255     1.0  0.86443  0.28991  0.30356  1.0000
  C   C1256     1.0  0.86462  0.27059  0.31470  1.0000
  C   C1257     1.0  0.84766  0.26088  0.31834  1.0000
  H   H1239     1.0  0.81701  0.29695  0.29323  1.0000
  H   H1240     1.0  0.84686  0.31433  0.28733  1.0000
  H   H1241     1.0  0.87795  0.26308  0.32060  1.0000
  H   H1242     1.0  0.84800  0.24603  0.32698  1.0000
  C   C1258     1.0  0.74882  0.17415  0.32925  1.0000
  C   C1259     1.0  0.76486  0.16765  0.31512  1.0000
  C   C1260     1.0  0.76140  0.15850  0.29999  1.0000
  C   C1261     1.0  0.74195  0.15557  0.29886  1.0000
  C   C1262     1.0  0.72597  0.16177  0.31320  1.0000
  C   C1263     1.0  0.72940  0.17103  0.32826  1.0000
  H   H1243     1.0  0.77987  0.16990  0.31568  1.0000
  H   H1244     1.0  0.77388  0.15370  0.28902  1.0000
  H   H1245     1.0  0.71094  0.15967  0.31253  1.0000
  H   H1246     1.0  0.71689  0.17595  0.33914  1.0000
  C   C1264     1.0  0.82598  0.22759  0.45576  1.0000
  C   C1265     1.0  0.83436  0.22235  0.43720  1.0000
  C   C1266     1.0  0.82209  0.22263  0.42331  1.0000
  C   C1267     1.0  0.80132  0.22846  0.42781  1.0000
  C   C1268     1.0  0.79302  0.23427  0.44617  1.0000
  S   S432      1.0  0.95405  0.47658  0.37684  1.0000
  H   H1247     1.0  0.82867  0.21813  0.40923  1.0000
  H   H1248     1.0  0.77697  0.23890  0.44972  1.0000
  H   H1249     1.0  0.89030  0.20655  0.45434  1.0000
  C   C1269     1.0  0.96809  0.39326  0.29337  1.0000
  H   H1250     1.0  0.81903  0.46820  0.23014  1.0000
  Fe  Fe209     1.0  0.95289  0.45195  0.36016  1.0000
  H   H1251     1.0  0.69353  0.04221  0.32421  1.0000
  S   S433      1.0  0.66750  0.11021  0.26197  1.0000
  C   C1270     1.0  0.84331  0.28199  0.37523  1.0000
  C   C1271     1.0  0.89065  0.02256  0.42760  1.0000
  C   C1272     1.0  0.95867  0.98820  0.42841  1.0000
  C   C1273     1.0  0.92157  0.43417  0.33666  1.0000
  C   C1274     1.0  0.91991  0.41832  0.35233  1.0000
  C   C1275     1.0  0.91065  0.40208  0.35107  1.0000
  C   C1276     1.0  0.90337  0.40136  0.33400  1.0000
  C   C1277     1.0  0.90534  0.41703  0.31817  1.0000
  C   C1278     1.0  0.91425  0.43348  0.31959  1.0000
  H   H1252     1.0  0.90909  0.39003  0.36337  1.0000
  H   H1253     1.0  0.89967  0.41666  0.30501  1.0000
  H   H1254     1.0  0.91539  0.44574  0.30745  1.0000
  Fe  Fe210     1.0  0.69467  0.09411  0.27452  1.0000
  H   H1255     1.0  0.85040  0.21771  0.43372  1.0000
  C   C1279     1.0  0.96626  0.31295  0.25198  1.0000
  H   H1256     1.0  0.85070  0.12426  0.38681  1.0000
  N   N102      1.0  0.66238  0.07871  0.34653  1.0000
  C   C1280     1.0  0.88371  0.16626  0.40814  1.0000
  C   C1281     1.0  0.89027  0.15115  0.39643  1.0000
  C   C1282     1.0  0.88035  0.15081  0.38091  1.0000
  C   C1283     1.0  0.86342  0.16511  0.37758  1.0000
  C   C1284     1.0  0.85676  0.17995  0.38955  1.0000
  C   C1285     1.0  0.86719  0.18084  0.40443  1.0000
  H   H1257     1.0  0.90329  0.14009  0.39896  1.0000
  H   H1258     1.0  0.88584  0.13952  0.37148  1.0000
  H   H1259     1.0  0.84347  0.19067  0.38749  1.0000
  H   H1260     1.0  0.86209  0.19252  0.41344  1.0000
  H   H1261     1.0  0.92525  0.41882  0.36563  1.0000
  C   C1286     1.0  0.67720  0.03891  0.24424  1.0000
  C   C1287     1.0  0.95651  0.39043  0.31199  1.0000
  C   C1288     1.0  0.97920  0.47115  0.43615  1.0000
  C   C1289     1.0  0.80525  0.23370  0.46017  1.0000
  C   C1290     1.0  0.97740  0.03313  0.43740  1.0000
  C   C1291     1.0  0.73489  0.23123  0.32111  1.0000
  C   C1292     1.0  0.88412  0.03647  0.44067  1.0000
  C   C1293     1.0  0.89428  0.05273  0.43916  1.0000
  C   C1294     1.0  0.91095  0.05515  0.42438  1.0000
  C   C1295     1.0  0.91725  0.04142  0.41103  1.0000
  H   H1262     1.0  0.87119  0.03455  0.45203  1.0000
  H   H1263     1.0  0.91884  0.06769  0.42306  1.0000
  H   H1264     1.0  0.93100  0.28962  0.29665  1.0000
  C   C1296     1.0  0.83946  0.16507  0.44732  1.0000
  N   N103      1.0  0.84083  0.29417  0.35782  1.0000
  C   C1297     1.0  0.82453  0.29421  0.34939  1.0000
  C   C1298     1.0  0.85599  0.30696  0.34819  1.0000
  H   H1265     1.0  0.85630  0.28186  0.38187  1.0000
  H   H1266     1.0  0.82260  0.30368  0.33550  1.0000
  H   H1267     1.0  0.85189  0.31664  0.33455  1.0000
  H   H1268     1.0  0.85787  0.31703  0.35813  1.0000
  H   H1269     1.0  0.87063  0.29746  0.34391  1.0000
  N   N104      1.0  0.86320  0.09419  0.39766  1.0000
  C   C1299     1.0  0.85846  0.10977  0.38321  1.0000
  C   C1300     1.0  0.87325  0.07606  0.39299  1.0000
  C   C1301     1.0  0.87881  0.07313  0.37342  1.0000
  C   C1302     1.0  0.87403  0.08894  0.35858  1.0000
  C   C1303     1.0  0.85865  0.09730  0.41819  1.0000
  H   H1270     1.0  0.87706  0.06373  0.40442  1.0000
  H   H1271     1.0  0.88689  0.05869  0.36989  1.0000
  H   H1272     1.0  0.84538  0.10908  0.42083  1.0000
  H   H1273     1.0  0.85530  0.08322  0.42816  1.0000
  H   H1274     1.0  0.87182  0.10183  0.42221  1.0000
  Fe  Fe211     1.0  0.68834  0.12936  0.24141  1.0000
  H   H1275     1.0  0.79729  0.20917  0.26724  1.0000
  C   C1304     1.0  0.76960  0.23245  0.30456  1.0000
  C   C1305     1.0  0.67845  0.06976  0.33464  1.0000
  C   C1306     1.0  0.76632  0.20701  0.27945  1.0000
  H   H1276     1.0  0.73621  0.20701  0.29507  1.0000
  N   N105      1.0  0.97210  0.00133  0.43120  1.0000
  N   N106      1.0  0.75201  0.22517  0.30626  1.0000
  C   C1307     1.0  0.78611  0.22689  0.29046  1.0000
  H   H1277     1.0  0.80157  0.25969  0.38328  1.0000
  C   C1308     1.0  0.68047  0.01798  0.25029  1.0000
  H   H1278     1.0  0.66823  0.02188  0.34432  1.0000
  C   C1309     1.0  0.75010  0.21292  0.29369  1.0000
  H   H1279     1.0  0.80015  0.23241  0.28949  1.0000
  H   H1280     1.0  0.72473  0.21968  0.32543  1.0000
  S   S434      1.0  0.89086  0.12137  0.46747  1.0000
  C   C1310     1.0  0.68296  0.05199  0.25456  1.0000
  H   H1281     1.0  0.91750  0.30621  0.26651  1.0000
  S   S435      1.0  0.91551  0.00740  0.39659  1.0000
  H   H1282     1.0  0.94002  0.32202  0.23800  1.0000
  H   H1283     1.0  0.76490  0.19666  0.27005  1.0000
  C   C1311     1.0  0.96536  0.38882  0.32852  1.0000
  S   S436      1.0  0.94887  0.36361  0.24781  1.0000
  H   H1284     1.0  0.85416  0.15726  0.44192  1.0000
  H   H1285     1.0  0.67029  0.04504  0.23142  1.0000
  H   H1286     1.0  0.66235  0.17113  0.22467  1.0000
  C   C1312     1.0  0.82421  0.16813  0.43604  1.0000
  H   H1287     1.0  0.82719  0.16315  0.42186  1.0000
  S   S437      1.0  0.67246  0.00231  0.23702  1.0000
  H   H1288     1.0  0.86714  0.16997  0.46608  1.0000
  C   C1313     1.0  0.81256  0.26941  0.37617  1.0000
  C   C1314     1.0  0.80173  0.18473  0.46104  1.0000
  C   C1315     1.0  0.91161  0.18363  0.46793  1.0000
  C   C1316     1.0  0.94094  0.29605  0.28400  1.0000
  N   N107      1.0  0.83610  0.17236  0.46466  1.0000
  H   H1289     1.0  0.97155  0.04853  0.43972  1.0000
  H   H1290     1.0  0.87835  0.08694  0.34332  1.0000
  C   C1317     1.0  0.96324  0.46124  0.44612  1.0000
  S   S438      1.0  0.93613  0.13371  0.45600  1.0000
  H   H1291     1.0  0.88265  0.01006  0.42890  1.0000
  C   C1318     1.0  0.93330  0.30541  0.26706  1.0000
  S   S439      1.0  0.69919  0.06030  0.28457  1.0000
  C   C1319     1.0  0.69197  0.04426  0.27111  1.0000
  H   H1292     1.0  0.97587  0.32011  0.23952  1.0000
  C   C1320     1.0  0.89735  0.20103  0.46725  1.0000
  H   H1293     1.0  0.86012  0.11996  0.35211  1.0000
  Fe  Fe212     1.0  0.96155  0.45157  0.40117  1.0000
  H   H1294     1.0  0.94076  0.38924  0.31358  1.0000
  H   H1295     1.0  0.91591  0.17576  0.45540  1.0000
  H   H1296     1.0  0.78717  0.19291  0.46632  1.0000
  H   H1297     1.0  0.77108  0.24241  0.31430  1.0000
  C   C1321     1.0  0.82917  0.26952  0.38472  1.0000
  C   C1322     1.0  0.95924  0.45836  0.46669  1.0000
  C   C1323     1.0  0.80528  0.17818  0.44291  1.0000
  H   H1298     1.0  0.68057  0.06804  0.24958  1.0000
  C   C1324     1.0  0.90720  0.02500  0.41276  1.0000
  S   S440      1.0  0.71603  0.11144  0.25238  1.0000
  H   H1299     1.0  0.67287  0.10309  0.35393  1.0000
  C   C1325     1.0  0.81027  0.28171  0.35832  1.0000
  H   H1300     1.0  0.97503  0.13465  0.43574  1.0000
  H   H1301     1.0  0.74007  0.23243  0.33478  1.0000
  H   H1302     1.0  0.79767  0.28136  0.35127  1.0000
  H   H1303     1.0  0.95905  0.38315  0.44873  1.0000
  C   C1326     1.0  0.98425  0.41379  0.45286  1.0000
  H   H1304     1.0  0.95639  0.38677  0.34305  1.0000
  H   H1305     1.0  0.96133  0.39434  0.28045  1.0000
  H   H1306     1.0  0.79351  0.18136  0.43398  1.0000
  S   S441      1.0  0.97885  0.09198  0.43595  1.0000
  Fe  Fe213     1.0  0.66599  0.13199  0.28231  1.0000
  C   C1327     1.0  0.96467  0.02063  0.43445  1.0000
  H   H1307     1.0  0.94794  0.40873  0.45195  1.0000
  H   H1308     1.0  0.95336  0.40218  0.42803  1.0000
  C   C1328     1.0  0.95891  0.39924  0.44226  1.0000
  N   N108      1.0  0.97366  0.30377  0.26866  1.0000
  S   S442      1.0  0.93037  0.08653  0.47134  1.0000
  H   H1309     1.0  0.96713  0.28804  0.29778  1.0000
  H   H1310     1.0  0.98343  0.33818  0.30428  1.0000
  C   C1329     1.0  0.96130  0.29531  0.28454  1.0000
  N   N109      1.0  0.97912  0.40446  0.43945  1.0000
  H   H1311     1.0  0.66104  0.10909  0.33238  1.0000
  H   H1312     1.0  0.98223  0.47371  0.42033  1.0000
  C   C1330     1.0  0.98498  0.34479  0.28895  1.0000
  C   C1331     1.0  0.98714  0.47524  0.46718  1.0000
  C   C1332     1.0  0.98773  0.12715  0.44259  1.0000
  H   H1313     1.0  0.82107  0.41638  0.22533  1.0000
  H   H1314     1.0  0.98899  0.39165  0.41320  1.0000
  C   C1333     1.0  0.84784  0.39424  0.22576  1.0000
  C   C1334     1.0  0.98877  0.36168  0.24940  1.0000
  S   S443      1.0  0.98556  0.44891  0.34710  1.0000
  Fe  Fe214     1.0  0.98719  0.47149  0.36583  1.0000
  C   C1335     1.0  0.98587  0.38974  0.32617  1.0000
  S   S444      1.0  0.84184  0.22520  0.47328  1.0000
  C   C1336     1.0  0.90123  0.20383  0.49989  1.0000
  C   C1337     1.0  0.84119  0.44779  0.68726  1.0000
  H   H1315     1.0  0.70999  0.10386  0.54849  1.0000
  H   H1316     1.0  0.96806  0.46306  0.49308  1.0000
  Fe  Fe215     1.0  0.70070  0.14524  0.60802  1.0000
  S   S445      1.0  0.69419  0.13685  0.64087  1.0000
  S   S446      1.0  0.73199  0.14792  0.59089  1.0000
  Fe  Fe216     1.0  0.67871  0.11287  0.63488  1.0000
  N   N110      1.0  0.73425  0.98942  0.59240  1.0000
  Fe  Fe217     1.0  0.91837  0.11636  0.48123  1.0000
  C   C1338     1.0  0.67261  0.14399  0.54569  1.0000
  S   S447      1.0  0.68747  0.11978  0.60232  1.0000
  H   H1317     1.0  0.70765  0.16368  0.55980  1.0000
  C   C1339     1.0  0.89225  0.21133  0.48325  1.0000
  H   H1318     1.0  0.83233  0.38593  0.69336  1.0000
  C   C1340     1.0  0.97132  0.46515  0.47723  1.0000
  H   H1319     1.0  0.88132  0.22502  0.48275  1.0000
  H   H1320     1.0  0.75489  0.18352  0.63532  1.0000
  Fe  Fe218     1.0  0.89715  0.31980  0.61735  1.0000
  S   S448      1.0  0.88151  0.35181  0.61365  1.0000
  S   S449      1.0  0.88499  0.29258  0.61237  1.0000
  Fe  Fe219     1.0  0.93047  0.33094  0.63498  1.0000
  S   S450      1.0  0.91692  0.36352  0.63325  1.0000
  C   C1341     1.0  0.96665  0.32354  0.69124  1.0000
  Fe  Fe220     1.0  0.88732  0.35257  0.64387  1.0000
  S   S451      1.0  0.86157  0.36824  0.66400  1.0000
  Fe  Fe221     1.0  0.91241  0.36017  0.60339  1.0000
  S   S452      1.0  0.92011  0.38233  0.57609  1.0000
  S   S453      1.0  0.90112  0.31993  0.64843  1.0000
  S   S454      1.0  0.92769  0.32812  0.60447  1.0000
  Fe  Fe222     1.0  0.83398  0.25146  0.53811  1.0000
  S   S455      1.0  0.81029  0.25383  0.51922  1.0000
  S   S456      1.0  0.84464  0.27971  0.54264  1.0000
  Fe  Fe223     1.0  0.83947  0.20561  0.54441  1.0000
  S   S457      1.0  0.81664  0.20407  0.52638  1.0000
  S   S458      1.0  0.85564  0.17778  0.56029  1.0000
  Fe  Fe224     1.0  0.83045  0.22866  0.50524  1.0000
  H   H1321     1.0  0.68082  0.03810  0.66318  1.0000
  Fe  Fe225     1.0  0.79831  0.22896  0.54189  1.0000
  S   S459      1.0  0.76546  0.22967  0.55544  1.0000
  S   S460      1.0  0.85496  0.22813  0.52240  1.0000
  S   S461      1.0  0.82028  0.22872  0.56170  1.0000
  C   C1342     1.0  0.90183  0.13620  0.52409  1.0000
  C   C1343     1.0  0.87665  0.28817  0.59144  1.0000
  C   C1344     1.0  0.87555  0.30272  0.57468  1.0000
  C   C1345     1.0  0.86661  0.29945  0.55940  1.0000
  C   C1346     1.0  0.85878  0.28159  0.56063  1.0000
  C   C1347     1.0  0.86075  0.26665  0.57697  1.0000
  C   C1348     1.0  0.86952  0.27000  0.59232  1.0000
  H   H1322     1.0  0.88107  0.31672  0.57373  1.0000
  H   H1323     1.0  0.86529  0.31105  0.54676  1.0000
  H   H1324     1.0  0.85491  0.25280  0.57809  1.0000
  H   H1325     1.0  0.87044  0.25858  0.60516  1.0000
  H   H1326     1.0  0.88710  0.14682  0.57053  1.0000
  C   C1349     1.0  0.74112  0.98597  0.63056  1.0000
  H   H1327     1.0  0.65989  0.10358  0.58797  1.0000
  C   C1350     1.0  0.88169  0.36793  0.69443  1.0000
  C   C1351     1.0  0.86349  0.37275  0.68736  1.0000
  C   C1352     1.0  0.84648  0.38224  0.69872  1.0000
  C   C1353     1.0  0.68371  0.04904  0.60684  1.0000
  H   H1328     1.0  0.67737  0.18636  0.56102  1.0000
  H   H1329     1.0  0.89482  0.36074  0.68569  1.0000
  H   H1330     1.0  0.92456  0.33506  0.67541  1.0000
  C   C1354     1.0  0.84012  0.45658  0.70392  1.0000
  C   C1355     1.0  0.73992  0.17094  0.57928  1.0000
  C   C1356     1.0  0.72803  0.18947  0.58192  1.0000
  C   C1357     1.0  0.73583  0.20745  0.57405  1.0000
  C   C1358     1.0  0.75550  0.20699  0.56356  1.0000
  C   C1359     1.0  0.76706  0.18846  0.56038  1.0000
  C   C1360     1.0  0.75925  0.17053  0.56811  1.0000
  H   H1331     1.0  0.71311  0.18997  0.59052  1.0000
  H   H1332     1.0  0.72676  0.22177  0.57647  1.0000
  H   H1333     1.0  0.78216  0.18789  0.55227  1.0000
  H   H1334     1.0  0.76847  0.15624  0.56589  1.0000
  C   C1361     1.0  0.68240  0.06093  0.63749  1.0000
  H   H1335     1.0  0.88258  0.41332  0.69096  1.0000
  S   S462      1.0  0.67225  0.16714  0.60611  1.0000
  H   H1336     1.0  0.89690  0.36875  0.71825  1.0000
  H   H1337     1.0  0.87051  0.41191  0.66263  1.0000
  C   C1362     1.0  0.97873  0.33308  0.64346  1.0000
  C   C1363     1.0  0.79542  0.14575  0.59913  1.0000
  C   C1364     1.0  0.68358  0.06469  0.61714  1.0000
  H   H1338     1.0  0.84370  0.41641  0.66651  1.0000
  H   H1339     1.0  0.96376  0.12683  0.51229  1.0000
  C   C1365     1.0  0.92023  0.17646  0.48483  1.0000
  H   H1340     1.0  0.91277  0.12464  0.55127  1.0000
  C   C1366     1.0  0.72964  0.00594  0.60167  1.0000
  C   C1367     1.0  0.98839  0.36560  0.64262  1.0000
  C   C1368     1.0  0.87298  0.16190  0.54591  1.0000
  C   C1369     1.0  0.93563  0.39956  0.57750  1.0000
  C   C1370     1.0  0.94346  0.39885  0.59454  1.0000
  H   H1341     1.0  0.93497  0.41432  0.54773  1.0000
  H   H1342     1.0  0.94007  0.38769  0.60709  1.0000
  H   H1343     1.0  0.96203  0.38073  0.69006  1.0000
  H   H1344     1.0  0.66029  0.15123  0.68720  1.0000
  C   C1371     1.0  0.88739  0.14999  0.51490  1.0000
  H   H1345     1.0  0.93099  0.16292  0.51882  1.0000
  C   C1372     1.0  0.78638  0.18675  0.60027  1.0000
  C   C1373     1.0  0.80507  0.17877  0.59047  1.0000
  S   S463      1.0  0.92158  0.12128  0.51094  1.0000
  H   H1346     1.0  0.81527  0.31642  0.56455  1.0000
  H   H1347     1.0  0.96180  0.41201  0.60860  1.0000
  H   H1348     1.0  0.82804  0.46863  0.70770  1.0000
  C   C1374     1.0  0.87311  0.16310  0.52579  1.0000
  N   N111      1.0  0.85644  0.43260  0.68261  1.0000
  H   H1349     1.0  0.78287  0.20287  0.60027  1.0000
  N   N112      1.0  0.68140  0.15774  0.55143  1.0000
  N   N113      1.0  0.91477  0.18643  0.50064  1.0000
  H   H1350     1.0  0.79711  0.28761  0.60047  1.0000
  C   C1375     1.0  0.73018  0.99132  0.57242  1.0000
  C   C1376     1.0  0.92391  0.17896  0.51828  1.0000
  H   H1351     1.0  0.72617  0.12940  0.55797  1.0000
  H   H1352     1.0  0.95871  0.36126  0.64034  1.0000
  N   N114      1.0  0.94856  0.33567  0.68999  1.0000
  S   S464      1.0  0.96023  0.31783  0.64509  1.0000
  H   H1353     1.0  0.74330  0.98447  0.64563  1.0000
  H   H1354     1.0  0.79868  0.12973  0.59859  1.0000
  H   H1355     1.0  0.93483  0.31099  0.68695  1.0000
  H   H1356     1.0  0.67535  0.11337  0.54068  1.0000
  C   C1377     1.0  0.90164  0.13521  0.54411  1.0000
  C   C1378     1.0  0.70056  0.15277  0.55539  1.0000
  N   N115      1.0  0.98722  0.10578  0.50006  1.0000
  C   C1379     1.0  0.71119  0.13338  0.55426  1.0000
  C   C1380     1.0  0.68171  0.04117  0.64742  1.0000
  H   H1357     1.0  0.72828  0.01742  0.62849  1.0000
  C   C1381     1.0  0.75331  0.18300  0.62006  1.0000
  C   C1382     1.0  0.87074  0.42565  0.69434  1.0000
  H   H1358     1.0  0.93548  0.18813  0.51870  1.0000
  H   H1359     1.0  0.66954  0.18671  0.53792  1.0000
  C   C1383     1.0  0.96118  0.42670  0.57882  1.0000
  H   H1360     1.0  0.82974  0.45317  0.67809  1.0000
  H   H1361     1.0  0.95769  0.43816  0.54885  1.0000
  H   H1362     1.0  0.82939  0.34740  0.56336  1.0000
  H   H1363     1.0  0.68066  0.01036  0.64489  1.0000
  H   H1364     1.0  0.82134  0.27208  0.60218  1.0000
  C   C1384     1.0  0.67028  0.17803  0.55282  1.0000
  C   C1385     1.0  0.97105  0.35727  0.57259  1.0000
  C   C1386     1.0  0.85716  0.42373  0.66504  1.0000
  H   H1365     1.0  0.98694  0.05859  0.49229  1.0000
  C   C1387     1.0  0.68235  0.02949  0.61677  1.0000
  C   C1388     1.0  0.97484  0.12572  0.49860  1.0000
  N   N116      1.0  0.77255  0.17448  0.60927  1.0000
  C   C1389     1.0  0.77692  0.15419  0.60897  1.0000
  C   C1390     1.0  0.70211  0.11909  0.54896  1.0000
  C   C1391     1.0  0.68273  0.12442  0.54454  1.0000
  H   H1366     1.0  0.65777  0.07209  0.57685  1.0000
  C   C1392     1.0  0.87000  0.43395  0.71120  1.0000
  H   H1367     1.0  0.89723  0.21191  0.51229  1.0000
  S   S465      1.0  0.68105  0.01095  0.60307  1.0000
  Fe  Fe226     1.0  0.66464  0.15729  0.63877  1.0000
  C   C1393     1.0  0.68163  0.02545  0.63709  1.0000
  C   C1394     1.0  0.84766  0.38712  0.71694  1.0000
  H   H1368     1.0  0.65738  0.14791  0.54261  1.0000
  H   H1369     1.0  0.86218  0.17402  0.51872  1.0000
  C   C1395     1.0  0.97383  0.35402  0.64175  1.0000
  C   C1396     1.0  0.94672  0.35592  0.68986  1.0000
  S   S466      1.0  0.97714  0.44345  0.58001  1.0000
  H   H1370     1.0  0.81451  0.28171  0.57871  1.0000
  C   C1397     1.0  0.96337  0.36460  0.69068  1.0000
  H   H1371     1.0  0.85779  0.43548  0.65180  1.0000
  H   H1372     1.0  0.68456  0.05216  0.59109  1.0000
  C   C1398     1.0  0.88281  0.37253  0.71279  1.0000
  C   C1399     1.0  0.98015  0.35148  0.58923  1.0000
  N   N117      1.0  0.82190  0.30352  0.59302  1.0000
  C   C1400     1.0  0.82998  0.30577  0.60860  1.0000
  C   C1401     1.0  0.82128  0.31841  0.57708  1.0000
  C   C1402     1.0  0.83812  0.32310  0.60829  1.0000
  C   C1403     1.0  0.82929  0.33595  0.57629  1.0000
  C   C1404     1.0  0.83782  0.33823  0.59200  1.0000
  C   C1405     1.0  0.81320  0.28537  0.59370  1.0000
  H   H1373     1.0  0.83092  0.29382  0.62105  1.0000
  H   H1374     1.0  0.93240  0.36552  0.68875  1.0000
  H   H1375     1.0  0.84536  0.32437  0.62028  1.0000
  H   H1376     1.0  0.88758  0.15088  0.49939  1.0000
  H   H1377     1.0  0.84463  0.35146  0.59137  1.0000
  H   H1378     1.0  0.76585  0.14449  0.61590  1.0000
  C   C1406     1.0  0.80958  0.15817  0.58984  1.0000
  C   C1407     1.0  0.94089  0.41374  0.56100  1.0000
  H   H1379     1.0  0.74805  0.19845  0.61281  1.0000
  H   H1380     1.0  0.91931  0.32866  0.70191  1.0000
  H   H1381     1.0  0.93104  0.16272  0.48535  1.0000
  C   C1408     1.0  0.88713  0.14780  0.55501  1.0000
  H   H1382     1.0  0.74139  0.17387  0.62046  1.0000
  H   H1383     1.0  0.97559  0.33913  0.60037  1.0000
  H   H1384     1.0  0.72282  0.02025  0.59439  1.0000
  C   C1409     1.0  0.95597  0.41256  0.59530  1.0000
  H   H1385     1.0  0.81601  0.18846  0.58326  1.0000
  H   H1386     1.0  0.82402  0.15195  0.58209  1.0000
  H   H1387     1.0  0.68413  0.07968  0.60928  1.0000
  C   C1410     1.0  0.95383  0.42715  0.56158  1.0000
  C   C1411     1.0  0.98064  0.09012  0.49500  1.0000
  H   H1388     1.0  0.96828  0.30758  0.69073  1.0000
  C   C1412     1.0  0.98192  0.35238  0.69172  1.0000
  S   S467      1.0  0.68087  0.08070  0.65087  1.0000
  H   H1389     1.0  0.96660  0.12837  0.48605  1.0000
  C   C1413     1.0  0.93093  0.32716  0.68863  1.0000
  Fe  Fe227     1.0  0.65832  0.14082  0.60357  1.0000
  H   H1390     1.0  0.95915  0.34970  0.57080  1.0000
  H   H1391     1.0  0.91226  0.17973  0.53167  1.0000
  C   C1414     1.0  0.85243  0.16943  0.47599  1.0000
  H   H1392     1.0  0.98434  0.38175  0.64179  1.0000
  H   H1393     1.0  0.85292  0.15467  0.48579  1.0000
  H   H1394     1.0  0.88100  0.42797  0.72081  1.0000
  C   C1415     1.0  0.85469  0.44962  0.71587  1.0000
  C   C1416     1.0  0.98358  0.33171  0.69213  1.0000
  C   C1417     1.0  0.73274  0.00443  0.62096  1.0000
  H   H1395     1.0  0.74142  0.99933  0.56184  1.0000
  H   H1396     1.0  0.96665  0.09256  0.48936  1.0000
  H   H1397     1.0  0.71485  0.99981  0.57133  1.0000
  H   H1398     1.0  0.81475  0.18761  0.48549  1.0000
  H   H1399     1.0  0.85046  0.18160  0.48496  1.0000
  H   H1400     1.0  0.98428  0.13781  0.49600  1.0000
  C   C1418     1.0  0.97686  0.37331  0.55852  1.0000
  H   H1401     1.0  0.96944  0.37825  0.54582  1.0000
  C   C1419     1.0  0.86584  0.38226  0.72403  1.0000
  H   H1402     1.0  0.94683  0.45082  0.47448  1.0000
  H   H1403     1.0  0.79863  0.23788  0.47438  1.0000
  H   H1404     1.0  0.75384  0.39014  0.77298  1.0000
  H   H1405     1.0  0.70982  0.25689  0.89920  1.0000
  H   H1406     1.0  0.81770  0.34958  0.86195  1.0000
  C   C1420     1.0  0.88284  0.46343  0.84449  1.0000
  C   C1421     1.0  0.83893  0.37996  0.84825  1.0000
  H   H1407     1.0  0.66815  0.42672  0.96899  1.0000
  H   H1408     1.0  0.81228  0.41223  0.83932  1.0000
  H   H1409     1.0  0.73912  0.37794  0.76152  1.0000
  H   H1410     1.0  0.84522  0.38430  0.83255  1.0000
  S   S468      1.0  0.86826  0.38884  0.74640  1.0000
  H   H1411     1.0  0.71020  0.36427  0.79607  1.0000
  Fe  Fe228     1.0  0.67307  0.33732  0.89256  1.0000
  C   C1422     1.0  0.80849  0.36395  0.85816  1.0000
  H   H1412     1.0  0.69183  0.37298  0.94493  1.0000
  Fe  Fe229     1.0  0.70438  0.33789  0.85528  1.0000
  H   H1413     1.0  0.67540  0.40367  0.85997  1.0000
  S   S469      1.0  0.73763  0.33608  0.84332  1.0000
  C   C1423     1.0  0.67495  0.28572  0.92794  1.0000
  C   C1424     1.0  0.78764  0.36490  0.86093  1.0000
  C   C1425     1.0  0.72000  0.41177  0.78527  1.0000
  H   H1414     1.0  0.84670  0.36470  0.85337  1.0000
  S   S470      1.0  0.68732  0.36205  0.87240  1.0000
  S   S471      1.0  0.69206  0.31272  0.87709  1.0000
  Fe  Fe230     1.0  0.80197  0.41968  0.78652  1.0000
  S   S472      1.0  0.82975  0.39954  0.79485  1.0000
  S   S473      1.0  0.76935  0.41595  0.79755  1.0000
  Fe  Fe231     1.0  0.83843  0.42758  0.80087  1.0000
  S   S474      1.0  0.84839  0.42863  0.82933  1.0000
  S   S475      1.0  0.80960  0.44695  0.79500  1.0000
  H   H1415     1.0  0.74662  0.36657  0.78490  1.0000
  H   H1416     1.0  0.67383  0.29405  0.93988  1.0000
  H   H1417     1.0  0.84254  0.39066  0.85665  1.0000
  C   C1426     1.0  0.66910  0.39287  0.93072  1.0000
  H   H1418     1.0  0.75947  0.38418  0.85802  1.0000
  C   C1427     1.0  0.80545  0.39889  0.84555  1.0000
  C   C1428     1.0  0.69536  0.26481  0.90514  1.0000
  S   S476      1.0  0.68170  0.34031  0.83552  1.0000
  C   C1429     1.0  0.74680  0.35839  0.83144  1.0000
  C   C1430     1.0  0.76659  0.35739  0.82119  1.0000
  C   C1431     1.0  0.77403  0.37501  0.81118  1.0000
  C   C1432     1.0  0.76170  0.39369  0.81151  1.0000
  C   C1433     1.0  0.74217  0.39470  0.82230  1.0000
  C   C1434     1.0  0.73466  0.37712  0.83206  1.0000
  H   H1419     1.0  0.77606  0.34291  0.82071  1.0000
  H   H1420     1.0  0.78911  0.37407  0.80288  1.0000
  H   H1421     1.0  0.73267  0.40915  0.82288  1.0000
  H   H1422     1.0  0.71946  0.37808  0.84004  1.0000
  C   C1435     1.0  0.67852  0.33611  0.94180  1.0000
  C   C1436     1.0  0.69934  0.33184  0.93627  1.0000
  C   C1437     1.0  0.71199  0.33057  0.95007  1.0000
  C   C1438     1.0  0.66128  0.41322  0.86358  1.0000
  C   C1439     1.0  0.77564  0.38329  0.85606  1.0000
  C   C1440     1.0  0.67045  0.33907  0.96115  1.0000
  H   H1423     1.0  0.70572  0.32951  0.92141  1.0000
  H   H1424     1.0  0.72811  0.32724  0.94575  1.0000
  N   N118      1.0  0.72279  0.39135  0.78587  1.0000
  C   C1441     1.0  0.68719  0.41069  0.80513  1.0000
  H   H1425     1.0  0.67973  0.25786  0.88409  1.0000
  C   C1442     1.0  0.70397  0.33375  0.96940  1.0000
  C   C1443     1.0  0.67851  0.26522  0.89675  1.0000
  S   S477      1.0  0.85491  0.43566  0.77043  1.0000
  H   H1426     1.0  0.67827  0.38138  0.81289  1.0000
  C   C1444     1.0  0.78457  0.40036  0.84806  1.0000
  C   C1445     1.0  0.68160  0.38707  0.94491  1.0000
  Fe  Fe232     1.0  0.82532  0.45301  0.76407  1.0000
  H   H1427     1.0  0.70030  0.43781  0.79499  1.0000
  H   H1428     1.0  0.77540  0.41456  0.84348  1.0000
  H   H1429     1.0  0.78077  0.35145  0.86656  1.0000
  N   N119      1.0  0.81711  0.38089  0.85074  1.0000
  C   C1446     1.0  0.69362  0.27514  0.92084  1.0000
  C   C1447     1.0  0.87210  0.45686  0.81013  1.0000
  C   C1448     1.0  0.86487  0.44585  0.82809  1.0000
  C   C1449     1.0  0.87033  0.44909  0.84529  1.0000
  N   N120      1.0  0.68097  0.39897  0.95864  1.0000
  C   C1450     1.0  0.70225  0.42172  0.79504  1.0000
  H   H1430     1.0  0.86804  0.45452  0.79682  1.0000
  H   H1431     1.0  0.86478  0.44062  0.85927  1.0000
  C   C1451     1.0  0.70800  0.38047  0.79553  1.0000
  H   H1432     1.0  0.71002  0.39333  0.96645  1.0000
  S   S478      1.0  0.66204  0.33800  0.92502  1.0000
  C   C1452     1.0  0.68999  0.38999  0.80522  1.0000
  C   C1453     1.0  0.66860  0.41715  0.95822  1.0000
  C   C1454     1.0  0.74148  0.38102  0.77574  1.0000
  S   S479      1.0  0.81548  0.42733  0.75465  1.0000
  Fe  Fe233     1.0  0.84404  0.40922  0.76355  1.0000
  H   H1433     1.0  0.88694  0.46595  0.85779  1.0000
  Fe  Fe234     1.0  0.66784  0.31701  0.85852  1.0000
  H   H1434     1.0  0.73182  0.42039  0.77780  1.0000
  N   N121      1.0  0.65846  0.28587  0.91972  1.0000
  Fe  Fe235     1.0  0.66375  0.36279  0.85432  1.0000
  H   H1435     1.0  0.66943  0.38318  0.92008  1.0000
  H   H1436     1.0  0.67311  0.42968  0.88082  1.0000
  H   H1437     1.0  0.67336  0.41809  0.81295  1.0000
  H   H1438     1.0  0.70669  0.27529  0.92726  1.0000
  C   C1455     1.0  0.66008  0.27589  0.90427  1.0000
  C   C1456     1.0  0.88478  0.47090  0.80928  1.0000
  H   H1439     1.0  0.82474  0.47121  0.82314  1.0000
  C   C1457     1.0  0.69420  0.39233  0.97336  1.0000
  C   C1458     1.0  0.66004  0.42810  0.87520  1.0000
  H   H1440     1.0  0.97368  0.47149  0.92396  1.0000
  C   C1459     1.0  0.98121  0.47780  0.89252  1.0000
  C   C1460     1.0  0.98521  0.47531  0.91154  1.0000
  H   H1441     1.0  0.96666  0.47573  0.89019  1.0000
  C   C1461     1.0  0.89007  0.47435  0.82642  1.0000
  H   H1442     1.0  0.85399  0.45632  0.72882  1.0000
  H   H1443     1.0  0.89043  0.47919  0.79525  1.0000
  H   H1444     1.0  0.84822  0.48035  0.77490  1.0000
  H   H1445     1.0  0.83451  0.39456  0.72550  1.0000
  C   C1462     1.0  0.65614  0.42358  0.94403  1.0000
  C   C1463     1.0  0.65626  0.41126  0.93034  1.0000
  S   S480      1.0  0.93582  0.51589  0.02020  1.0000
  Fe  Fe236     1.0  0.92840  0.57184  0.02779  1.0000
  S   S481      1.0  0.94528  0.54696  0.04636  1.0000
  S   S482      1.0  0.92692  0.60366  0.03231  1.0000
  Fe  Fe237     1.0  0.95925  0.53556  0.01832  1.0000
  H   H1446     1.0  0.82826  0.55757  0.10296  1.0000
  Fe  Fe238     1.0  0.92033  0.53006  0.04660  1.0000
  S   S483      1.0  0.90526  0.51650  0.07613  1.0000
  S   S484      1.0  0.90232  0.55597  0.03008  1.0000
  Fe  Fe239     1.0  0.84432  0.63317  0.11677  1.0000
  S   S485      1.0  0.82161  0.61406  0.11619  1.0000
  S   S486      1.0  0.85821  0.65026  0.08864  1.0000
  Fe  Fe240     1.0  0.83989  0.62630  0.16151  1.0000
  S   S487      1.0  0.81607  0.60657  0.16452  1.0000
  S   S488      1.0  0.85274  0.63010  0.18799  1.0000
  Fe  Fe241     1.0  0.83598  0.59254  0.13957  1.0000
  S   S489      1.0  0.84799  0.56014  0.13507  1.0000
  Fe  Fe242     1.0  0.80365  0.62984  0.14067  1.0000
  S   S490      1.0  0.77123  0.64469  0.14029  1.0000
  S   S491      1.0  0.86041  0.61078  0.13806  1.0000
  S   S492      1.0  0.82576  0.65045  0.13992  1.0000
  H   H1447     1.0  0.72683  0.90792  0.21522  1.0000
  H   H1448     1.0  0.72470  0.63210  0.07787  1.0000
  H   H1449     1.0  0.84417  0.50950  0.05586  1.0000
  S   S493      1.0  0.88781  0.70525  0.20167  1.0000
  C   C1464     1.0  0.69474  0.87399  0.22306  1.0000
  H   H1450     1.0  0.85784  0.57556  0.06432  1.0000
  H   H1451     1.0  0.67720  0.88934  0.17097  1.0000
  C   C1465     1.0  0.69133  0.69970  0.97600  1.0000
  C   C1466     1.0  0.86122  0.56308  0.07636  1.0000
  S   S494      1.0  0.69877  0.73340  0.98787  1.0000
  Fe  Fe243     1.0  0.70928  0.69305  0.05497  1.0000
  S   S495      1.0  0.71021  0.72544  0.04205  1.0000
  S   S496      1.0  0.73755  0.67093  0.05988  1.0000
  Fe  Fe244     1.0  0.68021  0.73165  0.06148  1.0000
  H   H1452     1.0  0.87729  0.55631  0.07317  1.0000
  Fe  Fe245     1.0  0.69260  0.72057  0.02013  1.0000
  S   S497      1.0  0.68034  0.69923  0.07577  1.0000
  S   S498      1.0  0.69428  0.68764  0.03132  1.0000
  H   H1453     1.0  0.87849  0.63378  0.21423  1.0000
  Fe  Fe246     1.0  0.91973  0.54335  0.00339  1.0000
  H   H1454     1.0  0.67065  0.65136  0.11624  1.0000
  H   H1455     1.0  0.66191  0.79313  0.15711  1.0000
  C   C1467     1.0  0.82738  0.67361  0.21986  1.0000
  C   C1468     1.0  0.88397  0.66458  0.20827  1.0000
  H   H1456     1.0  0.72164  0.64257  0.04150  1.0000
  H   H1457     1.0  0.65756  0.75118  0.15218  1.0000
  H   H1458     1.0  0.81919  0.67410  0.20804  1.0000
  C   C1469     1.0  0.86491  0.65031  0.18969  1.0000
  C   C1470     1.0  0.86215  0.66894  0.17755  1.0000
  C   C1471     1.0  0.86991  0.68537  0.18102  1.0000
  C   C1472     1.0  0.88053  0.68341  0.19660  1.0000
  H   H1459     1.0  0.68157  0.91453  0.16951  1.0000
  C   C1473     1.0  0.87617  0.64815  0.20483  1.0000
  H   H1460     1.0  0.85354  0.67086  0.16585  1.0000
  H   H1461     1.0  0.86726  0.69983  0.17182  1.0000
  C   C1474     1.0  0.85249  0.53486  0.06475  1.0000
  C   C1475     1.0  0.82445  0.51832  0.08167  1.0000
  C   C1476     1.0  0.76175  0.65170  0.11796  1.0000
  C   C1477     1.0  0.77190  0.64416  0.10098  1.0000
  C   C1478     1.0  0.76412  0.65005  0.08340  1.0000
  C   C1479     1.0  0.74623  0.66369  0.08254  1.0000
  C   C1480     1.0  0.73598  0.67126  0.09948  1.0000
  C   C1481     1.0  0.74368  0.66517  0.11716  1.0000
  H   H1462     1.0  0.78565  0.63363  0.10140  1.0000
  H   H1463     1.0  0.77214  0.64413  0.07035  1.0000
  H   H1464     1.0  0.72218  0.68182  0.09897  1.0000
  H   H1465     1.0  0.73571  0.67106  0.13025  1.0000
  C   C1482     1.0  0.83345  0.54038  0.14174  1.0000
  C   C1483     1.0  0.81381  0.54305  0.15201  1.0000
  C   C1484     1.0  0.80268  0.52697  0.15664  1.0000
  C   C1485     1.0  0.81091  0.50829  0.15064  1.0000
  C   C1486     1.0  0.83047  0.50574  0.14014  1.0000
  C   C1487     1.0  0.84175  0.52163  0.13595  1.0000
  H   H1466     1.0  0.80723  0.55743  0.15654  1.0000
  H   H1467     1.0  0.78757  0.52907  0.16482  1.0000
  H   H1468     1.0  0.83700  0.49150  0.13537  1.0000
  H   H1469     1.0  0.85689  0.51948  0.12794  1.0000
  H   H1470     1.0  0.66508  0.65153  0.99394  1.0000
  C   C1488     1.0  0.89010  0.49867  0.07576  1.0000
  H   H1471     1.0  0.66718  0.66983  0.02015  1.0000
  H   H1472     1.0  0.70767  0.64015  0.11040  1.0000
  C   C1489     1.0  0.70841  0.63453  0.04617  1.0000
  C   C1490     1.0  0.68869  0.89847  0.17179  1.0000
  H   H1473     1.0  0.67711  0.87069  0.20224  1.0000
  C   C1491     1.0  0.71615  0.89947  0.21232  1.0000
  Fe  Fe247     1.0  0.66530  0.69667  0.05076  1.0000
  H   H1474     1.0  0.89976  0.49626  0.04516  1.0000
  C   C1492     1.0  0.90679  0.61575  0.04767  1.0000
  C   C1493     1.0  0.90577  0.63637  0.04736  1.0000
  C   C1494     1.0  0.89064  0.64669  0.05984  1.0000
  C   C1495     1.0  0.87667  0.63641  0.07318  1.0000
  C   C1496     1.0  0.87759  0.61567  0.07370  1.0000
  C   C1497     1.0  0.89250  0.60537  0.06065  1.0000
  H   H1475     1.0  0.91675  0.64445  0.03737  1.0000
  H   H1476     1.0  0.88999  0.66268  0.05935  1.0000
  H   H1477     1.0  0.86674  0.60770  0.08397  1.0000
  H   H1478     1.0  0.89329  0.58944  0.06090  1.0000
  H   H1479     1.0  0.66391  0.77133  0.13253  1.0000
  N   N122      1.0  0.84832  0.54783  0.07811  1.0000
  C   C1498     1.0  0.66738  0.64900  0.08701  1.0000
  H   H1480     1.0  0.68867  0.69330  0.99130  1.0000
  H   H1481     1.0  0.97845  0.56637  0.02151  1.0000
  S   S499      1.0  0.90240  0.54426  0.97918  1.0000
  H   H1482     1.0  0.71354  0.61811  0.04671  1.0000
  H   H1483     1.0  0.87727  0.49803  0.10625  1.0000
  H   H1484     1.0  0.66793  0.79503  0.09303  1.0000
  C   C1499     1.0  0.68831  0.87865  0.20486  1.0000
  C   C1500     1.0  0.81995  0.53198  0.09488  1.0000
  N   N123      1.0  0.69785  0.63879  0.06551  1.0000
  H   H1485     1.0  0.85909  0.56939  0.09020  1.0000
  H   H1486     1.0  0.81563  0.50631  0.08345  1.0000
  H   H1487     1.0  0.86543  0.53560  0.05312  1.0000
  H   H1488     1.0  0.80751  0.53079  0.10701  1.0000
  C   C1501     1.0  0.69897  0.64120  0.09886  1.0000
  S   S500      1.0  0.94432  0.56189  0.99940  1.0000
  C   C1502     1.0  0.67747  0.64447  0.06872  1.0000
  C   C1503     1.0  0.87728  0.49236  0.09295  1.0000
  N   N124      1.0  0.69555  0.89348  0.19081  1.0000
  C   C1504     1.0  0.83193  0.54695  0.09267  1.0000
  C   C1505     1.0  0.70854  0.63670  0.08040  1.0000
  C   C1506     1.0  0.67825  0.64749  0.10211  1.0000
  H   H1489     1.0  0.69868  0.63982  0.03475  1.0000
  N   N125      1.0  0.90591  0.55876  0.11016  1.0000
  C   C1507     1.0  0.89978  0.57507  0.11967  1.0000
  C   C1508     1.0  0.91917  0.56000  0.09290  1.0000
  C   C1509     1.0  0.90724  0.59316  0.11204  1.0000
  C   C1510     1.0  0.92688  0.57786  0.08484  1.0000
  C   C1511     1.0  0.92079  0.59453  0.09447  1.0000
  C   C1512     1.0  0.89742  0.54016  0.11781  1.0000
  H   H1490     1.0  0.88892  0.57419  0.13314  1.0000
  H   H1491     1.0  0.92366  0.54717  0.08524  1.0000
  H   H1492     1.0  0.90228  0.60619  0.11944  1.0000
  H   H1493     1.0  0.93700  0.57908  0.07089  1.0000
  H   H1494     1.0  0.92612  0.60867  0.08800  1.0000
  H   H1495     1.0  0.89132  0.53904  0.13375  1.0000
  H   H1496     1.0  0.88499  0.53974  0.11002  1.0000
  H   H1497     1.0  0.90897  0.52669  0.11560  1.0000
  N   N126      1.0  0.79859  0.68241  0.08142  1.0000
  C   C1513     1.0  0.80945  0.67650  0.06443  1.0000
  C   C1514     1.0  0.78026  0.69438  0.08144  1.0000
  C   C1515     1.0  0.80167  0.68205  0.04693  1.0000
  C   C1516     1.0  0.77210  0.70031  0.06418  1.0000
  C   C1517     1.0  0.78279  0.69389  0.04689  1.0000
  C   C1518     1.0  0.80689  0.67584  0.09958  1.0000
  H   H1498     1.0  0.82412  0.66720  0.06448  1.0000
  H   H1499     1.0  0.77154  0.69885  0.09495  1.0000
  H   H1500     1.0  0.81012  0.67700  0.03356  1.0000
  H   H1501     1.0  0.75721  0.70911  0.06435  1.0000
  H   H1502     1.0  0.77625  0.69786  0.03359  1.0000
  H   H1503     1.0  0.81243  0.65941  0.10125  1.0000
  H   H1504     1.0  0.81970  0.68375  0.09921  1.0000
  H   H1505     1.0  0.79545  0.67846  0.11278  1.0000
  S   S501      1.0  0.79661  0.48834  0.15700  1.0000
  H   H1506     1.0  0.70154  0.89589  0.15977  1.0000
  C   C1519     1.0  0.84054  0.52003  0.06625  1.0000
  S   S502      1.0  0.67717  0.75783  0.07804  1.0000
  C   C1520     1.0  0.88994  0.49139  0.05854  1.0000
  H   H1507     1.0  0.93592  0.51107  0.97670  1.0000
  H   H1508     1.0  0.89235  0.66276  0.22012  1.0000
  H   H1509     1.0  0.83158  0.70472  0.21213  1.0000
  H   H1510     1.0  0.71446  0.91610  0.18350  1.0000
  H   H1511     1.0  0.66889  0.64585  0.05704  1.0000
  S   S503      1.0  0.66270  0.72959  0.03833  1.0000
  C   C1521     1.0  0.83430  0.69077  0.22215  1.0000
  C   C1522     1.0  0.70917  0.90396  0.19440  1.0000
  S   S504      1.0  0.92064  0.73398  0.22409  1.0000
  H   H1512     1.0  0.78660  0.93463  0.26703  1.0000
  S   S505      1.0  0.92864  0.94825  0.40667  1.0000
  H   H1513     1.0  0.82621  0.88292  0.45131  1.0000
  Fe  Fe248     1.0  0.88119  0.95732  0.44597  1.0000
  S   S506      1.0  0.89936  0.92710  0.44407  1.0000
  N   N127      1.0  0.98245  0.67305  0.29701  1.0000
  Fe  Fe249     1.0  0.92632  0.94226  0.43930  1.0000
  Fe  Fe250     1.0  0.90012  0.93501  0.41167  1.0000
  S   S507      1.0  0.89670  0.90632  0.40217  1.0000
  H   H1514     1.0  0.81986  0.88709  0.41729  1.0000
  S   S508      1.0  0.87967  0.96458  0.41386  1.0000
  H   H1515     1.0  0.95589  0.97685  0.44179  1.0000
  H   H1516     1.0  0.85355  0.93569  0.43737  1.0000
  C   C1523     1.0  0.97879  0.73088  0.26226  1.0000
  C   C1524     1.0  0.79946  0.92112  0.29276  1.0000
  H   H1517     1.0  0.75043  0.79934  0.36262  1.0000
  H   H1518     1.0  0.87238  0.81254  0.34103  1.0000
  S   S509      1.0  0.90800  0.97193  0.44448  1.0000
  S   S510      1.0  0.97448  0.70484  0.23834  1.0000
  N   N128      1.0  0.74661  0.84019  0.39485  1.0000
  C   C1525     1.0  0.91173  0.87330  0.44251  1.0000
  H   H1519     1.0  0.66659  0.95164  0.31143  1.0000
  C   C1526     1.0  0.83109  0.89543  0.44070  1.0000
  S   S511      1.0  0.98044  0.63163  0.38945  1.0000
  H   H1520     1.0  0.91657  0.52681  0.35976  1.0000
  H   H1521     1.0  0.94872  0.66132  0.27367  1.0000
  H   H1522     1.0  0.98826  0.93063  0.46898  1.0000
  C   C1527     1.0  0.74902  0.81069  0.37187  1.0000
  H   H1523     1.0  0.74750  0.96135  0.28086  1.0000
  H   H1524     1.0  0.92172  0.77088  0.28623  1.0000
  Fe  Fe251     1.0  0.90482  0.69696  0.27017  1.0000
  S   S512      1.0  0.92318  0.72050  0.27096  1.0000
  S   S513      1.0  0.89874  0.67253  0.29555  1.0000
  Fe  Fe252     1.0  0.90196  0.74104  0.25279  1.0000
  S   S514      1.0  0.89198  0.77371  0.25685  1.0000
  S   S515      1.0  0.88184  0.71818  0.25460  1.0000
  Fe  Fe253     1.0  0.78796  0.86286  0.34299  1.0000
  S   S516      1.0  0.79392  0.83198  0.36009  1.0000
  S   S517      1.0  0.75620  0.87532  0.33793  1.0000
  Fe  Fe254     1.0  0.82861  0.87195  0.34632  1.0000
  S   S518      1.0  0.83787  0.84162  0.36365  1.0000
  S   S519      1.0  0.84484  0.89881  0.33951  1.0000
  Fe  Fe255     1.0  0.82478  0.82975  0.34197  1.0000
  S   S520      1.0  0.83698  0.79837  0.33466  1.0000
  Fe  Fe256     1.0  0.80642  0.84610  0.38023  1.0000
  S   S521      1.0  0.79468  0.83952  0.41267  1.0000
  S   S522      1.0  0.81792  0.85991  0.32308  1.0000
  S   S523      1.0  0.79816  0.87719  0.36456  1.0000
  Fe  Fe257     1.0  0.69943  0.92667  0.25432  1.0000
  H   H1525     1.0  0.73394  0.83439  0.35248  1.0000
  S   S524      1.0  0.73131  0.91060  0.25479  1.0000
  H   H1526     1.0  0.95098  0.48867  0.31926  1.0000
  Fe  Fe258     1.0  0.94040  0.71170  0.24269  1.0000
  C   C1528     1.0  0.97960  0.93558  0.42233  1.0000
  S   S525      1.0  0.68465  0.95063  0.27258  1.0000
  C   C1529     1.0  0.96387  0.52756  0.33410  1.0000
  C   C1530     1.0  0.74957  0.88394  0.31453  1.0000
  C   C1531     1.0  0.76373  0.88300  0.29738  1.0000
  C   C1532     1.0  0.75789  0.89085  0.27904  1.0000
  C   C1533     1.0  0.73794  0.89970  0.27781  1.0000
  C   C1534     1.0  0.72380  0.90053  0.29497  1.0000
  C   C1535     1.0  0.72962  0.89266  0.31326  1.0000
  H   H1527     1.0  0.77915  0.87632  0.29823  1.0000
  H   H1528     1.0  0.76889  0.89018  0.26579  1.0000
  H   H1529     1.0  0.70840  0.90734  0.29417  1.0000
  H   H1530     1.0  0.71860  0.89347  0.32649  1.0000
  C   C1536     1.0  0.91307  0.77211  0.30074  1.0000
  C   C1537     1.0  0.81422  0.84051  0.46304  1.0000
  C   C1538     1.0  0.80219  0.83951  0.44938  1.0000
  C   C1539     1.0  0.81024  0.84075  0.42935  1.0000
  C   C1540     1.0  0.83039  0.84298  0.42299  1.0000
  C   C1541     1.0  0.84247  0.84374  0.43667  1.0000
  H   H1531     1.0  0.78660  0.83782  0.45437  1.0000
  H   H1532     1.0  0.83671  0.84398  0.40759  1.0000
  H   H1533     1.0  0.85807  0.84546  0.43166  1.0000
  C   C1542     1.0  0.87442  0.78052  0.27736  1.0000
  C   C1543     1.0  0.86727  0.76594  0.29251  1.0000
  C   C1544     1.0  0.85505  0.77177  0.30963  1.0000
  C   C1545     1.0  0.84980  0.79218  0.31173  1.0000
  C   C1546     1.0  0.85627  0.80682  0.29627  1.0000
  C   C1547     1.0  0.86862  0.80098  0.27917  1.0000
  H   H1534     1.0  0.87160  0.75016  0.29124  1.0000
  H   H1535     1.0  0.85003  0.76037  0.32152  1.0000
  H   H1536     1.0  0.85218  0.82258  0.29766  1.0000
  H   H1537     1.0  0.87402  0.81233  0.26742  1.0000
  H   H1538     1.0  0.96293  0.73641  0.26274  1.0000
  C   C1548     1.0  0.94134  0.67462  0.33686  1.0000
  C   C1549     1.0  0.93018  0.69238  0.32873  1.0000
  C   C1550     1.0  0.91655  0.69162  0.31661  1.0000
  C   C1551     1.0  0.91404  0.67313  0.31254  1.0000
  C   C1552     1.0  0.92474  0.65530  0.32115  1.0000
  C   C1553     1.0  0.93849  0.65605  0.33323  1.0000
  H   H1539     1.0  0.93213  0.70672  0.33175  1.0000
  H   H1540     1.0  0.90771  0.70529  0.31059  1.0000
  H   H1541     1.0  0.92273  0.64096  0.31814  1.0000
  H   H1542     1.0  0.94680  0.64228  0.33974  1.0000
  S   S526      1.0  0.98574  0.61906  0.34548  1.0000
  C   C1554     1.0  0.74641  0.85619  0.40610  1.0000
  C   C1555     1.0  0.93018  0.52278  0.34961  1.0000
  N   N129      1.0  0.76445  0.93426  0.29292  1.0000
  H   H1543     1.0  0.73340  0.94074  0.29006  1.0000
  H   H1544     1.0  0.95468  0.89043  0.44212  1.0000
  C   C1556     1.0  0.98721  0.55849  0.43958  1.0000
  H   H1545     1.0  0.91349  0.87168  0.42721  1.0000
  C   C1557     1.0  0.90550  0.79105  0.30621  1.0000
  H   H1546     1.0  0.68857  0.86263  0.23435  1.0000
  H   H1547     1.0  0.84790  0.64043  0.25541  1.0000
  C   C1558     1.0  0.96644  0.67556  0.28746  1.0000
  C   C1559     1.0  0.88165  0.90513  0.38502  1.0000
  C   C1560     1.0  0.87666  0.92155  0.37077  1.0000
  C   C1561     1.0  0.86533  0.91953  0.35682  1.0000
  C   C1562     1.0  0.85864  0.90125  0.35734  1.0000
  C   C1563     1.0  0.86319  0.88508  0.37197  1.0000
  C   C1564     1.0  0.87485  0.88693  0.38559  1.0000
  H   H1548     1.0  0.88197  0.93559  0.37015  1.0000
  H   H1549     1.0  0.86189  0.93210  0.34553  1.0000
  H   H1550     1.0  0.85812  0.87097  0.37257  1.0000
  H   H1551     1.0  0.87860  0.87420  0.39662  1.0000
  C   C1565     1.0  0.75711  0.80598  0.38916  1.0000
  C   C1566     1.0  0.83443  0.84247  0.45670  1.0000
  C   C1567     1.0  0.89638  0.75672  0.33184  1.0000
  C   C1568     1.0  0.73855  0.84489  0.37800  1.0000
  N   N130      1.0  0.89350  0.79275  0.32397  1.0000
  S   S527      1.0  0.97473  0.57650  0.39077  1.0000
  S   S528      1.0  0.92344  0.68650  0.24308  1.0000
  C   C1569     1.0  0.73969  0.83028  0.36622  1.0000
  H   H1552     1.0  0.73171  0.86020  0.37325  1.0000
  N   N131      1.0  0.85048  0.67167  0.24861  1.0000
  H   H1553     1.0  0.91947  0.49831  0.34150  1.0000
  C   C1570     1.0  0.86368  0.67056  0.26292  1.0000
  C   C1571     1.0  0.94260  0.88816  0.43471  1.0000
  C   C1572     1.0  0.94630  0.53328  0.34694  1.0000
  C   C1573     1.0  0.77617  0.91969  0.32324  1.0000
  H   H1554     1.0  0.87907  0.77727  0.35068  1.0000
  H   H1555     1.0  0.96186  0.53794  0.40030  1.0000
  H   H1556     1.0  0.93753  0.90267  0.42568  1.0000
  H   H1557     1.0  0.90871  0.80439  0.29584  1.0000
  H   H1558     1.0  0.86407  0.65627  0.27346  1.0000
  N   N132      1.0  0.92553  0.88144  0.44887  1.0000
  H   H1559     1.0  0.74547  0.93182  0.32088  1.0000
  H   H1560     1.0  0.88128  0.82364  0.31668  1.0000
  H   H1561     1.0  0.88406  0.86092  0.45036  1.0000
  H   H1562     1.0  0.76286  0.81742  0.41351  1.0000
  N   N133      1.0  0.84099  0.90858  0.44598  1.0000
  C   C1574     1.0  0.84628  0.92495  0.43293  1.0000
  Fe  Fe259     1.0  0.67513  0.96836  0.24497  1.0000
  C   C1575     1.0  0.84253  0.92798  0.41371  1.0000
  H   H1563     1.0  0.81460  0.91800  0.28477  1.0000
  C   C1576     1.0  0.83308  0.91424  0.40798  1.0000
  C   C1577     1.0  0.88594  0.81277  0.32943  1.0000
  C   C1578     1.0  0.84504  0.90565  0.46604  1.0000
  H   H1564     1.0  0.84731  0.94066  0.40323  1.0000
  C   C1579     1.0  0.93178  0.50683  0.33937  1.0000
  H   H1565     1.0  0.83056  0.91612  0.39296  1.0000
  S   S529      1.0  0.95182  0.92884  0.45577  1.0000
  H   H1566     1.0  0.82752  0.64189  0.22975  1.0000
  C   C1580     1.0  0.84374  0.65475  0.24647  1.0000
  C   C1581     1.0  0.94969  0.50136  0.32686  1.0000
  C   C1582     1.0  0.96170  0.65931  0.28085  1.0000
  C   C1583     1.0  0.97395  0.53750  0.38788  1.0000
  H   H1567     1.0  0.96800  0.93504  0.41426  1.0000
  C   C1584     1.0  0.82721  0.89789  0.42157  1.0000
  H   H1568     1.0  0.94921  0.87691  0.42482  1.0000
  H   H1569     1.0  0.97409  0.50632  0.38648  1.0000
  C   C1585     1.0  0.88900  0.77591  0.33680  1.0000
  C   C1586     1.0  0.79569  0.91573  0.31309  1.0000
  C   C1587     1.0  0.74818  0.94481  0.28235  1.0000
  H   H1570     1.0  0.89229  0.74342  0.34178  1.0000
  C   C1588     1.0  0.92286  0.88427  0.46801  1.0000
  S   S530      1.0  0.69234  0.94570  0.22608  1.0000
  H   H1571     1.0  0.89769  0.81826  0.33486  1.0000
  S   S531      1.0  0.67266  0.91065  0.25928  1.0000
  C   C1589     1.0  0.98086  0.51958  0.38007  1.0000
  H   H1572     1.0  0.84740  0.88941  0.47229  1.0000
  H   H1573     1.0  0.75828  0.86537  0.39861  1.0000
  N   N134      1.0  0.96551  0.51154  0.32454  1.0000
  C   C1590     1.0  0.75588  0.82104  0.40048  1.0000
  C   C1591     1.0  0.90845  0.75487  0.31366  1.0000
  H   H1574     1.0  0.87927  0.67169  0.25521  1.0000
  S   S532      1.0  0.95919  0.67625  0.35091  1.0000
  H   H1575     1.0  0.74955  0.84997  0.42114  1.0000
  Fe  Fe260     1.0  0.90816  0.97714  0.41207  1.0000
  H   H1576     1.0  0.73160  0.86607  0.40743  1.0000
  Fe  Fe261     1.0  0.97973  0.64738  0.35868  1.0000
  H   H1577     1.0  0.91375  0.74016  0.30935  1.0000
  C   C1592     1.0  0.76065  0.92911  0.31288  1.0000
  C   C1593     1.0  0.83204  0.65549  0.23211  1.0000
  H   H1578     1.0  0.77300  0.91509  0.33899  1.0000
  H   H1579     1.0  0.76490  0.79095  0.39343  1.0000
  H   H1580     1.0  0.94538  0.54554  0.35502  1.0000
  C   C1594     1.0  0.78358  0.93050  0.28285  1.0000
  S   S533      1.0  0.85354  0.95886  0.46882  1.0000
  Fe  Fe262     1.0  0.66444  0.93113  0.23208  1.0000
  H   H1581     1.0  0.98323  0.54758  0.45300  1.0000
  H   H1582     1.0  0.80787  0.90842  0.32096  1.0000
  C   C1595     1.0  0.97573  0.93275  0.44281  1.0000
  H   H1583     1.0  0.97344  0.56497  0.43311  1.0000
  H   H1584     1.0  0.66656  0.97744  0.33172  1.0000
  C   C1596     1.0  0.89497  0.86732  0.45552  1.0000
  H   H1585     1.0  0.95714  0.69012  0.28504  1.0000
  H   H1586     1.0  0.85849  0.68304  0.27167  1.0000
  H   H1587     1.0  0.85206  0.70270  0.23766  1.0000
  H   H1588     1.0  0.85886  0.91164  0.46648  1.0000
  H   H1589     1.0  0.71387  0.88111  0.24083  1.0000
  C   C1597     1.0  0.98284  0.55471  0.37991  1.0000
  H   H1590     1.0  0.97009  0.62778  0.27878  1.0000
  H   H1591     1.0  0.75041  0.94057  0.26749  1.0000
  H   H1592     1.0  0.97451  0.70257  0.30477  1.0000
  C   C1598     1.0  0.84595  0.68950  0.23665  1.0000
  C   C1599     1.0  0.97366  0.64051  0.28377  1.0000
  S   S534      1.0  0.84978  0.84475  0.47315  1.0000
  H   H1593     1.0  0.98304  0.75204  0.27962  1.0000
  H   H1594     1.0  0.97460  0.71533  0.34953  1.0000
  Fe  Fe263     1.0  0.90190  0.70936  0.22717  1.0000
  H   H1595     1.0  0.98172  0.50726  0.29631  1.0000
  C   C1600     1.0  0.70886  0.88440  0.22672  1.0000
  H   H1596     1.0  0.97637  0.53570  0.33223  1.0000
  Fe  Fe264     1.0  0.65716  0.93643  0.27527  1.0000
  C   C1601     1.0  0.98735  0.69005  0.30401  1.0000
  C   C1602     1.0  0.98801  0.71532  0.25169  1.0000
  C   C1603     1.0  0.98422  0.50506  0.31170  1.0000
  H   H1597     1.0  0.93334  0.89150  0.47289  1.0000
  H   H1598     1.0  0.96540  0.98021  0.41575  1.0000
  H   H1599     1.0  0.98795  0.69345  0.37791  1.0000
  Fe  Fe265     1.0  0.70692  0.93760  0.62056  1.0000
  S   S535      1.0  0.69601  0.96070  0.64073  1.0000
  S   S536      1.0  0.73871  0.92104  0.61733  1.0000
  H   H1600     1.0  0.92943  0.72525  0.53844  1.0000
  H   H1601     1.0  0.74700  0.95835  0.59407  1.0000
  C   C1604     1.0  0.89690  0.84927  0.57111  1.0000
  H   H1602     1.0  0.97178  0.64531  0.68783  1.0000
  H   H1603     1.0  0.80788  0.83968  0.47844  1.0000
  H   H1604     1.0  0.93925  0.63220  0.69842  1.0000
  H   H1605     1.0  0.88641  0.80825  0.61587  1.0000
  S   S537      1.0  0.69342  0.95645  0.59544  1.0000
  S   S538      1.0  0.68088  0.92098  0.63196  1.0000
  Fe  Fe266     1.0  0.83513  0.82701  0.54786  1.0000
  S   S539      1.0  0.82509  0.85644  0.55918  1.0000
  S   S540      1.0  0.83849  0.79868  0.57017  1.0000
  Fe  Fe267     1.0  0.83693  0.84667  0.50498  1.0000
  S   S541      1.0  0.82672  0.87749  0.51290  1.0000
  H   H1606     1.0  0.91109  0.66137  0.57721  1.0000
  Fe  Fe268     1.0  0.84796  0.86798  0.53441  1.0000
  S   S542      1.0  0.87052  0.88704  0.53614  1.0000
  Fe  Fe269     1.0  0.80452  0.86347  0.53691  1.0000
  S   S543      1.0  0.77237  0.87936  0.54210  1.0000
  S   S544      1.0  0.85987  0.83806  0.52499  1.0000
  S   S545      1.0  0.81279  0.83303  0.52712  1.0000
  H   H1607     1.0  0.87939  0.86511  0.48538  1.0000
  C   C1605     1.0  0.88176  0.91817  0.50797  1.0000
  Fe  Fe270     1.0  0.93359  0.69514  0.62435  1.0000
  S   S546      1.0  0.95469  0.71764  0.61398  1.0000
  S   S547      1.0  0.93605  0.66766  0.61065  1.0000
  Fe  Fe271     1.0  0.91175  0.71535  0.65902  1.0000
  S   S548      1.0  0.93086  0.73992  0.65139  1.0000
  S   S549      1.0  0.88971  0.71342  0.68741  1.0000
  Fe  Fe272     1.0  0.92683  0.74020  0.62037  1.0000
  S   S550      1.0  0.92275  0.76812  0.59770  1.0000
  Fe  Fe273     1.0  0.95675  0.71525  0.64562  1.0000
  H   H1608     1.0  0.98397  0.63552  0.56036  1.0000
  S   S551      1.0  0.90550  0.71764  0.62846  1.0000
  S   S552      1.0  0.93785  0.69072  0.65552  1.0000
  C   C1606     1.0  0.87725  0.84612  0.57919  1.0000
  C   C1607     1.0  0.81023  0.66975  0.72322  1.0000
  H   H1609     1.0  0.87560  0.64869  0.67769  1.0000
  H   H1610     1.0  0.75288  0.95488  0.62806  1.0000
  C   C1608     1.0  0.86464  0.65416  0.70736  1.0000
  C   C1609     1.0  0.88918  0.82003  0.60346  1.0000
  H   H1611     1.0  0.89294  0.72960  0.58403  1.0000
  C   C1610     1.0  0.87992  0.69069  0.69479  1.0000
  C   C1611     1.0  0.88210  0.67708  0.68176  1.0000
  C   C1612     1.0  0.87423  0.65898  0.68797  1.0000
  C   C1613     1.0  0.92643  0.67542  0.54977  1.0000
  H   H1612     1.0  0.90415  0.88049  0.49662  1.0000
  H   H1613     1.0  0.88959  0.68061  0.66679  1.0000
  H   H1614     1.0  0.95067  0.70012  0.58222  1.0000
  H   H1615     1.0  0.84576  0.83982  0.61285  1.0000
  C   C1614     1.0  0.95814  0.68603  0.57771  1.0000
  N   N135      1.0  0.91299  0.71123  0.56479  1.0000
  C   C1615     1.0  0.93163  0.69348  0.53888  1.0000
  C   C1616     1.0  0.91442  0.67543  0.56820  1.0000
  H   H1616     1.0  0.90448  0.74321  0.56179  1.0000
  C   C1617     1.0  0.87031  0.68588  0.71421  1.0000
  C   C1618     1.0  0.94336  0.70754  0.70490  1.0000
  C   C1619     1.0  0.86224  0.78926  0.57686  1.0000
  C   C1620     1.0  0.87956  0.79633  0.56604  1.0000
  C   C1621     1.0  0.89817  0.78922  0.57223  1.0000
  C   C1622     1.0  0.89952  0.77526  0.58943  1.0000
  C   C1623     1.0  0.88225  0.76800  0.60014  1.0000
  C   C1624     1.0  0.86369  0.77487  0.59377  1.0000
  H   H1617     1.0  0.87865  0.80731  0.55294  1.0000
  H   H1618     1.0  0.91150  0.79487  0.56385  1.0000
  H   H1619     1.0  0.88308  0.75743  0.61356  1.0000
  H   H1620     1.0  0.85031  0.76937  0.60222  1.0000
  H   H1621     1.0  0.95972  0.63549  0.59153  1.0000
  C   C1625     1.0  0.74885  0.91137  0.59540  1.0000
  C   C1626     1.0  0.76782  0.89939  0.59373  1.0000
  C   C1627     1.0  0.77568  0.89032  0.57695  1.0000
  C   C1628     1.0  0.76464  0.89324  0.56171  1.0000
  C   C1629     1.0  0.74606  0.90598  0.56302  1.0000
  C   C1630     1.0  0.73812  0.91493  0.57985  1.0000
  H   H1622     1.0  0.77626  0.89670  0.60565  1.0000
  H   H1623     1.0  0.78998  0.88057  0.57616  1.0000
  H   H1624     1.0  0.73752  0.90848  0.55119  1.0000
  H   H1625     1.0  0.72351  0.92417  0.58093  1.0000
  H   H1626     1.0  0.91914  0.73196  0.58083  1.0000
  C   C1631     1.0  0.87801  0.93405  0.49270  1.0000
  S   S553      1.0  0.85412  0.63181  0.71432  1.0000
  C   C1632     1.0  0.90903  0.82269  0.59568  1.0000
  C   C1633     1.0  0.92492  0.67919  0.71036  1.0000
  C   C1634     1.0  0.95854  0.65466  0.69433  1.0000
  H   H1627     1.0  0.91169  0.68872  0.71662  1.0000
  C   C1635     1.0  0.90712  0.72987  0.57326  1.0000
  C   C1636     1.0  0.90795  0.69355  0.57561  1.0000
  H   H1628     1.0  0.89705  0.91211  0.50992  1.0000
  H   H1629     1.0  0.82447  0.69588  0.72069  1.0000
  H   H1630     1.0  0.84402  0.82980  0.59135  1.0000
  H   H1631     1.0  0.97470  0.70017  0.55103  1.0000
  C   C1637     1.0  0.95379  0.66781  0.58908  1.0000
  C   C1638     1.0  0.92480  0.71136  0.54670  1.0000
  H   H1632     1.0  0.89955  0.69321  0.59041  1.0000
  C   C1639     1.0  0.98079  0.66787  0.55364  1.0000
  C   C1640     1.0  0.85291  0.82846  0.60323  1.0000
  Fe  Fe274     1.0  0.66844  0.94558  0.64984  1.0000
  C   C1641     1.0  0.97155  0.68606  0.55994  1.0000
  C   C1642     1.0  0.86579  0.90959  0.52002  1.0000
  C   C1643     1.0  0.84604  0.91801  0.51785  1.0000
  C   C1644     1.0  0.84227  0.93418  0.50289  1.0000
  H   H1633     1.0  0.83362  0.91190  0.52758  1.0000
  N   N136      1.0  0.72656  0.86684  0.58587  1.0000
  C   C1645     1.0  0.72430  0.86733  0.56690  1.0000
  C   C1646     1.0  0.71213  0.87722  0.59819  1.0000
  C   C1647     1.0  0.70754  0.87898  0.55965  1.0000
  C   C1648     1.0  0.69508  0.88881  0.59146  1.0000
  C   C1649     1.0  0.69288  0.88982  0.57205  1.0000
  C   C1650     1.0  0.74419  0.85458  0.59327  1.0000
  H   H1634     1.0  0.73587  0.85930  0.55705  1.0000
  H   H1635     1.0  0.71394  0.87697  0.61320  1.0000
  H   H1636     1.0  0.86495  0.85543  0.57261  1.0000
  H   H1637     1.0  0.68371  0.89716  0.60115  1.0000
  H   H1638     1.0  0.67985  0.89913  0.56667  1.0000
  H   H1639     1.0  0.74917  0.86212  0.60374  1.0000
  H   H1640     1.0  0.74060  0.83959  0.60070  1.0000
  H   H1641     1.0  0.75716  0.85252  0.58117  1.0000
  H   H1642     1.0  0.93235  0.66134  0.54425  1.0000
  C   C1651     1.0  0.74298  0.97140  0.60151  1.0000
  C   C1652     1.0  0.95946  0.67439  0.69635  1.0000
  C   C1653     1.0  0.96307  0.64962  0.58277  1.0000
  H   H1643     1.0  0.82698  0.94025  0.50090  1.0000
  H   H1644     1.0  0.97361  0.68007  0.69147  1.0000
  H   H1645     1.0  0.92821  0.83945  0.57306  1.0000
  Fe  Fe275     1.0  0.66630  0.94183  0.60844  1.0000
  C   C1654     1.0  0.97679  0.64963  0.56517  1.0000
  H   H1646     1.0  0.89042  0.94023  0.48303  1.0000
  H   H1647     1.0  0.70614  0.87984  0.54444  1.0000
  C   C1655     1.0  0.85827  0.94169  0.48984  1.0000
  H   H1648     1.0  0.85225  0.81310  0.61174  1.0000
  C   C1656     1.0  0.91288  0.83738  0.57936  1.0000
  H   H1649     1.0  0.83223  0.91358  0.47540  1.0000
  H   H1650     1.0  0.94158  0.69348  0.52485  1.0000
  H   H1651     1.0  0.92134  0.81299  0.60197  1.0000
  N   N137      1.0  0.87363  0.83144  0.59498  1.0000
  H   H1652     1.0  0.89964  0.86082  0.55845  1.0000
  C   C1657     1.0  0.74648  0.96938  0.62073  1.0000
  H   H1653     1.0  0.90915  0.65403  0.71319  1.0000
  H   H1654     1.0  0.78328  0.64374  0.71616  1.0000
  C   C1658     1.0  0.90630  0.87830  0.48144  1.0000
  C   C1659     1.0  0.86294  0.66752  0.72056  1.0000
  C   C1660     1.0  0.92343  0.65955  0.70856  1.0000
  C   C1661     1.0  0.94033  0.64730  0.70029  1.0000
  H   H1655     1.0  0.92993  0.71754  0.70000  1.0000
  S   S554      1.0  0.98493  0.70874  0.65904  1.0000
  H   H1656     1.0  0.94383  0.70909  0.72019  1.0000
  Fe  Fe276     1.0  0.68037  0.97842  0.61638  1.0000
  H   H1657     1.0  0.82063  0.66416  0.71099  1.0000
  H   H1658     1.0  0.73063  0.97637  0.56821  1.0000
  N   N138      1.0  0.94260  0.68656  0.70373  1.0000
  H   H1659     1.0  0.95672  0.71296  0.69513  1.0000
  H   H1660     1.0  0.80806  0.63241  0.72122  1.0000
  H   H1661     1.0  0.97502  0.54627  0.52431  1.0000
  C   C1662     1.0  0.89232  0.86973  0.47513  1.0000
  C   C1663     1.0  0.79915  0.69505  0.74431  1.0000
  Fe  Fe277     1.0  0.93864  0.53042  0.85721  1.0000
  C   C1664     1.0  0.69654  0.71899  0.97036  1.0000
  S   S555      1.0  0.87089  0.56309  0.88331  1.0000
  H   H1662     1.0  0.82698  0.55321  0.75321  1.0000
  C   C1665     1.0  0.94458  0.57199  0.89649  1.0000
  C   C1666     1.0  0.92731  0.51151  0.96530  1.0000
  H   H1663     1.0  0.66449  0.76780  0.78688  1.0000
  H   H1664     1.0  0.91116  0.51049  0.77943  1.0000
  Fe  Fe278     1.0  0.71039  0.70156  0.85067  1.0000
  S   S556      1.0  0.70235  0.72244  0.87325  1.0000
  S   S557      1.0  0.74178  0.69877  0.83303  1.0000
  Fe  Fe279     1.0  0.68855  0.69699  0.89293  1.0000
  S   S558      1.0  0.68857  0.68298  0.92463  1.0000
  Fe  Fe280     1.0  0.67300  0.73105  0.86185  1.0000
  C   C1667     1.0  0.66001  0.76491  0.81836  1.0000
  S   S559      1.0  0.69877  0.67550  0.87122  1.0000
  S   S560      1.0  0.68204  0.71210  0.83784  1.0000
  Fe  Fe281     1.0  0.84216  0.58192  0.77514  1.0000
  S   S561      1.0  0.86544  0.60238  0.76559  1.0000
  Fe  Fe282     1.0  0.92179  0.50032  0.89072  1.0000
  Fe  Fe283     1.0  0.80759  0.61716  0.77814  1.0000
  S   S562      1.0  0.82797  0.64042  0.76851  1.0000
  S   S563      1.0  0.77408  0.62493  0.78690  1.0000
  H   H1665     1.0  0.90670  0.58581  0.79819  1.0000
  Fe  Fe284     1.0  0.84721  0.61985  0.78861  1.0000
  S   S564      1.0  0.85960  0.63131  0.81067  1.0000
  S   S565      1.0  0.82198  0.59892  0.75418  1.0000
  S   S566      1.0  0.82563  0.59799  0.79990  1.0000
  H   H1666     1.0  0.93721  0.51502  0.79439  1.0000
  H   H1667     1.0  0.86076  0.50571  0.78814  1.0000
  C   C1668     1.0  0.75033  0.67830  0.82014  1.0000
  C   C1669     1.0  0.77052  0.67501  0.81122  1.0000
  C   C1670     1.0  0.77798  0.65853  0.80125  1.0000
  C   C1671     1.0  0.76520  0.64540  0.79984  1.0000
  C   C1672     1.0  0.74497  0.64876  0.80866  1.0000
  C   C1673     1.0  0.73756  0.66508  0.81894  1.0000
  H   H1668     1.0  0.78048  0.68515  0.81220  1.0000
  H   H1669     1.0  0.79360  0.65605  0.79468  1.0000
  H   H1670     1.0  0.73497  0.63870  0.80758  1.0000
  H   H1671     1.0  0.72194  0.66754  0.82573  1.0000
  C   C1674     1.0  0.91233  0.57091  0.92708  1.0000
  C   C1675     1.0  0.90388  0.55762  0.79024  1.0000
  C   C1676     1.0  0.68935  0.68867  0.96177  1.0000
  C   C1677     1.0  0.69231  0.69694  0.94182  1.0000
  C   C1678     1.0  0.69743  0.71626  0.93612  1.0000
  C   C1679     1.0  0.80871  0.49955  0.81103  1.0000
  H   H1672     1.0  0.65740  0.84730  0.77427  1.0000
  C   C1680     1.0  0.65961  0.63093  0.90397  1.0000
  H   H1673     1.0  0.69969  0.72277  0.92077  1.0000
  H   H1674     1.0  0.95730  0.57228  0.88461  1.0000
  N   N139      1.0  0.91253  0.53813  0.78892  1.0000
  C   C1681     1.0  0.75968  0.66806  0.87142  1.0000
  H   H1675     1.0  0.66123  0.61006  0.95854  1.0000
  H   H1676     1.0  0.76980  0.65844  0.75614  1.0000
  S   S567      1.0  0.65858  0.70753  0.88378  1.0000
  H   H1677     1.0  0.79945  0.49273  0.80414  1.0000
  H   H1678     1.0  0.68520  0.67381  0.96627  1.0000
  C   C1682     1.0  0.77213  0.64024  0.85254  1.0000
  H   H1679     1.0  0.70366  0.74213  0.94592  1.0000
  H   H1680     1.0  0.80080  0.70889  0.74876  1.0000
  C   C1683     1.0  0.83065  0.50229  0.75636  1.0000
  H   H1681     1.0  0.65886  0.63711  0.88873  1.0000
  C   C1684     1.0  0.78190  0.66655  0.74839  1.0000
  H   H1682     1.0  0.89610  0.53252  0.76839  1.0000
  H   H1683     1.0  0.88916  0.56326  0.78626  1.0000
  C   C1685     1.0  0.91376  0.57043  0.79692  1.0000
  C   C1686     1.0  0.91003  0.52584  0.96377  1.0000
  C   C1687     1.0  0.86777  0.58180  0.86294  1.0000
  C   C1688     1.0  0.86829  0.57671  0.84449  1.0000
  C   C1689     1.0  0.86580  0.59190  0.82834  1.0000
  C   C1690     1.0  0.86328  0.61216  0.83056  1.0000
  C   C1691     1.0  0.86307  0.61721  0.84893  1.0000
  C   C1692     1.0  0.86500  0.60205  0.86516  1.0000
  H   H1684     1.0  0.87016  0.56109  0.84279  1.0000
  H   H1685     1.0  0.86595  0.58793  0.81417  1.0000
  H   H1686     1.0  0.86112  0.63284  0.85068  1.0000
  H   H1687     1.0  0.86457  0.60602  0.87941  1.0000
  C   C1693     1.0  0.69965  0.72719  0.95037  1.0000
  C   C1694     1.0  0.89897  0.52631  0.94897  1.0000
  C   C1695     1.0  0.90539  0.51297  0.93538  1.0000
  H   H1688     1.0  0.79602  0.52999  0.80050  1.0000
  S   S568      1.0  0.90532  0.49280  0.82443  1.0000
  H   H1689     1.0  0.94034  0.57271  0.80787  1.0000
  H   H1690     1.0  0.88548  0.53719  0.94784  1.0000
  H   H1691     1.0  0.89679  0.51361  0.92391  1.0000
  C   C1696     1.0  0.84476  0.53121  0.77156  1.0000
  S   S569      1.0  0.91035  0.53726  0.84465  1.0000
  N   N140      1.0  0.92541  0.57819  0.89270  1.0000
  S   S570      1.0  0.92271  0.53320  0.88750  1.0000
  H   H1692     1.0  0.81479  0.52772  0.73956  1.0000
  H   H1693     1.0  0.95555  0.53723  0.80583  1.0000
  H   H1694     1.0  0.75706  0.63656  0.85522  1.0000
  C   C1697     1.0  0.80677  0.52046  0.80900  1.0000
  C   C1698     1.0  0.66731  0.63439  0.93501  1.0000
  H   H1695     1.0  0.82563  0.65386  0.84144  1.0000
  H   H1696     1.0  0.96319  0.55929  0.91858  1.0000
  C   C1699     1.0  0.79479  0.66130  0.85557  1.0000
  C   C1700     1.0  0.66123  0.61582  0.94308  1.0000
  H   H1697     1.0  0.89962  0.57038  0.93899  1.0000
  H   H1698     1.0  0.79772  0.67411  0.86095  1.0000
  Fe  Fe285     1.0  0.91034  0.50394  0.85089  1.0000
  S   S571      1.0  0.94025  0.49706  0.86102  1.0000
  H   H1699     1.0  0.77317  0.69002  0.76640  1.0000
  C   C1701     1.0  0.81060  0.64995  0.84463  1.0000
  C   C1702     1.0  0.93356  0.49783  0.95185  1.0000
  H   H1700     1.0  0.67992  0.80181  0.80522  1.0000
  C   C1703     1.0  0.92274  0.49878  0.93669  1.0000
  C   C1704     1.0  0.93080  0.53074  0.79454  1.0000
  C   C1705     1.0  0.78760  0.62857  0.84158  1.0000
  H   H1701     1.0  0.66026  0.81589  0.83217  1.0000
  S   S572      1.0  0.96449  0.54674  0.84284  1.0000
  H   H1702     1.0  0.94696  0.48685  0.95297  1.0000
  C   C1706     1.0  0.94803  0.56467  0.91566  1.0000
  H   H1703     1.0  0.81827  0.54527  0.81504  1.0000
  Fe  Fe286     1.0  0.84407  0.62081  0.74634  1.0000
  H   H1704     1.0  0.93413  0.55842  0.94600  1.0000
  C   C1707     1.0  0.90938  0.57784  0.90771  1.0000
  C   C1708     1.0  0.66653  0.64199  0.91531  1.0000
  H   H1705     1.0  0.67277  0.75317  0.81975  1.0000
  C   C1709     1.0  0.94120  0.54318  0.80108  1.0000
  C   C1710     1.0  0.83544  0.49657  0.82949  1.0000
  C   C1711     1.0  0.92198  0.58562  0.87252  1.0000
  H   H1706     1.0  0.89415  0.58253  0.90471  1.0000
  C   C1712     1.0  0.93260  0.56314  0.80227  1.0000
  C   C1713     1.0  0.85081  0.51059  0.77748  1.0000
  C   C1714     1.0  0.98335  0.54297  0.85732  1.0000
  H   H1707     1.0  0.76109  0.68432  0.86821  1.0000
  H   H1708     1.0  0.93484  0.57983  0.86168  1.0000
  H   H1709     1.0  0.90854  0.58036  0.86991  1.0000
  C   C1715     1.0  0.81244  0.68775  0.72861  1.0000
  H   H1710     1.0  0.74472  0.66714  0.86821  1.0000
  N   N141      1.0  0.83398  0.51706  0.82678  1.0000
  H   H1711     1.0  0.88857  0.52155  0.79355  1.0000
  H   H1712     1.0  0.91963  0.60232  0.86979  1.0000
  C   C1716     1.0  0.82482  0.52291  0.75019  1.0000
  Fe  Fe287     1.0  0.89437  0.53720  0.87536  1.0000
  C   C1717     1.0  0.84774  0.52616  0.83466  1.0000
  C   C1718     1.0  0.98013  0.53342  0.87680  1.0000
  H   H1713     1.0  0.76003  0.66243  0.88721  1.0000
  H   H1714     1.0  0.84974  0.54131  0.82622  1.0000
  C   C1719     1.0  0.81946  0.52901  0.81721  1.0000
  S   S573      1.0  0.85314  0.54866  0.78231  1.0000
  N   N142      1.0  0.77584  0.65643  0.85930  1.0000
  C   C1720     1.0  0.83173  0.53736  0.75789  1.0000
  C   C1721     1.0  0.90165  0.52502  0.78216  1.0000
  C   C1722     1.0  0.84364  0.49618  0.77006  1.0000
  N   N143      1.0  0.66040  0.83014  0.80244  1.0000
  H   H1715     1.0  0.96600  0.52827  0.88312  1.0000
  H   H1716     1.0  0.81909  0.62464  0.82917  1.0000
  H   H1717     1.0  0.78453  0.61611  0.83572  1.0000
  C   C1723     1.0  0.80694  0.63347  0.83769  1.0000
  S   S574      1.0  0.89174  0.50434  0.88100  1.0000
  Fe  Fe288     1.0  0.66964  0.68800  0.86062  1.0000
  H   H1718     1.0  0.67232  0.64303  0.94406  1.0000
  H   H1719     1.0  0.69114  0.82272  0.79046  1.0000
  C   C1724     1.0  0.93176  0.56417  0.93103  1.0000
  S   S575      1.0  0.82153  0.48437  0.74689  1.0000
  S   S576      1.0  0.93139  0.48316  0.91864  1.0000
  H   H1720     1.0  0.86294  0.51688  0.83350  1.0000
  H   H1721     1.0  0.84192  0.52755  0.85029  1.0000
  C   C1725     1.0  0.78368  0.68448  0.75421  1.0000
  C   C1726     1.0  0.82299  0.48749  0.82153  1.0000
  C   C1727     1.0  0.67725  0.81578  0.79449  1.0000
  H   H1722     1.0  0.78667  0.63001  0.74018  1.0000
  H   H1723     1.0  0.84656  0.48714  0.83752  1.0000
  H   H1724     1.0  0.85567  0.66386  0.73557  1.0000
  N   N144      1.0  0.79535  0.65920  0.73334  1.0000
  H   H1725     1.0  0.67398  0.81116  0.78126  1.0000
  C   C1728     1.0  0.79319  0.64044  0.72740  1.0000
  H   H1726     1.0  0.67103  0.65647  0.90888  1.0000
  H   H1727     1.0  0.86875  0.69631  0.72439  1.0000
  H   H1728     1.0  0.65592  0.73427  0.95369  1.0000
