data_image0
_chemical_formula_structural       FeS2FeS2FeSFeS3FeS2NHFeH2SHCSH2CSH4CH4C6H4C3HC7H4CFeH2C3H2CHCHNH2CSC3HCH2NC3H2CHFeH2CFeS2FeS2FeSFeS3FeS2FeS2FeSFeS3CFeS4FeSHSFeS2HFeS2FeS2FeS2FeSFeS3HC2HCH2C2SC6H4C6H4FeCHC4HC8H4C6H3C6H4C6H5CHNCHCH2C2HCHCHC4NC3HC2NHCH3NC6H9FeHCH2FeH4CH4C3H2CNH2FeH3CH4CH2NC2SH3CH2C3HCHNCHCHCH2C3SH5FeHCHCHCHCH4CSCHSC3HCHCH2SCHC2HCSNHCHC3HCSHC4NH3C2NSH2NHCHC4FeS2FeS2FeSFeS3HCSFeS2CFeSH2SC2FeHCHNHCHCHC6H4C6H4C4H2CHNC6H8NCH2NC5H5SCSCH10C3H4C2HSH4CFeC2HC4NC2HC2H2CH2CHSCHSFeC2FeS2FeS2FeSFeS3FeS2HCH2C7H4C3H4CSC8H5SCH3CNC6H8FeC2HCHC2HCNHCH2C3FeCH4SH2CHS2FeS2FeS2FeS2FeSFeS3FeS2FeS2FeSFeS3FeS2FeS2FeSFeS3FeS2H3SHNFeS2H3S2H2C5NC3HCH2C6H4CH2C6H4C6H4C3HC3H2C6H3C6H4C7HNCHC6H6CHC2HCHCHCHSH2SH3C3H4C2H2SH2CH2C3H2C2FeCH2CNC3H5NC6H4CHFeHC2HSC2H2NHC4NCHCH2CHC2H4FeC2H2C7SNHNCH2CFeH2CHCFeC3HC2NHCH4CH2CHC2NHSHNH3CHCH3C2H3CH3FeSCFeS2FeS2FeS2FeNFeS3HCSCH4CNFeH2C3H2C7H5NC2HC6H4C3HCHSHC2H5CSHCNC6H8CH3C2HFeSC2HCHC2NC2H2S2HC2HCHCH5CHCHFeHSFeS2FeS2FeSFeS3FeS2HFeS2FeS2FeSFeS3H3FeS2C3H4CHCH2CHC2HC6H5CHCH2C6H4C2H3C6H4C6H4C2NC2HSCNHNCHC2NHCHNHCHCH2CHCHFeCH2NC4HC2H2SCHNC6H10NCHCH3C2NHC3HC2HCH3CHCH4C2HCHCHSCSCH4C3HFe2S2C2FeSFeSNCS2FeS2C2HFeC3HCFeH2C6H4CNHCH2SCH2CHSC5HC5HNCH2C2HCH6CSHC2H4CSHC4HCSNSHSCHC2H2CHCH2FeCHCH3SCSFeSFeCSFeS2FeS2FeSFeS3H2CHCHFeS2FeS2FeS2FeSFeS3FeS2HC3HCH2C7H8C10H4CHCH2C6H4SHC6H4CHC2H2NC5H7SHNC5H6CNCFeCH2CH2C2H2N2HC3HC2FeC2SHNC6H3CH5C2HCHCH2C2HCH2NHC2H2FeSC3SH2C2H3CHCHC2H2SH2C3SFeS2FeS2FeSFeS3FeS2CH4FeS2FeS2FeSFeS3CH2FeS2HCHFeSC2H2C3H2C6H4C2H2C7H4C6H4CHC6H6NC7H5C2H2SH3CH2CHCNC6NH2CSH3C2NCHCNH3SCHCH3SH2CNC5HC3SHCFeH5CHCH3NHC3H2SH2C3H2FeH2CHCSC2FeHCH2CH2CSFeHSFeSFeHSCHS2FeS2HC6H5C2HC3H4C2SHC2HC6H4C3SCHSHFeCNH2C2H4C2HC3H3CHC2H2CHCH2CN3HCHS2CHCHC2FeNCHCH3CH2CFeHFeH2C2H2S2H3CHC3SFeHSHCHFeCS2FeS2FeS2FeSFeS3FeS2FeS2FeS2FeSFeS3FeS2HCH2CNHNHC2FeC3FeHC6H4SH2CH2C7H4C2H3C6H6C6H4NHC3HCH3C2SC3H2SHCHNC4H10CH2FeCHSH2C2NC6H6CH2CH2SCSHC3NHC2H4C3HC2H2FeH5CH2FeSFeS2FeS2FeSFeS3FeS2FeS2FeS2FeSFeS3H2C3HFeS4HC3H3C4H2C7H5C4H2C6H4C6H4C2H2C7H6C4H3FeC3HC5HNC6H8S2FeH3SHNH3C2NC2H2CHC4H5CHC3H3CNH2C2NCH2C2HC2HC3HCHCHCH2NCH2SHCH2NH2CHCNHCH2CHCSH2FeS2CSHCFeSFeSC2S2CH2NCHFeS2H2C3HNH2SCHC6H4C2HSC2H3C2H2CHCHC4NCH3CH2SH3CHC2HFeHCHCSC3FeHCHSCH3NH2SH2CHCHC2FeHSFeS3FeS2FeS2FeSFeS3FeS2CH4CFeS2FeS2FeSFeS3CH2C2HFeS2C5FeC6H7C10H4C6H4C2NHCH3C6H4C2H2C2HC2HFeHCH2CHC2HCHCHCFeHCNHNCH2SHNC3H2CHCSH4C3H7CNHSCNHC3H6FeSHS2HC4H2CH3CFeH3CS2FeSFeS2FeS2FeSFeS3HC3HCFeSHFeS2FeS2FeSFeS3FeS2HCFeC2H4C4H2C6H6C3H3C6H4C2FeCSH3C6H4C6H4SHSNC6H7CHC2HC2H3C2H2CH2CH2CHSH3CHCNHSCHCHCHC2HFeC3H2NCHNHNC3SHCH3C3HC2HC2HCHC3NH7C3H2CHC2H2SHSH2FeS2HSCHCFeS2C3S2H2SFeC2HFeS2NC2HC6HCH2SH2CH6CH3NH2CSCHCHFeC6H2C3H2SHC3H2NC2HCHCHCH3CNCFeCHCH5FeHC5HCHCHCHNHFeCSH2CSFeS2FeS2FeSFeS3FeS2FeS2FeS2FeSFeS3FeS3C4HC6H4CH4CHCHC7H4C6H4C3H5C6H4NCHC4HCHSH2C2SCH2C2HN2H4NH2CHSCHCH4C2H3CHCH2CH2C6H2C2HNCSHCFeH3C2FeSH5CHC2H2FeNC2HFeS2FeS2FeSFeS3C2NC2Fe2S2C2SH6CHC7H4CHCH2C6H6C2H2CH3C2H3NHCH2C2H2NC7H6SHCHCH2C4H2CFeC2NHCFeHC2SH3S2FeS2FeS2FeSFeS3FeS2FeS2FeSFeS3HC2SHFeS2FeHSCH2CHCS2FeS2FeS2FeS2FeS2FeSFeS3H2C6H4CHC6H9C7HCH2C6H4C5H2C6H4C6H4CHC2HCH2SCHC2H2CH2CH2CH3CH2C3HFeC2H2SH3CHC2HC3NCHCH3NC6H4CH4C3H3CNC6H9N2C4H3N2HC2H2CHSCHCHCH3FeCH2C2HCHNHC3HC4HNHSCFeHC3H4SCHC2HFeS2FeS2FeSFeS3FeSHFeS2HCFeH2SC3HCHCNH2C7H4C2H2C7H5C2H3CHNC6H2CH5CH4CH2C4FeHC2N2CHC3HCSHCH6SHCH2C3S3CHSCFeS2FeS2FeS2FeSFeS3HSCFeS2NCHC6H4C2H2C2HC2HC6H4C2H2CH3C2H2C5H2CHC5H5SH3FeH3CNCH2N2HCHFeHC3H3CH2CHC3H2CH3CHCS2FeS2HCFeS2FeS2FeS2FeSFeS3FeS2FeS2FeSFeS3FeS2FeS2FeSFeS3FeS2FeS2HSH3C7H4C2HFeH3C6H4C6H5CSH2C5H2NC7H3C6H4C6H2C7H4C2H4C2HCHC5H3NH2CHFeNC6H8CH3CHSC2H2C2H2NC5H9NC6HSH6SHSCHC2H2C2H2CH2NHCH2C3SHC2NHCHSC2HNCH4FeH2C2H2FeCHCH8NCFeC4H4NFeS2FeS2FeS2FeSFeS3H3NSHC8H6CSHCHC3SHC7H6CFeH3C2H2C3H2CFeHC2SC3H2SC2H2CH3C2HNHC
_chemical_formula_sum              "Fe288 S576 N144 H1728 C1728"
_cell_length_a       71.9843
_cell_length_b       71.9207
_cell_length_c       72.0512
_cell_angle_alpha    84.2296
_cell_angle_beta     84.1439
_cell_angle_gamma    84.2243

_space_group_name_H-M_alt    "P 1"
_space_group_IT_number       1

loop_
  _space_group_symop_operation_xyz
  'x, y, z'

loop_
  _atom_site_type_symbol
  _atom_site_label
  _atom_site_symmetry_multiplicity
  _atom_site_fract_x
  _atom_site_fract_y
  _atom_site_fract_z
  _atom_site_occupancy
  Fe  Fe1       1.0  0.18092  0.39677  0.15095  1.0000
  S   S1        1.0  0.16191  0.37347  0.15700  1.0000
  S   S2        1.0  0.21055  0.39700  0.13565  1.0000
  Fe  Fe2       1.0  0.14915  0.42647  0.16256  1.0000
  S   S3        1.0  0.12788  0.40507  0.16936  1.0000
  S   S4        1.0  0.13933  0.45776  0.16088  1.0000
  Fe  Fe3       1.0  0.15072  0.38703  0.18357  1.0000
  S   S5        1.0  0.14746  0.36749  0.21119  1.0000
  Fe  Fe4       1.0  0.14030  0.39319  0.14253  1.0000
  S   S6        1.0  0.12246  0.38181  0.12239  1.0000
  S   S7        1.0  0.17143  0.40930  0.17833  1.0000
  S   S8        1.0  0.15986  0.41553  0.13493  1.0000
  Fe  Fe5       1.0  0.08227  0.41152  0.02020  1.0000
  S   S9        1.0  0.05205  0.42259  0.01850  1.0000
  S   S10       1.0  0.09944  0.42003  0.04262  1.0000
  N   N1        1.0  0.09071  0.47672  0.02391  1.0000
  H   H1        1.0  0.11541  0.32847  0.22606  1.0000
  Fe  Fe6       1.0  0.04874  0.39718  0.00387  1.0000
  H   H2        1.0  0.09908  0.37470  0.15704  1.0000
  H   H3        1.0  0.11924  0.47859  0.01267  1.0000
  S   S11       1.0  0.07849  0.38475  0.00769  1.0000
  H   H4        1.0  0.13824  0.32743  0.21360  1.0000
  C   C1        1.0  0.10386  0.36477  0.16834  1.0000
  S   S12       1.0  0.08989  0.35214  0.28459  1.0000
  H   H5        1.0  0.04606  0.46516  0.03239  1.0000
  H   H6        1.0  0.20110  0.36751  0.10494  1.0000
  C   C2        1.0  0.22893  0.36131  0.14322  1.0000
  S   S13       1.0  0.09141  0.42586  0.99201  1.0000
  H   H7        1.0  0.12149  0.31158  0.20906  1.0000
  H   H8        1.0  0.07816  0.45112  0.02411  1.0000
  H   H9        1.0  0.19365  0.44019  0.13133  1.0000
  H   H10       1.0  0.21506  0.33512  0.11351  1.0000
  C   C3        1.0  0.10961  0.46799  0.01891  1.0000
  H   H11       1.0  0.16417  0.45968  0.12187  1.0000
  H   H12       1.0  0.04891  0.35178  0.99536  1.0000
  H   H13       1.0  0.13425  0.37394  0.31526  1.0000
  H   H14       1.0  0.09129  0.38973  0.29351  1.0000
  C   C4        1.0  0.13178  0.36460  0.23213  1.0000
  C   C5        1.0  0.13665  0.35052  0.24637  1.0000
  C   C6        1.0  0.12420  0.34657  0.26250  1.0000
  C   C7        1.0  0.10655  0.35665  0.26472  1.0000
  C   C8        1.0  0.10180  0.37094  0.25064  1.0000
  C   C9        1.0  0.11429  0.37495  0.23455  1.0000
  H   H15       1.0  0.15013  0.34241  0.24479  1.0000
  H   H16       1.0  0.12821  0.33558  0.27311  1.0000
  H   H17       1.0  0.08826  0.37895  0.25214  1.0000
  H   H18       1.0  0.11026  0.38587  0.22387  1.0000
  C   C10       1.0  0.14875  0.47752  0.16807  1.0000
  C   C11       1.0  0.16406  0.47581  0.17882  1.0000
  C   C12       1.0  0.12125  0.37201  0.30887  1.0000
  H   H19       1.0  0.17014  0.46203  0.18367  1.0000
  C   C13       1.0  0.19264  0.44986  0.14258  1.0000
  C   C14       1.0  0.11622  0.39266  0.10022  1.0000
  C   C15       1.0  0.10519  0.38338  0.08966  1.0000
  C   C16       1.0  0.09990  0.39146  0.07205  1.0000
  C   C17       1.0  0.10560  0.40898  0.06474  1.0000
  C   C18       1.0  0.11663  0.41825  0.07531  1.0000
  C   C19       1.0  0.12191  0.41018  0.09291  1.0000
  H   H20       1.0  0.10068  0.36984  0.09514  1.0000
  H   H21       1.0  0.09142  0.38415  0.06415  1.0000
  H   H22       1.0  0.12112  0.43180  0.06985  1.0000
  H   H23       1.0  0.13034  0.41753  0.10083  1.0000
  C   C20       1.0  0.11953  0.35210  0.16499  1.0000
  Fe  Fe7       1.0  0.08500  0.33436  0.31315  1.0000
  H   H24       1.0  0.11528  0.46022  0.03156  1.0000
  H   H25       1.0  0.21673  0.35812  0.15261  1.0000
  C   C21       1.0  0.21429  0.36223  0.09775  1.0000
  C   C22       1.0  0.00059  0.40109  0.98636  1.0000
  C   C23       1.0  0.22960  0.37920  0.13368  1.0000
  H   H26       1.0  0.20678  0.44918  0.14765  1.0000
  H   H27       1.0  0.08099  0.34395  0.99835  1.0000
  C   C24       1.0  0.12318  0.32607  0.21223  1.0000
  H   H28       1.0  0.10926  0.45785  0.00831  1.0000
  C   C25       1.0  0.12583  0.33971  0.17973  1.0000
  H   H29       1.0  0.08261  0.37488  0.18912  1.0000
  N   N2        1.0  0.18593  0.46898  0.13564  1.0000
  H   H30       1.0  0.13832  0.33024  0.17711  1.0000
  H   H31       1.0  0.06280  0.40495  0.30984  1.0000
  C   C26       1.0  0.22390  0.37387  0.08421  1.0000
  S   S14       1.0  0.02301  0.38114  0.01207  1.0000
  C   C27       1.0  0.19368  0.48407  0.14082  1.0000
  C   C28       1.0  0.09460  0.36484  0.18632  1.0000
  C   C29       1.0  0.00139  0.38853  0.00246  1.0000
  H   H32       1.0  0.18272  0.44466  0.15433  1.0000
  C   C30       1.0  0.07593  0.46591  0.02620  1.0000
  H   H33       1.0  0.12693  0.35209  0.15108  1.0000
  H   H34       1.0  0.09383  0.35217  0.21462  1.0000
  N   N3        1.0  0.11654  0.33968  0.19726  1.0000
  C   C31       1.0  0.10107  0.35200  0.20068  1.0000
  C   C32       1.0  0.22213  0.34406  0.10257  1.0000
  C   C33       1.0  0.09046  0.39015  0.30859  1.0000
  H   H35       1.0  0.11939  0.35678  0.30971  1.0000
  H   H36       1.0  0.20491  0.48205  0.14998  1.0000
  C   C34       1.0  0.05774  0.47378  0.03105  1.0000
  H   H37       1.0  0.12318  0.37722  0.29379  1.0000
  Fe  Fe8       1.0  0.06106  0.43500  0.98969  1.0000
  H   H38       1.0  0.21806  0.38814  0.08072  1.0000
  H   H39       1.0  0.00426  0.47680  0.98718  1.0000
  C   C35       1.0  0.17098  0.47162  0.12507  1.0000
  Fe  Fe9       1.0  0.13359  0.13857  0.40527  1.0000
  S   S15       1.0  0.12586  0.15908  0.42697  1.0000
  S   S16       1.0  0.11209  0.12221  0.39388  1.0000
  Fe  Fe10      1.0  0.17565  0.14637  0.40015  1.0000
  S   S17       1.0  0.17013  0.16775  0.42159  1.0000
  S   S18       1.0  0.20624  0.14393  0.38588  1.0000
  Fe  Fe11      1.0  0.15269  0.14714  0.43910  1.0000
  S   S19       1.0  0.15441  0.13666  0.47010  1.0000
  Fe  Fe12      1.0  0.14374  0.17832  0.40775  1.0000
  S   S20       1.0  0.13605  0.21025  0.40404  1.0000
  S   S21       1.0  0.15940  0.12508  0.41849  1.0000
  S   S22       1.0  0.15026  0.15850  0.38523  1.0000
  Fe  Fe13      1.0  0.13707  0.13674  0.59699  1.0000
  S   S23       1.0  0.12947  0.16717  0.58844  1.0000
  S   S24       1.0  0.11955  0.11385  0.59009  1.0000
  Fe  Fe14      1.0  0.17755  0.14399  0.60573  1.0000
  S   S25       1.0  0.17207  0.17509  0.59699  1.0000
  S   S26       1.0  0.20692  0.12829  0.61015  1.0000
  Fe  Fe15      1.0  0.14363  0.17324  0.61334  1.0000
  S   S27       1.0  0.12734  0.19254  0.63433  1.0000
  Fe  Fe16      1.0  0.15813  0.16637  0.57281  1.0000
  S   S28       1.0  0.16167  0.17924  0.54252  1.0000
  S   S29       1.0  0.14965  0.14232  0.62321  1.0000
  S   S30       1.0  0.16530  0.13587  0.58032  1.0000
  C   C36       1.0  0.08026  0.47739  0.51088  1.0000
  Fe  Fe17      1.0  0.01000  0.08464  0.42395  1.0000
  S   S31       1.0  0.03410  0.09777  0.43467  1.0000
  S   S32       1.0  0.00557  0.05617  0.43844  1.0000
  S   S33       1.0  0.02208  0.05948  0.58599  1.0000
  S   S34       1.0  0.01865  0.32882  0.34742  1.0000
  Fe  Fe18      1.0  0.01327  0.08969  0.59020  1.0000
  S   S35       1.0  0.03082  0.10994  0.60156  1.0000
  H   H40       1.0  0.99541  0.41395  0.45707  1.0000
  S   S36       1.0  0.08070  0.36847  0.62822  1.0000
  Fe  Fe19      1.0  0.08525  0.33602  0.35614  1.0000
  S   S37       1.0  0.06830  0.31135  0.36334  1.0000
  S   S38       1.0  0.09702  0.35213  0.37748  1.0000
  H   H41       1.0  0.08641  0.39014  0.36239  1.0000
  Fe  Fe20      1.0  0.08677  0.29800  0.34032  1.0000
  S   S39       1.0  0.09574  0.26630  0.34215  1.0000
  S   S40       1.0  0.10519  0.32200  0.33420  1.0000
  Fe  Fe21      1.0  0.08047  0.43011  0.49197  1.0000
  S   S41       1.0  0.09208  0.40003  0.48864  1.0000
  S   S42       1.0  0.09581  0.45598  0.48235  1.0000
  Fe  Fe22      1.0  0.04243  0.41892  0.50700  1.0000
  S   S43       1.0  0.05069  0.38829  0.50551  1.0000
  S   S44       1.0  0.01308  0.42935  0.51716  1.0000
  Fe  Fe23      1.0  0.07696  0.39382  0.51742  1.0000
  S   S45       1.0  0.08985  0.37193  0.53880  1.0000
  Fe  Fe24      1.0  0.06485  0.39652  0.47691  1.0000
  S   S46       1.0  0.05571  0.37987  0.45436  1.0000
  S   S47       1.0  0.06746  0.42403  0.52137  1.0000
  S   S48       1.0  0.05473  0.42709  0.47792  1.0000
  H   H42       1.0  0.11660  0.45776  0.51607  1.0000
  C   C37       1.0  0.00322  0.42140  0.48322  1.0000
  C   C38       1.0  0.03170  0.08407  0.48646  1.0000
  H   H43       1.0  0.10455  0.22632  0.34567  1.0000
  C   C39       1.0  0.07692  0.06290  0.42128  1.0000
  H   H44       1.0  0.01787  0.42093  0.47840  1.0000
  H   H45       1.0  0.03867  0.04706  0.40603  1.0000
  C   C40       1.0  0.02809  0.35679  0.63959  1.0000
  C   C41       1.0  0.99920  0.32017  0.33879  1.0000
  S   S49       1.0  0.06639  0.34992  0.33486  1.0000
  C   C42       1.0  0.08525  0.35976  0.39878  1.0000
  C   C43       1.0  0.09488  0.36962  0.41014  1.0000
  C   C44       1.0  0.08612  0.37595  0.42711  1.0000
  C   C45       1.0  0.06754  0.37248  0.43298  1.0000
  C   C46       1.0  0.05788  0.36270  0.42156  1.0000
  C   C47       1.0  0.06663  0.35640  0.40458  1.0000
  H   H46       1.0  0.10928  0.37230  0.40584  1.0000
  H   H47       1.0  0.09376  0.38342  0.43569  1.0000
  H   H48       1.0  0.04351  0.35995  0.42589  1.0000
  H   H49       1.0  0.05899  0.34891  0.39601  1.0000
  C   C48       1.0  0.08265  0.36890  0.60338  1.0000
  C   C49       1.0  0.09062  0.35343  0.59410  1.0000
  C   C50       1.0  0.09245  0.35453  0.57435  1.0000
  C   C51       1.0  0.08602  0.37093  0.56364  1.0000
  C   C52       1.0  0.07769  0.38627  0.57293  1.0000
  C   C53       1.0  0.07617  0.38530  0.59269  1.0000
  H   H50       1.0  0.09575  0.34074  0.60210  1.0000
  H   H51       1.0  0.09900  0.34262  0.56731  1.0000
  H   H52       1.0  0.07264  0.39896  0.56489  1.0000
  H   H53       1.0  0.06990  0.39732  0.59971  1.0000
  Fe  Fe25      1.0  0.05045  0.32426  0.34055  1.0000
  C   C54       1.0  0.20188  0.20564  0.40650  1.0000
  H   H54       1.0  0.11735  0.39380  0.54839  1.0000
  C   C55       1.0  0.17741  0.22164  0.38874  1.0000
  C   C56       1.0  0.12292  0.21741  0.63492  1.0000
  C   C57       1.0  0.99657  0.00568  0.61837  1.0000
  C   C58       1.0  0.13557  0.22984  0.62618  1.0000
  H   H55       1.0  0.14757  0.22461  0.61727  1.0000
  C   C59       1.0  0.06756  0.07183  0.62611  1.0000
  C   C60       1.0  0.99702  0.42552  0.50150  1.0000
  C   C61       1.0  0.05535  0.11166  0.59684  1.0000
  C   C62       1.0  0.06349  0.12577  0.60454  1.0000
  C   C63       1.0  0.08305  0.12695  0.60222  1.0000
  C   C64       1.0  0.09473  0.11384  0.59236  1.0000
  C   C65       1.0  0.08658  0.09983  0.58449  1.0000
  C   C66       1.0  0.06699  0.09880  0.58659  1.0000
  H   H56       1.0  0.05462  0.13580  0.61249  1.0000
  H   H57       1.0  0.08909  0.13780  0.60837  1.0000
  H   H58       1.0  0.09550  0.08958  0.57688  1.0000
  H   H59       1.0  0.06095  0.08783  0.58066  1.0000
  C   C67       1.0  0.12423  0.22543  0.38693  1.0000
  C   C68       1.0  0.12171  0.24484  0.38888  1.0000
  C   C69       1.0  0.11302  0.25755  0.37541  1.0000
  C   C70       1.0  0.10689  0.25102  0.35964  1.0000
  C   C71       1.0  0.10933  0.23159  0.35773  1.0000
  C   C72       1.0  0.11786  0.21887  0.37128  1.0000
  H   H60       1.0  0.12652  0.25013  0.40092  1.0000
  H   H61       1.0  0.11122  0.27241  0.37717  1.0000
  H   H62       1.0  0.11952  0.20400  0.36958  1.0000
  C   C73       1.0  0.15776  0.14887  0.48964  1.0000
  C   C74       1.0  0.15698  0.16846  0.48867  1.0000
  C   C75       1.0  0.15836  0.17752  0.50493  1.0000
  C   C76       1.0  0.16036  0.16716  0.52237  1.0000
  C   C77       1.0  0.16129  0.14756  0.52331  1.0000
  C   C78       1.0  0.16007  0.13851  0.50704  1.0000
  H   H63       1.0  0.15512  0.17665  0.47543  1.0000
  H   H64       1.0  0.15770  0.19268  0.50400  1.0000
  H   H65       1.0  0.16297  0.13935  0.53654  1.0000
  H   H66       1.0  0.16068  0.12336  0.50797  1.0000
  C   C79       1.0  0.08961  0.11753  0.40503  1.0000
  C   C80       1.0  0.08510  0.11864  0.42426  1.0000
  C   C81       1.0  0.06788  0.11291  0.43296  1.0000
  C   C82       1.0  0.05491  0.10608  0.42258  1.0000
  C   C83       1.0  0.05924  0.10527  0.40328  1.0000
  C   C84       1.0  0.07652  0.11091  0.39460  1.0000
  H   H67       1.0  0.09504  0.12362  0.43248  1.0000
  H   H68       1.0  0.06468  0.11366  0.44787  1.0000
  H   H69       1.0  0.04940  0.10011  0.39509  1.0000
  H   H70       1.0  0.07987  0.10999  0.37972  1.0000
  H   H71       1.0  0.02264  0.37059  0.63296  1.0000
  C   C85       1.0  0.22453  0.12677  0.37789  1.0000
  H   H72       1.0  0.20725  0.10400  0.37830  1.0000
  N   N4        1.0  0.04514  0.26828  0.36248  1.0000
  C   C86       1.0  0.00959  0.10057  0.50891  1.0000
  H   H73       1.0  0.13318  0.39744  0.49758  1.0000
  C   C87       1.0  0.20723  0.15475  0.55453  1.0000
  H   H74       1.0  0.01525  0.30201  0.31987  1.0000
  H   H75       1.0  0.99864  0.33751  0.63786  1.0000
  C   C88       1.0  0.08099  0.06159  0.38830  1.0000
  C   C89       1.0  0.01949  0.98959  0.56746  1.0000
  H   H76       1.0  0.02148  0.28619  0.35395  1.0000
  C   C90       1.0  0.05695  0.26320  0.37622  1.0000
  H   H77       1.0  0.07575  0.46451  0.51816  1.0000
  C   C91       1.0  0.00375  0.00181  0.54019  1.0000
  H   H78       1.0  0.21026  0.20456  0.41832  1.0000
  C   C92       1.0  0.22563  0.12358  0.62531  1.0000
  C   C93       1.0  0.01654  0.07189  0.64244  1.0000
  C   C94       1.0  0.04144  0.33751  0.61443  1.0000
  C   C95       1.0  0.99230  0.11047  0.51377  1.0000
  N   N5        1.0  0.17960  0.20769  0.37689  1.0000
  C   C96       1.0  0.19265  0.19272  0.37957  1.0000
  C   C97       1.0  0.20412  0.19157  0.39427  1.0000
  C   C98       1.0  0.16711  0.20803  0.36199  1.0000
  H   H79       1.0  0.19398  0.18133  0.37058  1.0000
  C   C99       1.0  0.13226  0.39425  0.51305  1.0000
  C   C100      1.0  0.01049  0.33355  0.62806  1.0000
  N   N6        1.0  0.02675  0.34206  0.62726  1.0000
  H   H80       1.0  0.10966  0.08109  0.39086  1.0000
  C   C101      1.0  0.18844  0.22079  0.40376  1.0000
  H   H81       1.0  0.11700  0.05978  0.40487  1.0000
  H   H82       1.0  0.08938  0.06374  0.37501  1.0000
  H   H83       1.0  0.10731  0.08074  0.41565  1.0000
  N   N7        1.0  0.11616  0.14129  0.53303  1.0000
  C   C102      1.0  0.11733  0.12217  0.53329  1.0000
  C   C103      1.0  0.11409  0.15242  0.51668  1.0000
  C   C104      1.0  0.11712  0.11366  0.51669  1.0000
  C   C105      1.0  0.11364  0.14438  0.49986  1.0000
  C   C106      1.0  0.11542  0.12488  0.49986  1.0000
  C   C107      1.0  0.11720  0.14972  0.55051  1.0000
  H   H84       1.0  0.11889  0.11345  0.54637  1.0000
  H   H85       1.0  0.11357  0.16757  0.51640  1.0000
  H   H86       1.0  0.11873  0.09850  0.51680  1.0000
  H   H87       1.0  0.11303  0.15316  0.48673  1.0000
  H   H88       1.0  0.11611  0.11857  0.48671  1.0000
  H   H89       1.0  0.12914  0.14255  0.55787  1.0000
  H   H90       1.0  0.11968  0.16482  0.54799  1.0000
  H   H91       1.0  0.10407  0.14818  0.55987  1.0000
  H   H92       1.0  0.06880  0.25283  0.37408  1.0000
  Fe  Fe26      1.0  0.08375  0.34224  0.64874  1.0000
  H   H93       1.0  0.17501  0.20350  0.34890  1.0000
  C   C108      1.0  0.02587  0.47246  0.49158  1.0000
  H   H94       1.0  0.05161  0.47738  0.47447  1.0000
  H   H95       1.0  0.00392  0.09297  0.46471  1.0000
  Fe  Fe27      1.0  0.99567  0.04914  0.41168  1.0000
  H   H96       1.0  0.21420  0.14227  0.64594  1.0000
  H   H97       1.0  0.99475  0.04267  0.47464  1.0000
  H   H98       1.0  0.99617  0.31235  0.61755  1.0000
  H   H99       1.0  0.99860  0.01384  0.53119  1.0000
  C   C109      1.0  0.03957  0.04752  0.63008  1.0000
  H   H100      1.0  0.06069  0.02719  0.61871  1.0000
  H   H101      1.0  0.05416  0.34457  0.61347  1.0000
  H   H102      1.0  0.19504  0.16448  0.55914  1.0000
  H   H103      1.0  0.14366  0.25819  0.62367  1.0000
  C   C110      1.0  0.22124  0.10842  0.37511  1.0000
  C   C111      1.0  0.03055  0.28179  0.36500  1.0000
  C   C112      1.0  0.07429  0.39880  0.31775  1.0000
  H   H104      1.0  0.10327  0.42077  0.56532  1.0000
  H   H105      1.0  0.15601  0.19844  0.36657  1.0000
  C   C113      1.0  0.10630  0.07199  0.40397  1.0000
  N   N8        1.0  0.22183  0.15303  0.56754  1.0000
  H   H106      1.0  0.12347  0.38225  0.51643  1.0000
  H   H107      1.0  0.11350  0.37635  0.64671  1.0000
  Fe  Fe28      1.0  0.99371  0.05368  0.60002  1.0000
  H   H108      1.0  0.06027  0.40529  0.34457  1.0000
  H   H109      1.0  0.10290  0.45315  0.54910  1.0000
  H   H110      1.0  0.03532  0.25641  0.33979  1.0000
  C   C114      1.0  0.10503  0.24376  0.64997  1.0000
  H   H111      1.0  0.00090  0.47125  0.51065  1.0000
  H   H112      1.0  0.05806  0.05191  0.37574  1.0000
  H   H113      1.0  0.01609  0.30163  0.38329  1.0000
  H   H114      1.0  0.07829  0.08163  0.62436  1.0000
  C   C115      1.0  0.08754  0.39052  0.34720  1.0000
  H   H115      1.0  0.08193  0.06633  0.43409  1.0000
  H   H116      1.0  0.02477  0.45887  0.48666  1.0000
  N   N9        1.0  0.01348  0.09421  0.49153  1.0000
  C   C116      1.0  0.00135  0.30694  0.32557  1.0000
  C   C117      1.0  0.01240  0.47947  0.50506  1.0000
  S   S50       1.0  0.11833  0.27914  0.64902  1.0000
  H   H117      1.0  0.01965  0.09755  0.51929  1.0000
  H   H118      1.0  0.05513  0.27025  0.33377  1.0000
  H   H119      1.0  0.99625  0.27537  0.64963  1.0000
  C   C118      1.0  0.99710  0.00064  0.40575  1.0000
  H   H120      1.0  0.05843  0.24710  0.34541  1.0000
  H   H121      1.0  0.20176  0.14096  0.55376  1.0000
  C   C119      1.0  0.12388  0.42817  0.51384  1.0000
  C   C120      1.0  0.05242  0.05221  0.40562  1.0000
  C   C121      1.0  0.10747  0.22460  0.64656  1.0000
  H   H122      1.0  0.01049  0.37995  0.51628  1.0000
  C   C122      1.0  0.02408  0.31428  0.60372  1.0000
  H   H123      1.0  0.02149  0.37779  0.48277  1.0000
  N   N10       1.0  0.08751  0.06560  0.40451  1.0000
  C   C123      1.0  0.06333  0.05491  0.38860  1.0000
  H   H124      1.0  0.11446  0.37469  0.34561  1.0000
  C   C124      1.0  0.05921  0.05624  0.42207  1.0000
  H   H125      1.0  0.03025  0.07346  0.47661  1.0000
  C   C125      1.0  0.04861  0.26006  0.34450  1.0000
  H   H126      1.0  0.05062  0.05462  0.43530  1.0000
  H   H127      1.0  0.01838  0.03870  0.49773  1.0000
  C   C126      1.0  0.22589  0.13245  0.64172  1.0000
  C   C127      1.0  0.10343  0.38182  0.33761  1.0000
  C   C128      1.0  0.00503  0.04664  0.50081  1.0000
  S   S51       1.0  0.01856  0.05322  0.53328  1.0000
  H   H128      1.0  0.02624  0.99179  0.57977  1.0000
  H   H129      1.0  0.21287  0.16017  0.54031  1.0000
  H   H130      1.0  0.05222  0.31978  0.59257  1.0000
  H   H131      1.0  0.03728  0.29240  0.40860  1.0000
  H   H132      1.0  0.08576  0.04921  0.61492  1.0000
  Fe  Fe29      1.0  0.00677  0.06488  0.56013  1.0000
  H   H133      1.0  0.01451  0.37825  0.45166  1.0000
  C   C129      1.0  0.07286  0.39898  0.33720  1.0000
  H   H134      1.0  0.98978  0.99343  0.51052  1.0000
  C   C130      1.0  0.04040  0.32349  0.60255  1.0000
  H   H135      1.0  0.16008  0.22232  0.35873  1.0000
  C   C131      1.0  0.00072  0.09787  0.47852  1.0000
  H   H136      1.0  0.18616  0.23156  0.41347  1.0000
  C   C132      1.0  0.00117  0.37154  0.45535  1.0000
  H   H137      1.0  0.06385  0.26780  0.40377  1.0000
  H   H138      1.0  0.23309  0.08176  0.36567  1.0000
  H   H139      1.0  0.16653  0.23312  0.38711  1.0000
  H   H140      1.0  0.12921  0.43041  0.49921  1.0000
  C   C133      1.0  0.07171  0.05367  0.62075  1.0000
  S   S52       1.0  0.00038  0.09561  0.56290  1.0000
  C   C134      1.0  0.00115  0.05474  0.51778  1.0000
  H   H141      1.0  0.04157  0.09410  0.47949  1.0000
  S   S53       1.0  0.00942  0.02108  0.40284  1.0000
  C   C135      1.0  0.02738  0.29053  0.38167  1.0000
  C   C136      1.0  0.00713  0.37524  0.48770  1.0000
  C   C137      1.0  0.05420  0.27163  0.39309  1.0000
  H   H142      1.0  0.21420  0.17946  0.39654  1.0000
  C   C138      1.0  0.11705  0.40782  0.54119  1.0000
  H   H143      1.0  0.14653  0.38986  0.51735  1.0000
  C   C139      1.0  0.00897  0.31938  0.61649  1.0000
  H   H144      1.0  0.21200  0.17857  0.57952  1.0000
  H   H145      1.0  0.00600  0.06273  0.63903  1.0000
  S   S54       1.0  0.00196  0.07723  0.39632  1.0000
  C   C140      1.0  0.10901  0.44115  0.54184  1.0000
  H   H146      1.0  0.04287  0.35760  0.64243  1.0000
  C   C141      1.0  0.03931  0.28540  0.39580  1.0000
  C   C142      1.0  0.99179  0.04914  0.48760  1.0000
  H   H147      1.0  0.02313  0.30325  0.59471  1.0000
  C   C143      1.0  0.11662  0.44376  0.52329  1.0000
  S   S55       1.0  0.07227  0.31506  0.64536  1.0000
  N   N11       1.0  0.12394  0.41046  0.52280  1.0000
  H   H148      1.0  0.03762  0.07635  0.49901  1.0000
  C   C144      1.0  0.23601  0.09579  0.36790  1.0000
  H   H149      1.0  0.02872  0.03788  0.63162  1.0000
  C   C145      1.0  0.10922  0.42305  0.55091  1.0000
  C   C146      1.0  0.13332  0.24893  0.62988  1.0000
  C   C147      1.0  0.01293  0.00489  0.55566  1.0000
  H   H150      1.0  0.01476  0.01908  0.55858  1.0000
  C   C148      1.0  0.00730  0.99359  0.63041  1.0000
  S   S56       1.0  0.06768  0.30941  0.31776  1.0000
  H   H151      1.0  0.04605  0.09189  0.63684  1.0000
  C   C149      1.0  0.00103  0.37636  0.50667  1.0000
  C   C150      1.0  0.11824  0.25598  0.64205  1.0000
  C   C151      1.0  0.08979  0.47723  0.49297  1.0000
  C   C152      1.0  0.04929  0.07756  0.63319  1.0000
  N   N12       1.0  0.99492  0.37181  0.47535  1.0000
  H   H152      1.0  0.01240  0.08636  0.63630  1.0000
  H   H153      1.0  0.00342  0.35687  0.45153  1.0000
  H   H154      1.0  0.01357  0.99913  0.64146  1.0000
  C   C153      1.0  0.05767  0.04136  0.62281  1.0000
  C   C154      1.0  0.22249  0.16665  0.57937  1.0000
  N   N13       1.0  0.03552  0.06553  0.63484  1.0000
  S   S57       1.0  0.99290  0.02967  0.62275  1.0000
  H   H155      1.0  0.98902  0.11518  0.52767  1.0000
  H   H156      1.0  0.23647  0.17556  0.60168  1.0000
  N   N14       1.0  0.10481  0.38188  0.31852  1.0000
  H   H157      1.0  0.23455  0.12722  0.55798  1.0000
  C   C155      1.0  0.23515  0.13805  0.56728  1.0000
  H   H158      1.0  0.99051  0.37960  0.44679  1.0000
  C   C156      1.0  0.04082  0.48289  0.48468  1.0000
  C   C157      1.0  0.23641  0.16515  0.59180  1.0000
  C   C158      1.0  0.99044  0.41734  0.47112  1.0000
  C   C159      1.0  0.98812  0.99813  0.60440  1.0000
  Fe  Fe30      1.0  0.17920  0.38635  0.83338  1.0000
  S   S58       1.0  0.15664  0.36690  0.83212  1.0000
  S   S59       1.0  0.21069  0.37847  0.83601  1.0000
  Fe  Fe31      1.0  0.15283  0.42169  0.82331  1.0000
  S   S60       1.0  0.12902  0.40431  0.82067  1.0000
  S   S61       1.0  0.14346  0.45313  0.82267  1.0000
  Fe  Fe32      1.0  0.13759  0.38856  0.84757  1.0000
  S   S62       1.0  0.11262  0.38591  0.86965  1.0000
  Fe  Fe33      1.0  0.14954  0.38420  0.80523  1.0000
  S   S63       1.0  0.14828  0.37046  0.77736  1.0000
  S   S64       1.0  0.16059  0.40656  0.85066  1.0000
  S   S65       1.0  0.17299  0.40288  0.80591  1.0000
  H   H159      1.0  0.22195  0.33562  0.89298  1.0000
  C   C160      1.0  0.98864  0.32125  0.67426  1.0000
  S   S66       1.0  0.10846  0.38778  0.95834  1.0000
  Fe  Fe34      1.0  0.09162  0.33079  0.69079  1.0000
  S   S67       1.0  0.08048  0.30252  0.68985  1.0000
  S   S68       1.0  0.09658  0.34353  0.71824  1.0000
  C   C161      1.0  0.11032  0.38447  0.69911  1.0000
  Fe  Fe35      1.0  0.05698  0.31783  0.67398  1.0000
  S   S69       1.0  0.02525  0.32091  0.68181  1.0000
  H   H160      1.0  0.09714  0.35415  0.98060  1.0000
  H   H161      1.0  0.99226  0.32077  0.71598  1.0000
  S   S70       1.0  0.06729  0.34577  0.67646  1.0000
  C   C162      1.0  0.19503  0.35740  0.77858  1.0000
  C   C163      1.0  0.00684  0.31213  0.67173  1.0000
  Fe  Fe36      1.0  0.09665  0.30169  0.66108  1.0000
  H   H162      1.0  0.11623  0.19158  0.67629  1.0000
  C   C164      1.0  0.03713  0.36265  0.96989  1.0000
  H   H163      1.0  0.06559  0.39691  0.69141  1.0000
  N   N15       1.0  0.09440  0.38605  0.68996  1.0000
  H   H164      1.0  0.00045  0.29732  0.71142  1.0000
  C   C165      1.0  0.22450  0.36549  0.85304  1.0000
  H   H165      1.0  0.16973  0.44463  0.88695  1.0000
  C   C166      1.0  0.22825  0.34394  0.88108  1.0000
  H   H166      1.0  0.08286  0.38417  0.66413  1.0000
  C   C167      1.0  0.13345  0.36301  0.76126  1.0000
  C   C168      1.0  0.14183  0.35460  0.74518  1.0000
  C   C169      1.0  0.13090  0.34838  0.73209  1.0000
  C   C170      1.0  0.11125  0.35043  0.73478  1.0000
  C   C171      1.0  0.10286  0.35894  0.75078  1.0000
  C   C172      1.0  0.11380  0.36513  0.76389  1.0000
  H   H167      1.0  0.15695  0.35284  0.74281  1.0000
  H   H168      1.0  0.13770  0.34195  0.71994  1.0000
  H   H169      1.0  0.08773  0.36072  0.75314  1.0000
  H   H170      1.0  0.10699  0.37152  0.77608  1.0000
  C   C173      1.0  0.10955  0.38885  0.93353  1.0000
  C   C174      1.0  0.12676  0.38377  0.92338  1.0000
  C   C175      1.0  0.12810  0.38345  0.90375  1.0000
  C   C176      1.0  0.11206  0.38754  0.89412  1.0000
  C   C177      1.0  0.09483  0.39261  0.90427  1.0000
  C   C178      1.0  0.09367  0.39374  0.92380  1.0000
  H   H171      1.0  0.13914  0.37994  0.93077  1.0000
  H   H172      1.0  0.14142  0.37942  0.89616  1.0000
  H   H173      1.0  0.08235  0.39584  0.89693  1.0000
  H   H174      1.0  0.08041  0.39794  0.93138  1.0000
  C   C179      1.0  0.11281  0.37881  0.66141  1.0000
  C   C180      1.0  0.15661  0.47288  0.82177  1.0000
  C   C181      1.0  0.17583  0.47197  0.81614  1.0000
  C   C182      1.0  0.04075  0.36769  0.95078  1.0000
  H   H175      1.0  0.18326  0.45875  0.81267  1.0000
  H   H176      1.0  0.08780  0.35622  0.94673  1.0000
  C   C183      1.0  0.21659  0.35471  0.86856  1.0000
  H   H177      1.0  0.20152  0.35458  0.87089  1.0000
  N   N16       1.0  0.12528  0.43844  0.87923  1.0000
  C   C184      1.0  0.14340  0.44292  0.87561  1.0000
  C   C185      1.0  0.11838  0.43287  0.89711  1.0000
  C   C186      1.0  0.15525  0.44146  0.89002  1.0000
  C   C187      1.0  0.12980  0.43132  0.91188  1.0000
  C   C188      1.0  0.14840  0.43551  0.90825  1.0000
  C   C189      1.0  0.11363  0.43879  0.86363  1.0000
  H   H178      1.0  0.14890  0.44727  0.86142  1.0000
  H   H179      1.0  0.10406  0.42924  0.90000  1.0000
  H   H180      1.0  0.99176  0.30220  0.73496  1.0000
  H   H181      1.0  0.12436  0.42646  0.92597  1.0000
  H   H182      1.0  0.15750  0.43399  0.91952  1.0000
  H   H183      1.0  0.11440  0.45217  0.85452  1.0000
  H   H184      1.0  0.11872  0.42700  0.85503  1.0000
  H   H185      1.0  0.09868  0.43724  0.86853  1.0000
  N   N17       1.0  0.13781  0.20902  0.67839  1.0000
  C   C190      1.0  0.99410  0.28833  0.65632  1.0000
  H   H186      1.0  0.11536  0.22189  0.69572  1.0000
  H   H187      1.0  0.21035  0.33389  0.83739  1.0000
  N   N18       1.0  0.19210  0.34498  0.79583  1.0000
  C   C191      1.0  0.20404  0.34465  0.80947  1.0000
  C   C192      1.0  0.17693  0.33463  0.79870  1.0000
  C   C193      1.0  0.20106  0.33367  0.82647  1.0000
  C   C194      1.0  0.17351  0.32348  0.81554  1.0000
  C   C195      1.0  0.18566  0.32306  0.82952  1.0000
  H   H188      1.0  0.11494  0.47947  0.96661  1.0000
  H   H189      1.0  0.09039  0.33088  0.97887  1.0000
  H   H190      1.0  0.16713  0.33526  0.78811  1.0000
  H   H191      1.0  0.16123  0.31566  0.81789  1.0000
  H   H192      1.0  0.18295  0.31488  0.84284  1.0000
  S   S71       1.0  0.04993  0.46488  0.98248  1.0000
  C   C196      1.0  0.05906  0.36521  0.94236  1.0000
  S   S72       1.0  0.05573  0.41042  0.97468  1.0000
  C   C197      1.0  0.07602  0.38936  0.70049  1.0000
  H   H193      1.0  0.10943  0.38610  0.71399  1.0000
  H   H194      1.0  0.07093  0.37567  0.70632  1.0000
  H   H195      1.0  0.07688  0.39792  0.71233  1.0000
  H   H196      1.0  0.12660  0.25359  0.68979  1.0000
  H   H197      1.0  0.13924  0.17992  0.67352  1.0000
  H   H198      1.0  0.02008  0.35379  0.65343  1.0000
  H   H199      1.0  0.09340  0.24887  0.65940  1.0000
  H   H200      1.0  0.21573  0.35331  0.80746  1.0000
  H   H201      1.0  0.02345  0.28858  0.66048  1.0000
  H   H202      1.0  0.06209  0.36909  0.92749  1.0000
  C   C198      1.0  0.10090  0.48467  0.97167  1.0000
  C   C199      1.0  0.08617  0.47315  0.97268  1.0000
  C   C200      1.0  0.13465  0.24169  0.68379  1.0000
  H   H203      1.0  0.14035  0.37816  0.69714  1.0000
  H   H204      1.0  0.21017  0.35728  0.77366  1.0000
  H   H205      1.0  0.08879  0.45928  0.96793  1.0000
  H   H206      1.0  0.12947  0.18555  0.69655  1.0000
  C   C201      1.0  0.12831  0.22378  0.68694  1.0000
  C   C202      1.0  0.00956  0.29580  0.66243  1.0000
  H   H207      1.0  0.02938  0.37358  0.94256  1.0000
  S   S73       1.0  0.10904  0.32928  0.66294  1.0000
  H   H208      1.0  0.18758  0.35316  0.76712  1.0000
  H   H209      1.0  0.15535  0.25844  0.66861  1.0000
  H   H210      1.0  0.18944  0.37197  0.78122  1.0000
  H   H211      1.0  0.01315  0.40706  0.97999  1.0000
  C   C203      1.0  0.07354  0.35789  0.95330  1.0000
  Fe  Fe37      1.0  0.08563  0.40009  0.97926  1.0000
  C   C204      1.0  0.98965  0.30584  0.71994  1.0000
  C   C205      1.0  0.13037  0.19060  0.68145  1.0000
  H   H212      1.0  0.09753  0.21518  0.65335  1.0000
  C   C206      1.0  0.12787  0.37989  0.68964  1.0000
  C   C207      1.0  0.06810  0.47967  0.97963  1.0000
  C   C208      1.0  0.09547  0.38327  0.67136  1.0000
  C   C209      1.0  0.15086  0.24442  0.67187  1.0000
  N   N19       1.0  0.06988  0.35315  0.97210  1.0000
  C   C210      1.0  0.12908  0.37701  0.67067  1.0000
  C   C211      1.0  0.15376  0.21157  0.66670  1.0000
  H   H213      1.0  0.14256  0.37315  0.66321  1.0000
  C   C212      1.0  0.08531  0.34508  0.98305  1.0000
  C   C213      1.0  0.16056  0.22927  0.66334  1.0000
  H   H214      1.0  0.16085  0.20008  0.65928  1.0000
  H   H215      1.0  0.02295  0.36456  0.97662  1.0000
  C   C214      1.0  0.05193  0.35538  0.98043  1.0000
  H   H216      1.0  0.01596  0.07178  0.65790  1.0000
  H   H217      1.0  0.17277  0.23141  0.65350  1.0000
  C   C215      1.0  0.01590  0.65375  0.31417  1.0000
  H   H218      1.0  0.19230  0.51433  0.13994  1.0000
  S   S74       1.0  0.12133  0.63476  0.28796  1.0000
  C   C216      1.0  0.14545  0.56432  0.22221  1.0000
  H   H219      1.0  0.11856  0.58623  0.27778  1.0000
  S   S75       1.0  0.04001  0.56146  0.01198  1.0000
  Fe  Fe38      1.0  0.06978  0.56804  0.00101  1.0000
  C   C217      1.0  0.11697  0.58432  0.26328  1.0000
  C   C218      1.0  0.01849  0.56965  0.00271  1.0000
  Fe  Fe39      1.0  0.14405  0.58555  0.14226  1.0000
  S   S76       1.0  0.17200  0.56888  0.13904  1.0000
  S   S77       1.0  0.12060  0.58744  0.12301  1.0000
  Fe  Fe40      1.0  0.15170  0.59961  0.17973  1.0000
  S   S78       1.0  0.18069  0.58397  0.17883  1.0000
  S   S79       1.0  0.13420  0.61768  0.20124  1.0000
  Fe  Fe41      1.0  0.18396  0.59418  0.14798  1.0000
  S   S80       1.0  0.21003  0.60133  0.12822  1.0000
  Fe  Fe42      1.0  0.16681  0.55993  0.16971  1.0000
  S   S81       1.0  0.17431  0.53006  0.18228  1.0000
  S   S82       1.0  0.15592  0.61143  0.14935  1.0000
  S   S83       1.0  0.13790  0.57484  0.17247  1.0000
  Fe  Fe43      1.0  0.10781  0.57316  0.01533  1.0000
  S   S84       1.0  0.09104  0.54838  0.01605  1.0000
  S   S85       1.0  0.12889  0.57694  0.03605  1.0000
  H   H220      1.0  0.00127  0.63138  0.30634  1.0000
  C   C219      1.0  0.99974  0.64521  0.31129  1.0000
  H   H221      1.0  0.16550  0.51934  0.12029  1.0000
  H   H222      1.0  0.07660  0.52343  0.98852  1.0000
  C   C220      1.0  0.13130  0.57466  0.25240  1.0000
  C   C221      1.0  0.12277  0.58154  0.09953  1.0000
  C   C222      1.0  0.10674  0.58372  0.08958  1.0000
  C   C223      1.0  0.10816  0.58126  0.07030  1.0000
  C   C224      1.0  0.12569  0.57671  0.06079  1.0000
  C   C225      1.0  0.14162  0.57383  0.07091  1.0000
  C   C226      1.0  0.14018  0.57616  0.09021  1.0000
  H   H223      1.0  0.09321  0.58783  0.09671  1.0000
  H   H224      1.0  0.09582  0.58360  0.06267  1.0000
  H   H225      1.0  0.15523  0.57029  0.06365  1.0000
  H   H226      1.0  0.15259  0.57435  0.09772  1.0000
  C   C227      1.0  0.17153  0.50520  0.12419  1.0000
  C   C228      1.0  0.16385  0.51008  0.17708  1.0000
  C   C229      1.0  0.14839  0.51177  0.16656  1.0000
  H   H227      1.0  0.15512  0.55486  0.23074  1.0000
  H   H228      1.0  0.14227  0.52554  0.16172  1.0000
  H   H229      1.0  0.14391  0.56896  0.25876  1.0000
  H   H230      1.0  0.21592  0.63188  0.15084  1.0000
  C   C230      1.0  0.00186  0.56296  0.01168  1.0000
  S   S86       1.0  0.08580  0.59350  0.00218  1.0000
  C   C231      1.0  0.01749  0.58234  0.98673  1.0000
  C   C232      1.0  0.08800  0.49532  0.02696  1.0000
  C   C233      1.0  0.12515  0.63140  0.26346  1.0000
  C   C234      1.0  0.11219  0.63837  0.25065  1.0000
  C   C235      1.0  0.11548  0.63442  0.23167  1.0000
  C   C236      1.0  0.13166  0.62333  0.22513  1.0000
  C   C237      1.0  0.14477  0.61662  0.23787  1.0000
  C   C238      1.0  0.14154  0.62067  0.25683  1.0000
  H   H231      1.0  0.09958  0.64673  0.25539  1.0000
  H   H232      1.0  0.10526  0.63983  0.22200  1.0000
  H   H233      1.0  0.15738  0.60826  0.23314  1.0000
  H   H234      1.0  0.15177  0.61530  0.26650  1.0000
  H   H235      1.0  0.00251  0.55313  0.02406  1.0000
  S   S87       1.0  0.12313  0.56735  0.98747  1.0000
  C   C239      1.0  0.16360  0.48974  0.11912  1.0000
  H   H236      1.0  0.15351  0.57536  0.21414  1.0000
  H   H237      1.0  0.09038  0.60094  0.26306  1.0000
  H   H238      1.0  0.11349  0.58100  0.21067  1.0000
  C   C240      1.0  0.17150  0.49203  0.18337  1.0000
  N   N20       1.0  0.15855  0.61843  0.08809  1.0000
  C   C241      1.0  0.14134  0.62375  0.09683  1.0000
  C   C242      1.0  0.16041  0.61553  0.06947  1.0000
  C   C243      1.0  0.12547  0.62661  0.08684  1.0000
  C   C244      1.0  0.14482  0.61827  0.05905  1.0000
  C   C245      1.0  0.12725  0.62380  0.06784  1.0000
  C   C246      1.0  0.17474  0.61436  0.09912  1.0000
  H   H239      1.0  0.13963  0.62505  0.11180  1.0000
  H   H240      1.0  0.17386  0.61048  0.06272  1.0000
  H   H241      1.0  0.11175  0.62997  0.09407  1.0000
  H   H242      1.0  0.14612  0.61513  0.04451  1.0000
  H   H243      1.0  0.11492  0.62504  0.06013  1.0000
  H   H244      1.0  0.17474  0.59993  0.10627  1.0000
  H   H245      1.0  0.18825  0.61543  0.09029  1.0000
  H   H246      1.0  0.17439  0.62439  0.10996  1.0000
  Fe  Fe44      1.0  0.10100  0.64983  0.31000  1.0000
  C   C247      1.0  0.14083  0.49557  0.16221  1.0000
  C   C248      1.0  0.06998  0.50365  0.03196  1.0000
  H   H247      1.0  0.15135  0.49175  0.11129  1.0000
  C   C249      1.0  0.22726  0.63087  0.13981  1.0000
  H   H248      1.0  0.12890  0.49705  0.15399  1.0000
  C   C250      1.0  0.10112  0.59263  0.25499  1.0000
  C   C251      1.0  0.18665  0.50239  0.13514  1.0000
  H   H249      1.0  0.08783  0.59816  0.22926  1.0000
  C   C252      1.0  0.09969  0.59106  0.23606  1.0000
  N   N21       1.0  0.12978  0.57321  0.23382  1.0000
  H   H250      1.0  0.06776  0.51847  0.03405  1.0000
  C   C253      1.0  0.11426  0.58129  0.22561  1.0000
  H   H251      1.0  0.14030  0.55566  0.21220  1.0000
  H   H252      1.0  0.02968  0.64651  0.31141  1.0000
  C   C254      1.0  0.22776  0.61718  0.12723  1.0000
  C   C255      1.0  0.06463  0.49797  0.98497  1.0000
  C   C256      1.0  0.05478  0.49279  0.03390  1.0000
  Fe  Fe45      1.0  0.10458  0.54445  0.98728  1.0000
  C   C257      1.0  0.00075  0.49188  0.98515  1.0000
  H   H253      1.0  0.05082  0.50299  0.99079  1.0000
  H   H254      1.0  0.18336  0.49059  0.19166  1.0000
  H   H255      1.0  0.04073  0.49915  0.03753  1.0000
  H   H256      1.0  0.09973  0.50392  0.02516  1.0000
  S   S88       1.0  0.09116  0.68063  0.31237  1.0000
  H   H257      1.0  0.19648  0.76007  0.61658  1.0000
  H   H258      1.0  0.01827  0.96522  0.63795  1.0000
  C   C258      1.0  0.06776  0.86306  0.62947  1.0000
  H   H259      1.0  0.03864  0.83742  0.61279  1.0000
  S   S89       1.0  0.11511  0.62308  0.62401  1.0000
  S   S90       1.0  0.07962  0.66568  0.63752  1.0000
  Fe  Fe46      1.0  0.08427  0.63902  0.35061  1.0000
  S   S91       1.0  0.07347  0.66850  0.35556  1.0000
  S   S92       1.0  0.07934  0.61384  0.37159  1.0000
  Fe  Fe47      1.0  0.07794  0.60114  0.52623  1.0000
  S   S93       1.0  0.05854  0.57859  0.53362  1.0000
  S   S94       1.0  0.08207  0.62328  0.54557  1.0000
  Fe  Fe48      1.0  0.07815  0.59724  0.48383  1.0000
  S   S95       1.0  0.05840  0.57431  0.48817  1.0000
  S   S96       1.0  0.08913  0.61493  0.45768  1.0000
  Fe  Fe49      1.0  0.04258  0.59163  0.50998  1.0000
  S   S97       1.0  0.01163  0.59825  0.51718  1.0000
  Fe  Fe50      1.0  0.07588  0.56246  0.51163  1.0000
  S   S98       1.0  0.07898  0.53153  0.52267  1.0000
  S   S99       1.0  0.06063  0.61524  0.50380  1.0000
  S   S100      1.0  0.09698  0.58429  0.50597  1.0000
  Fe  Fe51      1.0  0.14138  0.79588  0.39250  1.0000
  S   S101      1.0  0.14481  0.82519  0.37889  1.0000
  S   S102      1.0  0.12539  0.77812  0.37555  1.0000
  Fe  Fe52      1.0  0.15590  0.80604  0.42899  1.0000
  S   S103      1.0  0.16016  0.83575  0.41743  1.0000
  S   S104      1.0  0.15691  0.79367  0.45953  1.0000
  Fe  Fe53      1.0  0.13207  0.83544  0.40610  1.0000
  S   S105      1.0  0.10910  0.85897  0.41166  1.0000
  Fe  Fe54      1.0  0.17294  0.82315  0.39093  1.0000
  S   S106      1.0  0.19674  0.83351  0.36919  1.0000
  S   S107      1.0  0.12713  0.80661  0.41909  1.0000
  S   S108      1.0  0.17018  0.79301  0.40306  1.0000
  Fe  Fe55      1.0  0.18289  0.83003  0.60188  1.0000
  S   S109      1.0  0.18733  0.80480  0.58501  1.0000
  S   S110      1.0  0.20335  0.84052  0.62092  1.0000
  Fe  Fe56      1.0  0.14113  0.83697  0.59250  1.0000
  S   S111      1.0  0.14286  0.81229  0.57530  1.0000
  S   S112      1.0  0.11703  0.86009  0.59509  1.0000
  Fe  Fe57      1.0  0.15896  0.79674  0.59841  1.0000
  S   S113      1.0  0.15789  0.76568  0.60964  1.0000
  Fe  Fe58      1.0  0.17072  0.82190  0.56316  1.0000
  S   S114      1.0  0.17937  0.82827  0.53184  1.0000
  S   S115      1.0  0.15541  0.82092  0.61652  1.0000
  S   S116      1.0  0.16813  0.84757  0.57918  1.0000
  Fe  Fe59      1.0  0.00472  0.88364  0.39821  1.0000
  S   S117      1.0  0.00827  0.90655  0.41611  1.0000
  S   S118      1.0  0.02930  0.87232  0.37899  1.0000
  H   H260      1.0  0.04330  0.60857  0.35807  1.0000
  H   H261      1.0  0.02675  0.83287  0.41236  1.0000
  H   H262      1.0  0.01531  0.66799  0.38542  1.0000
  S   S119      1.0  0.12022  0.69314  0.35700  1.0000
  H   H263      1.0  0.01154  0.90797  0.36349  1.0000
  N   N22       1.0  0.06040  0.84115  0.43924  1.0000
  Fe  Fe60      1.0  0.01004  0.88635  0.57776  1.0000
  S   S120      1.0  0.01375  0.91662  0.56872  1.0000
  S   S121      1.0  0.03242  0.86155  0.57649  1.0000
  H   H264      1.0  0.14062  0.63514  0.58845  1.0000
  H   H265      1.0  0.04570  0.91368  0.38370  1.0000
  H   H266      1.0  0.02604  0.90084  0.62444  1.0000
  S   S122      1.0  0.11247  0.64707  0.33831  1.0000
  S   S123      1.0  0.03407  0.68318  0.32418  1.0000
  H   H267      1.0  0.14637  0.88479  0.52958  1.0000
  H   H268      1.0  0.04532  0.64020  0.36762  1.0000
  C   C259      1.0  0.01801  0.66811  0.36998  1.0000
  C   C260      1.0  0.04204  0.50028  0.49139  1.0000
  C   C261      1.0  0.04019  0.83142  0.41819  1.0000
  C   C262      1.0  0.22522  0.84993  0.62345  1.0000
  C   C263      1.0  0.03361  0.63265  0.60700  1.0000
  N   N23       1.0  0.05077  0.85813  0.62562  1.0000
  C   C264      1.0  0.06345  0.85282  0.45401  1.0000
  C   C265      1.0  0.99027  0.97850  0.60282  1.0000
  C   C266      1.0  0.12252  0.66573  0.40266  1.0000
  H   H269      1.0  0.05381  0.50821  0.48612  1.0000
  C   C267      1.0  0.00279  0.90176  0.51420  1.0000
  H   H270      1.0  0.14399  0.70948  0.37948  1.0000
  H   H271      1.0  0.09956  0.70600  0.60738  1.0000
  C   C268      1.0  0.05657  0.86195  0.57921  1.0000
  C   C269      1.0  0.06826  0.84504  0.57920  1.0000
  C   C270      1.0  0.08704  0.84431  0.58336  1.0000
  C   C271      1.0  0.09434  0.86057  0.58745  1.0000
  C   C272      1.0  0.08291  0.87763  0.58664  1.0000
  C   C273      1.0  0.06409  0.87833  0.58259  1.0000
  H   H272      1.0  0.06255  0.83230  0.57654  1.0000
  H   H273      1.0  0.09566  0.83108  0.58401  1.0000
  H   H274      1.0  0.08848  0.89030  0.58968  1.0000
  H   H275      1.0  0.05529  0.89145  0.58255  1.0000
  C   C274      1.0  0.21959  0.84204  0.36779  1.0000
  H   H276      1.0  0.12822  0.64041  0.56811  1.0000
  H   H277      1.0  0.12136  0.68022  0.39663  1.0000
  C   C275      1.0  0.16304  0.80375  0.47943  1.0000
  C   C276      1.0  0.15800  0.79526  0.49749  1.0000
  C   C277      1.0  0.16283  0.80252  0.51368  1.0000
  C   C278      1.0  0.17309  0.81822  0.51199  1.0000
  C   C279      1.0  0.17819  0.82668  0.49394  1.0000
  C   C280      1.0  0.17304  0.81964  0.47777  1.0000
  H   H278      1.0  0.15037  0.78290  0.49895  1.0000
  H   H279      1.0  0.15882  0.79583  0.52743  1.0000
  H   H280      1.0  0.18620  0.83878  0.49243  1.0000
  H   H281      1.0  0.17717  0.82625  0.46401  1.0000
  C   C281      1.0  0.05166  0.86874  0.38777  1.0000
  C   C282      1.0  0.05542  0.87784  0.40305  1.0000
  C   C283      1.0  0.07329  0.87519  0.40964  1.0000
  C   C284      1.0  0.08744  0.86281  0.40157  1.0000
  C   C285      1.0  0.08375  0.85357  0.38632  1.0000
  C   C286      1.0  0.06599  0.85676  0.37928  1.0000
  H   H282      1.0  0.04462  0.88704  0.40980  1.0000
  H   H283      1.0  0.07606  0.88250  0.42133  1.0000
  H   H284      1.0  0.09457  0.84404  0.37994  1.0000
  H   H285      1.0  0.06326  0.84968  0.36741  1.0000
  C   C287      1.0  0.08284  0.51110  0.51049  1.0000
  C   C288      1.0  0.09183  0.51110  0.49234  1.0000
  C   C289      1.0  0.03202  0.63655  0.36387  1.0000
  H   H286      1.0  0.09645  0.52402  0.48516  1.0000
  C   C290      1.0  0.00986  0.97429  0.62849  1.0000
  C   C291      1.0  0.99202  0.91863  0.50988  1.0000
  C   C292      1.0  0.00524  0.56771  0.49952  1.0000
  H   H287      1.0  0.14983  0.65097  0.56937  1.0000
  H   H288      1.0  0.01907  0.56858  0.49234  1.0000
  C   C293      1.0  0.12098  0.71684  0.36237  1.0000
  C   C294      1.0  0.10886  0.73175  0.35534  1.0000
  C   C295      1.0  0.11031  0.75025  0.35974  1.0000
  C   C296      1.0  0.12374  0.75421  0.37139  1.0000
  C   C297      1.0  0.13581  0.73930  0.37852  1.0000
  C   C298      1.0  0.13448  0.72081  0.37397  1.0000
  H   H289      1.0  0.09844  0.72904  0.34638  1.0000
  H   H290      1.0  0.10091  0.76160  0.35406  1.0000
  H   H291      1.0  0.14622  0.74202  0.38748  1.0000
  C   C299      1.0  0.07895  0.61477  0.39607  1.0000
  C   C300      1.0  0.07886  0.59800  0.40789  1.0000
  C   C301      1.0  0.08048  0.59798  0.42721  1.0000
  C   C302      1.0  0.08211  0.61479  0.43486  1.0000
  C   C303      1.0  0.08116  0.63167  0.42317  1.0000
  C   C304      1.0  0.07967  0.63169  0.40384  1.0000
  H   H292      1.0  0.07824  0.58485  0.40198  1.0000
  H   H293      1.0  0.08138  0.58487  0.43601  1.0000
  H   H294      1.0  0.08235  0.64475  0.42899  1.0000
  H   H295      1.0  0.07964  0.64472  0.39493  1.0000
  C   C305      1.0  0.99830  0.58049  0.51252  1.0000
  C   C306      1.0  0.10750  0.74648  0.63126  1.0000
  C   C307      1.0  0.12108  0.75837  0.62278  1.0000
  C   C308      1.0  0.13997  0.75150  0.62030  1.0000
  C   C309      1.0  0.14503  0.73263  0.62652  1.0000
  C   C310      1.0  0.99389  0.91177  0.47739  1.0000
  C   C311      1.0  0.02786  0.63211  0.58907  1.0000
  H   H296      1.0  0.11690  0.77281  0.61812  1.0000
  N   N24       1.0  0.01663  0.64937  0.36420  1.0000
  C   C312      1.0  0.03584  0.87138  0.62412  1.0000
  H   H297      1.0  0.99466  0.69492  0.32834  1.0000
  C   C313      1.0  0.10443  0.62203  0.60312  1.0000
  C   C314      1.0  0.10941  0.60679  0.59225  1.0000
  C   C315      1.0  0.10226  0.60653  0.57477  1.0000
  C   C316      1.0  0.09051  0.62178  0.56786  1.0000
  C   C317      1.0  0.08553  0.63693  0.57875  1.0000
  C   C318      1.0  0.09220  0.63693  0.59638  1.0000
  H   H298      1.0  0.11900  0.59525  0.59728  1.0000
  H   H299      1.0  0.10629  0.59483  0.56641  1.0000
  H   H300      1.0  0.07643  0.64878  0.57351  1.0000
  H   H301      1.0  0.08845  0.64885  0.60434  1.0000
  H   H302      1.0  0.20152  0.79409  0.36266  1.0000
  H   H303      1.0  0.12262  0.63934  0.44457  1.0000
  C   C319      1.0  0.04805  0.61978  0.61306  1.0000
  H   H304      1.0  0.02916  0.60434  0.55531  1.0000
  C   C320      1.0  0.03781  0.89026  0.62600  1.0000
  C   C321      1.0  0.99614  0.68095  0.32372  1.0000
  H   H305      1.0  0.06241  0.84448  0.46783  1.0000
  C   C322      1.0  0.19049  0.78725  0.35758  1.0000
  H   H306      1.0  0.20084  0.75942  0.36802  1.0000
  C   C323      1.0  0.05515  0.89547  0.62960  1.0000
  H   H307      1.0  0.04002  0.95567  0.37013  1.0000
  C   C324      1.0  0.07481  0.82907  0.43240  1.0000
  H   H308      1.0  0.03214  0.67286  0.36551  1.0000
  S   S124      1.0  0.07331  0.63954  0.32241  1.0000
  H   H309      1.0  0.15959  0.72715  0.62480  1.0000
  H   H310      1.0  0.02118  0.95949  0.57326  1.0000
  S   S125      1.0  0.00919  0.87813  0.46539  1.0000
  H   H311      1.0  0.04129  0.62501  0.54816  1.0000
  H   H312      1.0  0.15046  0.76377  0.34017  1.0000
  H   H313      1.0  0.10299  0.49417  0.46991  1.0000
  C   C325      1.0  0.00394  0.89452  0.48195  1.0000
  C   C326      1.0  0.99462  0.93436  0.36260  1.0000
  C   C327      1.0  0.03136  0.52442  0.51277  1.0000
  H   H314      1.0  0.08399  0.80899  0.41222  1.0000
  H   H315      1.0  0.08392  0.88570  0.63382  1.0000
  H   H316      1.0  0.13328  0.79477  0.33687  1.0000
  H   H317      1.0  0.01288  0.59979  0.34943  1.0000
  C   C328      1.0  0.07232  0.81804  0.41808  1.0000
  C   C329      1.0  0.20992  0.79972  0.64347  1.0000
  H   H318      1.0  0.05690  0.91010  0.63078  1.0000
  H   H319      1.0  0.17646  0.81312  0.34654  1.0000
  S   S126      1.0  0.99279  0.89254  0.60453  1.0000
  H   H320      1.0  0.13522  0.83801  0.49036  1.0000
  H   H321      1.0  0.11295  0.81919  0.51102  1.0000
  C   C330      1.0  0.13147  0.72078  0.63509  1.0000
  H   H322      1.0  0.14479  0.81534  0.33806  1.0000
  H   H323      1.0  0.08858  0.82847  0.43746  1.0000
  C   C331      1.0  0.16179  0.77045  0.34486  1.0000
  C   C332      1.0  0.99789  0.96631  0.40917  1.0000
  C   C333      1.0  0.17620  0.79798  0.34850  1.0000
  H   H324      1.0  0.05298  0.81132  0.39935  1.0000
  H   H325      1.0  0.03170  0.85170  0.43806  1.0000
  C   C334      1.0  0.05649  0.60651  0.60123  1.0000
  C   C335      1.0  0.99117  0.98075  0.52064  1.0000
  Fe  Fe61      1.0  0.10115  0.64243  0.64545  1.0000
  C   C336      1.0  0.99812  0.62663  0.35461  1.0000
  H   H326      1.0  0.02243  0.86741  0.62101  1.0000
  H   H327      1.0  0.07753  0.85824  0.45130  1.0000
  C   C337      1.0  0.22921  0.85390  0.64136  1.0000
  N   N25       1.0  0.12521  0.63279  0.39849  1.0000
  C   C338      1.0  0.12525  0.62855  0.41744  1.0000
  C   C339      1.0  0.12421  0.65109  0.39102  1.0000
  C   C340      1.0  0.12682  0.61765  0.38608  1.0000
  H   H328      1.0  0.12571  0.61407  0.42346  1.0000
  H   H329      1.0  0.12445  0.65453  0.37598  1.0000
  H   H330      1.0  0.12059  0.60498  0.39324  1.0000
  H   H331      1.0  0.11892  0.62189  0.37363  1.0000
  H   H332      1.0  0.14177  0.61395  0.38132  1.0000
  N   N26       1.0  0.12629  0.66267  0.58587  1.0000
  C   C341      1.0  0.12862  0.66596  0.60383  1.0000
  C   C342      1.0  0.11471  0.67475  0.57536  1.0000
  C   C343      1.0  0.11905  0.68158  0.61177  1.0000
  C   C344      1.0  0.10490  0.69050  0.58291  1.0000
  C   C345      1.0  0.10713  0.69391  0.60124  1.0000
  C   C346      1.0  0.13683  0.64656  0.57750  1.0000
  H   H333      1.0  0.13762  0.65629  0.61227  1.0000
  H   H334      1.0  0.11283  0.67210  0.56113  1.0000
  H   H335      1.0  0.12062  0.68400  0.62611  1.0000
  H   H336      1.0  0.09559  0.69998  0.57463  1.0000
  C   C347      1.0  0.11940  0.83020  0.51654  1.0000
  H   H337      1.0  0.12040  0.67276  0.43123  1.0000
  Fe  Fe62      1.0  0.10107  0.67714  0.34151  1.0000
  H   H338      1.0  0.00573  0.95272  0.41104  1.0000
  C   C348      1.0  0.13184  0.84084  0.50491  1.0000
  C   C349      1.0  0.14076  0.85440  0.51241  1.0000
  H   H339      1.0  0.15113  0.86194  0.50351  1.0000
  S   S127      1.0  0.99336  0.86386  0.42155  1.0000
  C   C350      1.0  0.12353  0.64283  0.42950  1.0000
  C   C351      1.0  0.11576  0.83346  0.53540  1.0000
  H   H340      1.0  0.10626  0.82518  0.54466  1.0000
  H   H341      1.0  0.00645  0.89790  0.52833  1.0000
  N   N27       1.0  0.00123  0.98394  0.53657  1.0000
  H   H342      1.0  0.03784  0.53466  0.50206  1.0000
  C   C352      1.0  0.02741  0.94962  0.36759  1.0000
  C   C353      1.0  0.99433  0.95364  0.36365  1.0000
  C   C354      1.0  0.14690  0.80098  0.33330  1.0000
  C   C355      1.0  0.05039  0.60636  0.58341  1.0000
  N   N28       1.0  0.13714  0.85748  0.53092  1.0000
  C   C356      1.0  0.12483  0.84723  0.54239  1.0000
  H   H343      1.0  0.09294  0.75199  0.63306  1.0000
  C   C357      1.0  0.12208  0.66154  0.42203  1.0000
  H   H344      1.0  0.99921  0.54448  0.48502  1.0000
  H   H345      1.0  0.05293  0.86527  0.45452  1.0000
  C   C358      1.0  0.99975  0.64452  0.35997  1.0000
  H   H346      1.0  0.05286  0.62031  0.62679  1.0000
  C   C359      1.0  0.03092  0.61855  0.35854  1.0000
  C   C360      1.0  0.14721  0.87129  0.53853  1.0000
  H   H347      1.0  0.12220  0.84944  0.55711  1.0000
  H   H348      1.0  0.05747  0.59645  0.57401  1.0000
  H   H349      1.0  0.04551  0.90596  0.36072  1.0000
  H   H350      1.0  0.14133  0.87414  0.55298  1.0000
  Fe  Fe63      1.0  0.06406  0.66976  0.32649  1.0000
  C   C361      1.0  0.19011  0.76782  0.36055  1.0000
  C   C362      1.0  0.00740  0.96887  0.54823  1.0000
  H   H351      1.0  0.01671  0.87646  0.50375  1.0000
  H   H352      1.0  0.16220  0.86590  0.53908  1.0000
  C   C363      1.0  0.22722  0.85049  0.35052  1.0000
  C   C364      1.0  0.07024  0.88180  0.63142  1.0000
  C   C365      1.0  0.01082  0.96138  0.36605  1.0000
  C   C366      1.0  0.01414  0.49685  0.51157  1.0000
  C   C367      1.0  0.17574  0.75931  0.35406  1.0000
  C   C368      1.0  0.04829  0.83844  0.62372  1.0000
  C   C369      1.0  0.00875  0.88971  0.50025  1.0000
  S   S128      1.0  0.00556  0.94192  0.61359  1.0000
  N   N29       1.0  0.16188  0.78956  0.34265  1.0000
  H   H353      1.0  0.00372  0.50212  0.52220  1.0000
  N   N30       1.0  0.03618  0.61899  0.57758  1.0000
  C   C370      1.0  0.09552  0.49416  0.48373  1.0000
  H   H354      1.0  0.04068  0.52135  0.52429  1.0000
  H   H355      1.0  0.00796  0.67870  0.36308  1.0000
  C   C371      1.0  0.03055  0.61890  0.55858  1.0000
  Fe  Fe64      1.0  0.99482  0.92305  0.59447  1.0000
  H   H356      1.0  0.01679  0.64232  0.58442  1.0000
  H   H357      1.0  0.01681  0.62703  0.55675  1.0000
  C   C372      1.0  0.01387  0.61363  0.35380  1.0000
  H   H358      1.0  0.00500  0.95475  0.54561  1.0000
  C   C373      1.0  0.07711  0.49416  0.51969  1.0000
  Fe  Fe65      1.0  0.99536  0.88727  0.43910  1.0000
  C   C374      1.0  0.05492  0.81936  0.41086  1.0000
  C   C375      1.0  0.04314  0.84214  0.43261  1.0000
  C   C376      1.0  0.01149  0.92302  0.36399  1.0000
  H   H359      1.0  0.06810  0.59680  0.60561  1.0000
  C   C377      1.0  0.23059  0.84010  0.38297  1.0000
  C   C378      1.0  0.00134  0.96654  0.61483  1.0000
  N   N31       1.0  0.02763  0.93074  0.36629  1.0000
  H   H360      1.0  0.07970  0.85263  0.63041  1.0000
  C   C379      1.0  0.11254  0.72760  0.63745  1.0000
  H   H361      1.0  0.17512  0.74423  0.35644  1.0000
  H   H362      1.0  0.21896  0.85216  0.33864  1.0000
  H   H363      1.0  0.22512  0.83364  0.39635  1.0000
  H   H364      1.0  0.05757  0.92593  0.36347  1.0000
  C   C380      1.0  0.04497  0.91854  0.36865  1.0000
  H   H365      1.0  0.02705  0.64305  0.61614  1.0000
  H   H366      1.0  0.07019  0.49403  0.53375  1.0000
  C   C381      1.0  0.01420  0.67173  0.32032  1.0000
  H   H367      1.0  0.01054  0.97630  0.36752  1.0000
  C   C382      1.0  0.01668  0.97145  0.56379  1.0000
  C   C383      1.0  0.99398  0.55413  0.49535  1.0000
  N   N32       1.0  0.02886  0.50700  0.50473  1.0000
  H   H368      1.0  0.06180  0.83055  0.61918  1.0000
  S   S129      1.0  0.09461  0.71332  0.64795  1.0000
  H   H369      1.0  0.01777  0.53132  0.51850  1.0000
  N   N33       1.0  0.22153  0.79367  0.62860  1.0000
  H   H370      1.0  0.23631  0.84992  0.59458  1.0000
  H   H371      1.0  0.13576  0.70649  0.64012  1.0000
  H   H372      1.0  0.02199  0.98187  0.40961  1.0000
  C   C384      1.0  0.21686  0.77961  0.61900  1.0000
  H   H373      1.0  0.99873  0.96917  0.51292  1.0000
  C   C385      1.0  0.18835  0.77717  0.63947  1.0000
  H   H374      1.0  0.22572  0.77523  0.60683  1.0000
  H   H375      1.0  0.98813  0.85165  0.51237  1.0000
  H   H376      1.0  0.04239  0.83167  0.63727  1.0000
  C   C386      1.0  0.00708  0.98285  0.40833  1.0000
  C   C387      1.0  0.20033  0.77102  0.62441  1.0000
  H   H377      1.0  0.17517  0.77100  0.64336  1.0000
  H   H378      1.0  0.99031  0.91562  0.46321  1.0000
  H   H379      1.0  0.00071  0.62834  0.64877  1.0000
  C   C388      1.0  0.19311  0.79165  0.64905  1.0000
  H   H380      1.0  0.23620  0.81214  0.60904  1.0000
  H   H381      1.0  0.21322  0.81140  0.65061  1.0000
  H   H382      1.0  0.15037  0.80194  0.31789  1.0000
  Fe  Fe66      1.0  0.06161  0.65414  0.66238  1.0000
  S   S130      1.0  0.08284  0.63005  0.66956  1.0000
  C   C389      1.0  0.05662  0.65957  0.73381  1.0000
  Fe  Fe67      1.0  0.09524  0.64857  0.68757  1.0000
  S   S131      1.0  0.09861  0.63651  0.71830  1.0000
  S   S132      1.0  0.07254  0.67222  0.68197  1.0000
  Fe  Fe68      1.0  0.16358  0.59531  0.80551  1.0000
  S   S133      1.0  0.19208  0.57965  0.80794  1.0000
  S   S134      1.0  0.16134  0.61084  0.77600  1.0000
  Fe  Fe69      1.0  0.15156  0.58168  0.84623  1.0000
  S   S135      1.0  0.17922  0.56524  0.85095  1.0000
  S   S136      1.0  0.12690  0.57696  0.86801  1.0000
  Fe  Fe70      1.0  0.19213  0.59065  0.83612  1.0000
  N   N34       1.0  0.16171  0.55074  0.77268  1.0000
  Fe  Fe71      1.0  0.17730  0.55551  0.82264  1.0000
  S   S137      1.0  0.18819  0.52623  0.81461  1.0000
  S   S138      1.0  0.16437  0.60801  0.83302  1.0000
  S   S139      1.0  0.14890  0.57030  0.81849  1.0000
  H   H383      1.0  0.00774  0.63247  0.69511  1.0000
  C   C390      1.0  0.12829  0.55816  0.77488  1.0000
  S   S140      1.0  0.11136  0.60511  0.94969  1.0000
  C   C391      1.0  0.14648  0.56343  0.77019  1.0000
  H   H384      1.0  0.19855  0.62014  0.78427  1.0000
  H   H385      1.0  0.02210  0.67485  0.72757  1.0000
  H   H386      1.0  0.14834  0.57778  0.76472  1.0000
  H   H387      1.0  0.04968  0.66937  0.74390  1.0000
  C   C392      1.0  0.02582  0.66165  0.72146  1.0000
  N   N35       1.0  0.01002  0.52253  0.97392  1.0000
  Fe  Fe72      1.0  0.10024  0.58564  0.97420  1.0000
  H   H388      1.0  0.01453  0.67805  0.67070  1.0000
  H   H389      1.0  0.20753  0.63034  0.86344  1.0000
  C   C393      1.0  0.99263  0.53043  0.97985  1.0000
  C   C394      1.0  0.17590  0.50574  0.81861  1.0000
  C   C395      1.0  0.15679  0.50656  0.82473  1.0000
  H   H390      1.0  0.11173  0.53540  0.78568  1.0000
  H   H391      1.0  0.14932  0.51983  0.82798  1.0000
  C   C396      1.0  0.02479  0.53462  0.96640  1.0000
  C   C397      1.0  0.12255  0.58563  0.89034  1.0000
  C   C398      1.0  0.13263  0.59954  0.89572  1.0000
  C   C399      1.0  0.12889  0.60559  0.91386  1.0000
  C   C400      1.0  0.11544  0.59747  0.92689  1.0000
  C   C401      1.0  0.10543  0.58353  0.92150  1.0000
  C   C402      1.0  0.10880  0.57785  0.90324  1.0000
  H   H392      1.0  0.14316  0.60571  0.88588  1.0000
  H   H393      1.0  0.13656  0.61650  0.91789  1.0000
  H   H394      1.0  0.09485  0.57740  0.93129  1.0000
  H   H395      1.0  0.10083  0.56722  0.89914  1.0000
  H   H396      1.0  0.03018  0.58763  0.97971  1.0000
  N   N36       1.0  0.04305  0.65207  0.72335  1.0000
  C   C403      1.0  0.18471  0.64187  0.80041  1.0000
  C   C404      1.0  0.00421  0.66950  0.66694  1.0000
  H   H397      1.0  0.03508  0.52752  0.95622  1.0000
  C   C405      1.0  0.11645  0.62923  0.73393  1.0000
  C   C406      1.0  0.11119  0.62094  0.75206  1.0000
  C   C407      1.0  0.12460  0.61519  0.76507  1.0000
  C   C408      1.0  0.14358  0.61776  0.76021  1.0000
  C   C409      1.0  0.14885  0.62596  0.74207  1.0000
  C   C410      1.0  0.13545  0.63161  0.72902  1.0000
  H   H398      1.0  0.09658  0.61903  0.75613  1.0000
  H   H399      1.0  0.12019  0.60901  0.77893  1.0000
  H   H400      1.0  0.16344  0.62803  0.73802  1.0000
  H   H401      1.0  0.13983  0.63795  0.71522  1.0000
  C   C411      1.0  0.20314  0.65284  0.82252  1.0000
  C   C412      1.0  0.23231  0.64046  0.87233  1.0000
  C   C413      1.0  0.14134  0.52666  0.78370  1.0000
  H   H402      1.0  0.19040  0.54940  0.77796  1.0000
  C   C414      1.0  0.23217  0.61527  0.79727  1.0000
  H   H403      1.0  0.17438  0.66304  0.81898  1.0000
  S   S141      1.0  0.22132  0.59771  0.84237  1.0000
  H   H404      1.0  0.03955  0.61607  0.69740  1.0000
  C   C415      1.0  0.12574  0.53967  0.78180  1.0000
  C   C416      1.0  0.01003  0.65247  0.65939  1.0000
  H   H405      1.0  0.06686  0.66706  0.72394  1.0000
  H   H406      1.0  0.20453  0.66173  0.83352  1.0000
  H   H407      1.0  0.23123  0.63975  0.82310  1.0000
  H   H408      1.0  0.01883  0.54791  0.95908  1.0000
  H   H409      1.0  0.17163  0.64224  0.79400  1.0000
  C   C417      1.0  0.99638  0.64158  0.65454  1.0000
  S   S142      1.0  0.11561  0.65925  0.66371  1.0000
  H   H410      1.0  0.98927  0.54545  0.97765  1.0000
  C   C418      1.0  0.22259  0.62803  0.86370  1.0000
  N   N37       1.0  0.13347  0.54242  0.92540  1.0000
  C   C419      1.0  0.14394  0.54539  0.90859  1.0000
  C   C420      1.0  0.13678  0.55128  0.94048  1.0000
  C   C421      1.0  0.15780  0.55796  0.90649  1.0000
  C   C422      1.0  0.15036  0.56410  0.93883  1.0000
  C   C423      1.0  0.16088  0.56748  0.92168  1.0000
  C   C424      1.0  0.11883  0.52938  0.92754  1.0000
  H   H411      1.0  0.14115  0.53867  0.89648  1.0000
  H   H412      1.0  0.12853  0.54882  0.95376  1.0000
  H   H413      1.0  0.16548  0.56089  0.89293  1.0000
  H   H414      1.0  0.15224  0.57177  0.95063  1.0000
  H   H415      1.0  0.17105  0.57781  0.92002  1.0000
  H   H416      1.0  0.11399  0.52724  0.91383  1.0000
  H   H417      1.0  0.12422  0.51568  0.93450  1.0000
  H   H418      1.0  0.10638  0.53500  0.93644  1.0000
  C   C425      1.0  0.01276  0.65461  0.71152  1.0000
  H   H419      1.0  0.99933  0.59824  0.96758  1.0000
  H   H420      1.0  0.99915  0.66227  0.70982  1.0000
  H   H421      1.0  0.06459  0.64802  0.74196  1.0000
  C   C426      1.0  0.15932  0.53246  0.77894  1.0000
  C   C427      1.0  0.03539  0.62858  0.70462  1.0000
  H   H422      1.0  0.11631  0.56843  0.77323  1.0000
  Fe  Fe73      1.0  0.09251  0.68198  0.65722  1.0000
  S   S143      1.0  0.08251  0.56209  0.97211  1.0000
  C   C428      1.0  0.23243  0.61289  0.85512  1.0000
  C   C429      1.0  0.19999  0.62936  0.79497  1.0000
  H   H423      1.0  0.17139  0.52230  0.78059  1.0000
  C   C430      1.0  0.09748  0.50277  0.97746  1.0000
  H   H424      1.0  0.06192  0.62866  0.71567  1.0000
  C   C431      1.0  0.04804  0.63591  0.71480  1.0000
  C   C432      1.0  0.18627  0.65355  0.81440  1.0000
  N   N38       1.0  0.21639  0.62855  0.80321  1.0000
  C   C433      1.0  0.21822  0.64033  0.81658  1.0000
  C   C434      1.0  0.01757  0.63788  0.70323  1.0000
  H   H425      1.0  0.18098  0.57187  0.76836  1.0000
  H   H426      1.0  0.22455  0.65226  0.87865  1.0000
  S   S144      1.0  0.03395  0.64330  0.65703  1.0000
  S   S145      1.0  0.11604  0.51667  0.97741  1.0000
  H   H427      1.0  0.13231  0.49111  0.83046  1.0000
  C   C435      1.0  0.18069  0.55649  0.76782  1.0000
  C   C436      1.0  0.99998  0.58834  0.97991  1.0000
  H   H428      1.0  0.18591  0.55280  0.75350  1.0000
  C   C437      1.0  0.14718  0.49024  0.82612  1.0000
  H   H429      1.0  0.03237  0.53826  0.97808  1.0000
  C   C438      1.0  0.01407  0.50349  0.97621  1.0000
  H   H430      1.0  0.02771  0.49716  0.97118  1.0000
  H   H431      1.0  0.20014  0.48758  0.80964  1.0000
  H   H432      1.0  0.21883  0.85180  0.65315  1.0000
  H   H433      1.0  0.22733  0.60110  0.79706  1.0000
  H   H434      1.0  0.13958  0.51221  0.78903  1.0000
  C   C439      1.0  0.18536  0.48836  0.81441  1.0000
  H   H435      1.0  0.18363  0.79695  0.66040  1.0000
  C   C440      1.0  0.07930  0.50952  0.98384  1.0000
  H   H436      1.0  0.35907  0.45443  0.06703  1.0000
  Fe  Fe74      1.0  0.33346  0.08561  0.30854  1.0000
  H   H437      1.0  0.29481  0.09836  0.28989  1.0000
  S   S146      1.0  0.33411  0.09975  0.27838  1.0000
  Fe  Fe75      1.0  0.39601  0.13071  0.15201  1.0000
  S   S147      1.0  0.41880  0.12380  0.17113  1.0000
  S   S148      1.0  0.38255  0.10925  0.13761  1.0000
  Fe  Fe76      1.0  0.39150  0.17272  0.15932  1.0000
  S   S149      1.0  0.41424  0.16834  0.17941  1.0000
  S   S150      1.0  0.37186  0.20005  0.15473  1.0000
  Fe  Fe77      1.0  0.43036  0.15049  0.15813  1.0000
  S   S151      1.0  0.46154  0.14684  0.14817  1.0000
  Fe  Fe78      1.0  0.40106  0.14183  0.19113  1.0000
  S   S152      1.0  0.40125  0.13025  0.22191  1.0000
  S   S153      1.0  0.40850  0.15635  0.13727  1.0000
  S   S154      1.0  0.37735  0.14724  0.17278  1.0000
  Fe  Fe79      1.0  0.41304  0.00853  0.09534  1.0000
  S   S155      1.0  0.42198  0.00731  0.06456  1.0000
  S   S156      1.0  0.42272  0.03124  0.11151  1.0000
  H   H438      1.0  0.47417  0.11317  0.17850  1.0000
  Fe  Fe80      1.0  0.31947  0.32920  0.06377  1.0000
  S   S157      1.0  0.34937  0.32293  0.07040  1.0000
  S   S158      1.0  0.30747  0.33694  0.03550  1.0000
  Fe  Fe81      1.0  0.30538  0.33128  0.10499  1.0000
  S   S159      1.0  0.33458  0.32518  0.11470  1.0000
  S   S160      1.0  0.27814  0.33273  0.12458  1.0000
  Fe  Fe82      1.0  0.34339  0.34562  0.09018  1.0000
  S   S161      1.0  0.36775  0.36421  0.08844  1.0000
  Fe  Fe83      1.0  0.33899  0.30273  0.09454  1.0000
  S   S162      1.0  0.35797  0.27477  0.09846  1.0000
  S   S163      1.0  0.31402  0.35321  0.08213  1.0000
  S   S164      1.0  0.30926  0.30750  0.08626  1.0000
  H   H439      1.0  0.42152  0.43688  0.01159  1.0000
  H   H440      1.0  0.45006  0.14468  0.19034  1.0000
  H   H441      1.0  0.44922  0.14149  0.21554  1.0000
  Fe  Fe84      1.0  0.39468  0.47130  0.09236  1.0000
  S   S165      1.0  0.37426  0.44945  0.10372  1.0000
  S   S166      1.0  0.42498  0.46762  0.08059  1.0000
  C   C441      1.0  0.39213  0.44369  0.05076  1.0000
  C   C442      1.0  0.48183  0.47319  0.10003  1.0000
  C   C443      1.0  0.45433  0.13491  0.20242  1.0000
  H   H442      1.0  0.45501  0.00316  0.11318  1.0000
  H   H443      1.0  0.47103  0.46364  0.10337  1.0000
  H   H444      1.0  0.34593  0.45109  0.04807  1.0000
  H   H445      1.0  0.47945  0.14931  0.22057  1.0000
  C   C444      1.0  0.26008  0.35122  0.12829  1.0000
  H   H446      1.0  0.24882  0.37638  0.06538  1.0000
  C   C445      1.0  0.26081  0.36915  0.11884  1.0000
  H   H447      1.0  0.37897  0.28245  0.12987  1.0000
  H   H448      1.0  0.27298  0.37231  0.10940  1.0000
  C   C446      1.0  0.31245  0.32596  0.01430  1.0000
  H   H449      1.0  0.34512  0.07092  0.20590  1.0000
  C   C447      1.0  0.32454  0.30957  0.01296  1.0000
  C   C448      1.0  0.37860  0.33621  0.12886  1.0000
  H   H450      1.0  0.33086  0.30294  0.02524  1.0000
  C   C449      1.0  0.36895  0.38811  0.09235  1.0000
  C   C450      1.0  0.38620  0.39596  0.08805  1.0000
  C   C451      1.0  0.38810  0.41466  0.09135  1.0000
  C   C452      1.0  0.37274  0.42578  0.09908  1.0000
  C   C453      1.0  0.35550  0.41791  0.10342  1.0000
  C   C454      1.0  0.35356  0.39925  0.09997  1.0000
  H   H451      1.0  0.39825  0.38744  0.08231  1.0000
  H   H452      1.0  0.40158  0.42028  0.08836  1.0000
  H   H453      1.0  0.34355  0.42631  0.10955  1.0000
  H   H454      1.0  0.34023  0.39341  0.10348  1.0000
  H   H455      1.0  0.41047  0.30287  0.09369  1.0000
  C   C455      1.0  0.38744  0.32661  0.11395  1.0000
  H   H456      1.0  0.24340  0.33369  0.14803  1.0000
  C   C456      1.0  0.37918  0.29754  0.12961  1.0000
  H   H457      1.0  0.48296  0.04379  0.11442  1.0000
  H   H458      1.0  0.35451  0.33893  0.00408  1.0000
  C   C457      1.0  0.36879  0.22108  0.13922  1.0000
  C   C458      1.0  0.38086  0.22484  0.12305  1.0000
  C   C459      1.0  0.37721  0.24119  0.11079  1.0000
  C   C460      1.0  0.36156  0.25420  0.11450  1.0000
  C   C461      1.0  0.34961  0.25055  0.13077  1.0000
  C   C462      1.0  0.35316  0.23411  0.14293  1.0000
  H   H459      1.0  0.39301  0.21516  0.11996  1.0000
  H   H460      1.0  0.38665  0.24381  0.09833  1.0000
  H   H461      1.0  0.33753  0.26032  0.13394  1.0000
  H   H462      1.0  0.34367  0.23145  0.15535  1.0000
  C   C463      1.0  0.26740  0.34256  0.07203  1.0000
  C   C464      1.0  0.28303  0.13750  0.31259  1.0000
  H   H463      1.0  0.42224  0.44246  0.04495  1.0000
  H   H464      1.0  0.27528  0.35413  0.06473  1.0000
  H   H465      1.0  0.46654  0.17351  0.17537  1.0000
  C   C465      1.0  0.39397  0.08768  0.13028  1.0000
  C   C466      1.0  0.41258  0.08183  0.13354  1.0000
  C   C467      1.0  0.42106  0.06456  0.12769  1.0000
  C   C468      1.0  0.41114  0.05290  0.11846  1.0000
  C   C469      1.0  0.39251  0.05875  0.11522  1.0000
  C   C470      1.0  0.38400  0.07601  0.12113  1.0000
  H   H466      1.0  0.42050  0.09064  0.14047  1.0000
  H   H467      1.0  0.43546  0.06027  0.13027  1.0000
  H   H468      1.0  0.38467  0.04997  0.10815  1.0000
  H   H469      1.0  0.36960  0.08035  0.11852  1.0000
  C   C471      1.0  0.35285  0.10907  0.26335  1.0000
  C   C472      1.0  0.37113  0.10808  0.26859  1.0000
  C   C473      1.0  0.38565  0.11499  0.25587  1.0000
  C   C474      1.0  0.38215  0.12286  0.23772  1.0000
  C   C475      1.0  0.36387  0.12381  0.23246  1.0000
  C   C476      1.0  0.34933  0.11703  0.24522  1.0000
  H   H470      1.0  0.37412  0.10196  0.28244  1.0000
  H   H471      1.0  0.39972  0.11413  0.26012  1.0000
  H   H472      1.0  0.36094  0.12978  0.21856  1.0000
  H   H473      1.0  0.33527  0.11788  0.24097  1.0000
  C   C477      1.0  0.47246  0.03346  0.11457  1.0000
  C   C478      1.0  0.35296  0.34152  0.98918  1.0000
  N   N39       1.0  0.48122  0.01420  0.11388  1.0000
  C   C479      1.0  0.48156  0.15518  0.15598  1.0000
  C   C480      1.0  0.23964  0.33787  0.09392  1.0000
  H   H474      1.0  0.39257  0.44643  0.06522  1.0000
  S   S167      1.0  0.37976  0.00088  0.03754  1.0000
  C   C481      1.0  0.32842  0.30168  0.99566  1.0000
  N   N40       1.0  0.24906  0.34945  0.08081  1.0000
  H   H475      1.0  0.42847  0.02058  0.01689  1.0000
  N   N41       1.0  0.37533  0.44298  0.04367  1.0000
  C   C482      1.0  0.24134  0.36718  0.07574  1.0000
  H   H476      1.0  0.40822  0.09289  0.20375  1.0000
  C   C483      1.0  0.35903  0.07561  0.20546  1.0000
  C   C484      1.0  0.38147  0.00090  0.99913  1.0000
  N   N42       1.0  0.26920  0.10397  0.30692  1.0000
  H   H477      1.0  0.38734  0.30109  0.08653  1.0000
  C   C485      1.0  0.24571  0.38305  0.12162  1.0000
  H   H478      1.0  0.39340  0.09211  0.17408  1.0000
  N   N43       1.0  0.47477  0.13072  0.20055  1.0000
  H   H479      1.0  0.36320  0.29871  0.15657  1.0000
  C   C486      1.0  0.38614  0.08752  0.18745  1.0000
  H   H480      1.0  0.36902  0.01067  0.00005  1.0000
  C   C487      1.0  0.38967  0.99373  0.01560  1.0000
  H   H481      1.0  0.36172  0.08133  0.17519  1.0000
  H   H482      1.0  0.26572  0.33258  0.06164  1.0000
  C   C488      1.0  0.36996  0.32615  0.14438  1.0000
  H   H483      1.0  0.36150  0.43906  0.01971  1.0000
  C   C489      1.0  0.47007  0.00005  0.11310  1.0000
  H   H484      1.0  0.35588  0.05413  0.24019  1.0000
  Fe  Fe85      1.0  0.39600  0.99290  0.06311  1.0000
  C   C490      1.0  0.37024  0.30667  0.14479  1.0000
  H   H485      1.0  0.36269  0.33349  0.15583  1.0000
  H   H486      1.0  0.39374  0.33458  0.10174  1.0000
  N   N44       1.0  0.36738  0.07584  0.22167  1.0000
  C   C491      1.0  0.30425  0.33428  0.99819  1.0000
  C   C492      1.0  0.38495  0.08171  0.22111  1.0000
  C   C493      1.0  0.37928  0.48386  0.00261  1.0000
  C   C494      1.0  0.39452  0.08775  0.20403  1.0000
  H   H487      1.0  0.39088  0.43533  0.99888  1.0000
  C   C495      1.0  0.35744  0.06939  0.23960  1.0000
  C   C496      1.0  0.40857  0.43809  0.02068  1.0000
  H   H488      1.0  0.39154  0.08216  0.23392  1.0000
  H   H489      1.0  0.46257  0.03448  0.12740  1.0000
  S   S168      1.0  0.38558  0.99638  0.09353  1.0000
  C   C497      1.0  0.40898  0.44126  0.03941  1.0000
  H   H490      1.0  0.35470  0.43099  0.06300  1.0000
  N   N45       1.0  0.36496  0.17500  0.11168  1.0000
  C   C498      1.0  0.35164  0.18866  0.11749  1.0000
  C   C499      1.0  0.36451  0.15687  0.11948  1.0000
  C   C500      1.0  0.33748  0.18437  0.13160  1.0000
  C   C501      1.0  0.35042  0.15205  0.13347  1.0000
  C   C502      1.0  0.33694  0.16595  0.13966  1.0000
  C   C503      1.0  0.38059  0.18010  0.09805  1.0000
  H   H491      1.0  0.35227  0.20314  0.11172  1.0000
  H   H492      1.0  0.37525  0.14604  0.11516  1.0000
  H   H493      1.0  0.32746  0.19544  0.13668  1.0000
  H   H494      1.0  0.35031  0.13770  0.13976  1.0000
  H   H495      1.0  0.32631  0.16252  0.15093  1.0000
  H   H496      1.0  0.37611  0.19208  0.08800  1.0000
  H   H497      1.0  0.39207  0.18422  0.10555  1.0000
  H   H498      1.0  0.38614  0.16816  0.08979  1.0000
  H   H499      1.0  0.37800  0.35143  0.12804  1.0000
  H   H500      1.0  0.34334  0.07721  0.24147  1.0000
  N   N46       1.0  0.43841  0.01111  0.99017  1.0000
  C   C504      1.0  0.39139  0.43726  0.01357  1.0000
  H   H501      1.0  0.26796  0.08047  0.29127  1.0000
  C   C505      1.0  0.39642  0.29804  0.09827  1.0000
  H   H502      1.0  0.39814  0.28254  0.10147  1.0000
  H   H503      1.0  0.24644  0.39684  0.11422  1.0000
  H   H504      1.0  0.36496  0.07183  0.25177  1.0000
  C   C506      1.0  0.47581  0.00067  0.06634  1.0000
  C   C507      1.0  0.48282  0.11909  0.18748  1.0000
  N   N47       1.0  0.38770  0.30753  0.11448  1.0000
  H   H505      1.0  0.27618  0.33530  0.08286  1.0000
  C   C508      1.0  0.43841  0.01113  0.00917  1.0000
  C   C509      1.0  0.41131  0.48300  0.01062  1.0000
  C   C510      1.0  0.37480  0.43961  0.02538  1.0000
  H   H506      1.0  0.44717  0.12190  0.20270  1.0000
  C   C511      1.0  0.45083  0.99859  0.01902  1.0000
  C   C512      1.0  0.24411  0.34747  0.14059  1.0000
  H   H507      1.0  0.46129  0.00602  0.06862  1.0000
  C   C513      1.0  0.35787  0.44495  0.05599  1.0000
  H   H508      1.0  0.24687  0.08685  0.30566  1.0000
  H   H509      1.0  0.41189  0.02706  0.98870  1.0000
  H   H510      1.0  0.46431  0.03744  0.10222  1.0000
  C   C514      1.0  0.36828  0.08144  0.18811  1.0000
  H   H511      1.0  0.45067  0.99843  0.03409  1.0000
  C   C515      1.0  0.48018  0.16774  0.16979  1.0000
  H   H512      1.0  0.30489  0.01216  0.31567  1.0000
  H   H513      1.0  0.29475  0.34688  0.99910  1.0000
  H   H514      1.0  0.33319  0.36558  0.99240  1.0000
  H   H515      1.0  0.33775  0.28896  0.99478  1.0000
  C   C516      1.0  0.41784  0.48059  0.99198  1.0000
  C   C517      1.0  0.26242  0.08579  0.30489  1.0000
  H   H516      1.0  0.48626  0.02632  0.07220  1.0000
  C   C518      1.0  0.48574  0.13939  0.21085  1.0000
  H   H517      1.0  0.43275  0.47934  0.98781  1.0000
  C   C519      1.0  0.28638  0.10816  0.29851  1.0000
  H   H518      1.0  0.24602  0.32399  0.09829  1.0000
  S   S169      1.0  0.42758  0.48343  0.02701  1.0000
  C   C520      1.0  0.39201  0.48486  0.01585  1.0000
  S   S170      1.0  0.31073  0.06583  0.31586  1.0000
  C   C521      1.0  0.29353  0.12497  0.30117  1.0000
  H   H519      1.0  0.36436  0.48521  0.00673  1.0000
  H   H520      1.0  0.30731  0.12805  0.29469  1.0000
  H   H521      1.0  0.28859  0.15041  0.31505  1.0000
  H   H522      1.0  0.26705  0.07539  0.31639  1.0000
  C   C522      1.0  0.31226  0.99833  0.31742  1.0000
  C   C523      1.0  0.24295  0.13208  0.37352  1.0000
  C   C524      1.0  0.47315  0.98767  0.58797  1.0000
  H   H523      1.0  0.39985  0.07213  0.60243  1.0000
  Fe  Fe86      1.0  0.33226  0.04675  0.33071  1.0000
  Fe  Fe87      1.0  0.47508  0.08836  0.60401  1.0000
  S   S171      1.0  0.47090  0.07256  0.57971  1.0000
  S   S172      1.0  0.45120  0.10635  0.61845  1.0000
  C   C525      1.0  0.24941  0.13625  0.57934  1.0000
  C   C526      1.0  0.43978  0.11319  0.55610  1.0000
  Fe  Fe88      1.0  0.30380  0.08021  0.34262  1.0000
  S   S173      1.0  0.27219  0.08474  0.35327  1.0000
  Fe  Fe89      1.0  0.34625  0.07924  0.34809  1.0000
  S   S174      1.0  0.36533  0.08379  0.37062  1.0000
  N   N48       1.0  0.47455  0.12640  0.55773  1.0000
  C   C527      1.0  0.47056  0.11947  0.54173  1.0000
  S   S175      1.0  0.32541  0.10103  0.33453  1.0000
  S   S176      1.0  0.32402  0.05954  0.35791  1.0000
  Fe  Fe90      1.0  0.47160  0.07039  0.39676  1.0000
  S   S177      1.0  0.45337  0.08263  0.37348  1.0000
  S   S178      1.0  0.46064  0.05716  0.42465  1.0000
  C   C528      1.0  0.46144  0.12704  0.57288  1.0000
  C   C529      1.0  0.25442  0.10108  0.36358  1.0000
  H   H524      1.0  0.42910  0.03468  0.61009  1.0000
  Fe  Fe91      1.0  0.48202  0.07197  0.43684  1.0000
  C   C530      1.0  0.25778  0.11934  0.36663  1.0000
  C   C531      1.0  0.42912  0.09947  0.42886  1.0000
  C   C532      1.0  0.31213  0.99282  0.36834  1.0000
  H   H525      1.0  0.27179  0.12372  0.36352  1.0000
  C   C533      1.0  0.24992  0.14981  0.59178  1.0000
  Fe  Fe92      1.0  0.48402  0.03477  0.42023  1.0000
  H   H526      1.0  0.31733  0.99066  0.63609  1.0000
  H   H527      1.0  0.42630  0.10781  0.55561  1.0000
  C   C534      1.0  0.42943  0.07918  0.37187  1.0000
  C   C535      1.0  0.41795  0.07212  0.38730  1.0000
  C   C536      1.0  0.39842  0.07244  0.38631  1.0000
  C   C537      1.0  0.39018  0.07924  0.36975  1.0000
  C   C538      1.0  0.40182  0.08530  0.35401  1.0000
  C   C539      1.0  0.42128  0.08544  0.35514  1.0000
  H   H528      1.0  0.42398  0.06721  0.40025  1.0000
  H   H529      1.0  0.38956  0.06782  0.39860  1.0000
  H   H530      1.0  0.39571  0.09085  0.34126  1.0000
  H   H531      1.0  0.43000  0.09092  0.34311  1.0000
  C   C540      1.0  0.47219  0.07722  0.50294  1.0000
  N   N49       1.0  0.42071  0.04452  0.63697  1.0000
  H   H532      1.0  0.24582  0.14615  0.37562  1.0000
  C   C541      1.0  0.47881  0.99015  0.41279  1.0000
  H   H533      1.0  0.46389  0.01662  0.46412  1.0000
  H   H534      1.0  0.44983  0.04667  0.62898  1.0000
  S   S179      1.0  0.35553  0.06547  0.32159  1.0000
  C   C542      1.0  0.47713  0.99740  0.39419  1.0000
  H   H535      1.0  0.40482  0.12020  0.37048  1.0000
  H   H536      1.0  0.26044  0.14815  0.60176  1.0000
  C   C543      1.0  0.39085  0.08866  0.62560  1.0000
  H   H537      1.0  0.39191  0.04481  0.64776  1.0000
  S   S180      1.0  0.36807  0.08074  0.62821  1.0000
  C   C544      1.0  0.42802  0.09936  0.62104  1.0000
  C   C545      1.0  0.42252  0.08683  0.60944  1.0000
  C   C546      1.0  0.40399  0.08174  0.61155  1.0000
  C   C547      1.0  0.44387  0.12051  0.57226  1.0000
  C   C548      1.0  0.32998  0.99615  0.32415  1.0000
  H   H538      1.0  0.43248  0.08114  0.59875  1.0000
  C   C549      1.0  0.47579  0.02692  0.48674  1.0000
  C   C550      1.0  0.26551  0.13315  0.32109  1.0000
  C   C551      1.0  0.39688  0.12222  0.38431  1.0000
  C   C552      1.0  0.48103  0.07789  0.51943  1.0000
  C   C553      1.0  0.48702  0.00329  0.51016  1.0000
  H   H539      1.0  0.47334  0.07539  0.53301  1.0000
  N   N50       1.0  0.40800  0.11411  0.39960  1.0000
  C   C554      1.0  0.42691  0.11559  0.39801  1.0000
  H   H540      1.0  0.38631  0.10675  0.64799  1.0000
  H   H541      1.0  0.43746  0.09353  0.44014  1.0000
  C   C555      1.0  0.25666  0.10723  0.63117  1.0000
  C   C556      1.0  0.39631  0.10122  0.63720  1.0000
  H   H542      1.0  0.31709  0.00630  0.36991  1.0000
  C   C557      1.0  0.48195  0.08060  0.48516  1.0000
  H   H543      1.0  0.45764  0.07433  0.50395  1.0000
  H   H544      1.0  0.39319  0.13743  0.38550  1.0000
  H   H545      1.0  0.40301  0.09106  0.44292  1.0000
  H   H546      1.0  0.47365  0.04152  0.48121  1.0000
  H   H547      1.0  0.45019  0.10703  0.52801  1.0000
  H   H548      1.0  0.28578  0.00485  0.35880  1.0000
  C   C558      1.0  0.47950  0.00557  0.58590  1.0000
  S   S181      1.0  0.34061  0.01515  0.33131  1.0000
  H   H549      1.0  0.38441  0.10428  0.41676  1.0000
  C   C559      1.0  0.45316  0.11273  0.54067  1.0000
  C   C560      1.0  0.48417  0.02215  0.50341  1.0000
  H   H550      1.0  0.43387  0.12182  0.38514  1.0000
  H   H551      1.0  0.43359  0.12092  0.58437  1.0000
  H   H552      1.0  0.24119  0.10374  0.60772  1.0000
  H   H553      1.0  0.26847  0.09769  0.62673  1.0000
  C   C561      1.0  0.41476  0.10673  0.63474  1.0000
  S   S182      1.0  0.47122  0.02157  0.60225  1.0000
  H   H554      1.0  0.38376  0.11520  0.38446  1.0000
  C   C562      1.0  0.41873  0.03217  0.62243  1.0000
  C   C563      1.0  0.39937  0.10566  0.41561  1.0000
  C   C564      1.0  0.40980  0.09812  0.43042  1.0000
  C   C565      1.0  0.43775  0.10824  0.41255  1.0000
  H   H555      1.0  0.45281  0.10894  0.41095  1.0000
  C   C566      1.0  0.43781  0.05066  0.63858  1.0000
  S   S183      1.0  0.48131  0.00464  0.43030  1.0000
  N   N51       1.0  0.47314  0.99427  0.48386  1.0000
  S   S184      1.0  0.46962  0.08208  0.46486  1.0000
  H   H556      1.0  0.27624  0.04384  0.63592  1.0000
  S   S185      1.0  0.48776  0.06362  0.62123  1.0000
  C   C567      1.0  0.25881  0.11617  0.31816  1.0000
  H   H557      1.0  0.25964  0.12410  0.57950  1.0000
  C   C568      1.0  0.47032  0.01273  0.47710  1.0000
  C   C569      1.0  0.25683  0.11595  0.64771  1.0000
  H   H558      1.0  0.47598  0.99071  0.36578  1.0000
  H   H559      1.0  0.47617  0.01236  0.39053  1.0000
  C   C570      1.0  0.24114  0.11085  0.62026  1.0000
  H   H560      1.0  0.46453  0.13241  0.58568  1.0000
  C   C571      1.0  0.29459  0.99201  0.36199  1.0000
  H   H561      1.0  0.42104  0.01727  0.62809  1.0000
  H   H562      1.0  0.40456  0.03480  0.61730  1.0000
  Fe  Fe93      1.0  0.48515  0.04828  0.59636  1.0000
  C   C572      1.0  0.40556  0.04944  0.64916  1.0000
  H   H563      1.0  0.48100  0.11887  0.52975  1.0000
  C   C573      1.0  0.48149  0.98945  0.50011  1.0000
  H   H564      1.0  0.24555  0.11252  0.32547  1.0000
  H   H565      1.0  0.25737  0.14254  0.33036  1.0000
  H   H566      1.0  0.41881  0.11655  0.64369  1.0000
  S   S186      1.0  0.35157  0.06671  0.68027  1.0000
  C   C574      1.0  0.33314  0.09466  0.77504  1.0000
  S   S187      1.0  0.30864  0.07960  0.69560  1.0000
  Fe  Fe94      1.0  0.33669  0.09142  0.69442  1.0000
  S   S188      1.0  0.35188  0.09626  0.72017  1.0000
  Fe  Fe95      1.0  0.32344  0.05604  0.67975  1.0000
  C   C575      1.0  0.42444  0.06808  0.66442  1.0000
  S   S189      1.0  0.33240  0.10882  0.66686  1.0000
  Fe  Fe96      1.0  0.38186  0.17827  0.83825  1.0000
  S   S190      1.0  0.39277  0.18216  0.80784  1.0000
  S   S191      1.0  0.36733  0.20083  0.85727  1.0000
  Fe  Fe97      1.0  0.39612  0.13564  0.84042  1.0000
  S   S192      1.0  0.40789  0.13716  0.81012  1.0000
  S   S193      1.0  0.40367  0.10983  0.86048  1.0000
  Fe  Fe98      1.0  0.41876  0.16409  0.81605  1.0000
  S   S194      1.0  0.44774  0.17283  0.80467  1.0000
  Fe  Fe99      1.0  0.38102  0.15477  0.80432  1.0000
  S   S195      1.0  0.36230  0.15367  0.78033  1.0000
  S   S196      1.0  0.40859  0.16172  0.84652  1.0000
  S   S197      1.0  0.36846  0.15175  0.83453  1.0000
  H   H567      1.0  0.41071  0.02521  0.82465  1.0000
  H   H568      1.0  0.42742  0.23320  0.81120  1.0000
  C   C576      1.0  0.35159  0.09644  0.80086  1.0000
  H   H569      1.0  0.34634  0.12184  0.81459  1.0000
  C   C577      1.0  0.34733  0.34757  0.95149  1.0000
  H   H570      1.0  0.24110  0.13550  0.66550  1.0000
  Fe  Fe100     1.0  0.39118  0.00402  0.89463  1.0000
  S   S198      1.0  0.37376  0.02900  0.88100  1.0000
  S   S199      1.0  0.41751  0.00658  0.90810  1.0000
  Fe  Fe101     1.0  0.33248  0.30845  0.88716  1.0000
  S   S200      1.0  0.30837  0.29922  0.90708  1.0000
  S   S201      1.0  0.34811  0.28971  0.86499  1.0000
  Fe  Fe102     1.0  0.32839  0.34831  0.90173  1.0000
  S   S202      1.0  0.30378  0.34084  0.92217  1.0000
  S   S203      1.0  0.33411  0.37801  0.90753  1.0000
  Fe  Fe103     1.0  0.32075  0.31366  0.92872  1.0000
  S   S204      1.0  0.32667  0.30021  0.95785  1.0000
  Fe  Fe104     1.0  0.29334  0.32758  0.89869  1.0000
  S   S205      1.0  0.26190  0.32954  0.89443  1.0000
  S   S206      1.0  0.34592  0.32133  0.90932  1.0000
  S   S207      1.0  0.31682  0.33645  0.87769  1.0000
  Fe  Fe105     1.0  0.39493  0.46489  0.90236  1.0000
  S   S208      1.0  0.40921  0.46375  0.92884  1.0000
  S   S209      1.0  0.39361  0.43902  0.88672  1.0000
  H   H571      1.0  0.28043  0.99517  0.68372  1.0000
  C   C578      1.0  0.30944  0.30696  0.83747  1.0000
  C   C579      1.0  0.40719  0.06131  0.66303  1.0000
  C   C580      1.0  0.25582  0.35484  0.86302  1.0000
  H   H572      1.0  0.33002  0.08758  0.76324  1.0000
  C   C581      1.0  0.32408  0.11232  0.77833  1.0000
  H   H573      1.0  0.27088  0.35509  0.86079  1.0000
  H   H574      1.0  0.31377  0.11867  0.76906  1.0000
  C   C582      1.0  0.48492  0.47117  0.96919  1.0000
  C   C583      1.0  0.35150  0.39416  0.90191  1.0000
  C   C584      1.0  0.35003  0.41033  0.91169  1.0000
  C   C585      1.0  0.36312  0.42385  0.90761  1.0000
  C   C586      1.0  0.37772  0.42156  0.89341  1.0000
  C   C587      1.0  0.37916  0.40544  0.88357  1.0000
  C   C588      1.0  0.36623  0.39173  0.88787  1.0000
  H   H575      1.0  0.33862  0.41248  0.92246  1.0000
  H   H576      1.0  0.36173  0.43620  0.91524  1.0000
  H   H577      1.0  0.39036  0.40353  0.87252  1.0000
  H   H578      1.0  0.36753  0.37944  0.88016  1.0000
  H   H579      1.0  0.33300  0.38592  0.94903  1.0000
  H   H580      1.0  0.30946  0.24765  0.86829  1.0000
  H   H581      1.0  0.32116  0.31271  0.84330  1.0000
  H   H582      1.0  0.30203  0.33316  0.96856  1.0000
  C   C589      1.0  0.40494  0.03128  0.83782  1.0000
  C   C590      1.0  0.34699  0.08671  0.78639  1.0000
  C   C591      1.0  0.31827  0.98975  0.65105  1.0000
  C   C592      1.0  0.47412  0.46533  0.95622  1.0000
  C   C593      1.0  0.36225  0.22567  0.85904  1.0000
  C   C594      1.0  0.35325  0.23199  0.87590  1.0000
  C   C595      1.0  0.34902  0.25138  0.87811  1.0000
  C   C596      1.0  0.35376  0.26491  0.86347  1.0000
  C   C597      1.0  0.36267  0.25860  0.84658  1.0000
  C   C598      1.0  0.36684  0.23921  0.84433  1.0000
  H   H583      1.0  0.34957  0.22178  0.88743  1.0000
  H   H584      1.0  0.34213  0.25583  0.89120  1.0000
  H   H585      1.0  0.36633  0.26881  0.83505  1.0000
  H   H586      1.0  0.37345  0.23480  0.83114  1.0000
  C   C599      1.0  0.46889  0.16796  0.81580  1.0000
  H   H587      1.0  0.36674  0.44819  0.85848  1.0000
  C   C600      1.0  0.46916  0.15958  0.83417  1.0000
  H   H588      1.0  0.29892  0.31876  0.83367  1.0000
  H   H589      1.0  0.45634  0.15511  0.84169  1.0000
  C   C601      1.0  0.39400  0.08806  0.86677  1.0000
  C   C602      1.0  0.37892  0.08279  0.85831  1.0000
  C   C603      1.0  0.37260  0.06481  0.86311  1.0000
  C   C604      1.0  0.38151  0.05182  0.87608  1.0000
  C   C605      1.0  0.39652  0.05716  0.88456  1.0000
  C   C606      1.0  0.40255  0.07524  0.88009  1.0000
  H   H590      1.0  0.37213  0.09256  0.84815  1.0000
  H   H591      1.0  0.36084  0.06086  0.85662  1.0000
  H   H592      1.0  0.40340  0.04743  0.89469  1.0000
  H   H593      1.0  0.41416  0.07922  0.88679  1.0000
  S   S210      1.0  0.31835  0.07092  0.65150  1.0000
  H   H594      1.0  0.46329  0.19170  0.86245  1.0000
  C   C607      1.0  0.35588  0.11347  0.73530  1.0000
  C   C608      1.0  0.34512  0.13077  0.73587  1.0000
  C   C609      1.0  0.34780  0.14314  0.74926  1.0000
  C   C610      1.0  0.36124  0.13846  0.76231  1.0000
  C   C611      1.0  0.37234  0.12138  0.76142  1.0000
  C   C612      1.0  0.36964  0.10901  0.74805  1.0000
  H   H595      1.0  0.33454  0.13451  0.72617  1.0000
  H   H596      1.0  0.33923  0.15636  0.74962  1.0000
  H   H597      1.0  0.38279  0.11754  0.77124  1.0000
  H   H598      1.0  0.37813  0.09573  0.74774  1.0000
  C   C613      1.0  0.32028  0.00530  0.67919  1.0000
  H   H599      1.0  0.33894  0.43369  0.87425  1.0000
  C   C614      1.0  0.34082  0.35655  0.98248  1.0000
  C   C615      1.0  0.32598  0.45955  0.88449  1.0000
  H   H600      1.0  0.31390  0.45317  0.89174  1.0000
  H   H601      1.0  0.48597  0.15104  0.85725  1.0000
  N   N52       1.0  0.30123  0.29304  0.85135  1.0000
  C   C616      1.0  0.30929  0.27496  0.85280  1.0000
  C   C617      1.0  0.28633  0.29846  0.86358  1.0000
  C   C618      1.0  0.30254  0.26178  0.86683  1.0000
  C   C619      1.0  0.27903  0.28559  0.87763  1.0000
  C   C620      1.0  0.28732  0.26718  0.87934  1.0000
  H   H602      1.0  0.45079  0.99895  0.96545  1.0000
  H   H603      1.0  0.31511  0.30051  0.82444  1.0000
  H   H604      1.0  0.28021  0.31290  0.86277  1.0000
  H   H605      1.0  0.30455  0.13898  0.80171  1.0000
  H   H606      1.0  0.26745  0.29010  0.88754  1.0000
  H   H607      1.0  0.40340  0.20358  0.87169  1.0000
  H   H608      1.0  0.35447  0.07327  0.78360  1.0000
  S   S211      1.0  0.27580  0.11155  0.66260  1.0000
  H   H609      1.0  0.31582  0.36982  0.94722  1.0000
  N   N53       1.0  0.41953  0.04016  0.84559  1.0000
  C   C621      1.0  0.42195  0.05868  0.84049  1.0000
  C   C622      1.0  0.43113  0.02966  0.85731  1.0000
  C   C623      1.0  0.43591  0.06729  0.84769  1.0000
  C   C624      1.0  0.44524  0.03779  0.86476  1.0000
  C   C625      1.0  0.44754  0.05677  0.85998  1.0000
  H   H610      1.0  0.32653  0.14799  0.80475  1.0000
  H   H611      1.0  0.41268  0.06710  0.83134  1.0000
  H   H612      1.0  0.42939  0.01493  0.86112  1.0000
  H   H613      1.0  0.43718  0.08221  0.84427  1.0000
  H   H614      1.0  0.45423  0.02937  0.87424  1.0000
  H   H615      1.0  0.45817  0.06337  0.86594  1.0000
  C   C626      1.0  0.40512  0.47984  0.97868  1.0000
  N   N54       1.0  0.35752  0.47550  0.86684  1.0000
  C   C627      1.0  0.32772  0.47863  0.88514  1.0000
  Fe  Fe106     1.0  0.34587  0.08327  0.65312  1.0000
  C   C628      1.0  0.30835  0.32655  0.98084  1.0000
  H   H616      1.0  0.36259  0.09060  0.80954  1.0000
  H   H617      1.0  0.42097  0.21069  0.80591  1.0000
  C   C629      1.0  0.24127  0.12859  0.65281  1.0000
  H   H618      1.0  0.44503  0.21495  0.80388  1.0000
  H   H619      1.0  0.28221  0.25725  0.89058  1.0000
  C   C630      1.0  0.27094  0.05874  0.67956  1.0000
  C   C631      1.0  0.24792  0.34398  0.87848  1.0000
  H   H620      1.0  0.39269  0.04153  0.83510  1.0000
  H   H621      1.0  0.32148  0.27081  0.84348  1.0000
  N   N55       1.0  0.33792  0.35922  0.96387  1.0000
  N   N56       1.0  0.27418  0.02504  0.68100  1.0000
  H   H622      1.0  0.39946  0.01995  0.84796  1.0000
  C   C632      1.0  0.38584  0.48125  0.98404  1.0000
  C   C633      1.0  0.36222  0.32927  0.97671  1.0000
  C   C634      1.0  0.37427  0.48373  0.85759  1.0000
  H   H623      1.0  0.39497  0.06578  0.67217  1.0000
  C   C635      1.0  0.24418  0.36540  0.85036  1.0000
  C   C636      1.0  0.27238  0.05970  0.66007  1.0000
  Fe  Fe107     1.0  0.30499  0.09532  0.66705  1.0000
  C   C637      1.0  0.35949  0.33235  0.95771  1.0000
  C   C638      1.0  0.34229  0.11411  0.80369  1.0000
  S   S212      1.0  0.31886  0.02583  0.69134  1.0000
  H   H624      1.0  0.45326  0.06826  0.65283  1.0000
  N   N57       1.0  0.43224  0.21061  0.83199  1.0000
  C   C639      1.0  0.44908  0.20427  0.83867  1.0000
  C   C640      1.0  0.41603  0.21056  0.84369  1.0000
  C   C641      1.0  0.44993  0.19723  0.85741  1.0000
  C   C642      1.0  0.41638  0.20385  0.86257  1.0000
  C   C643      1.0  0.43344  0.19700  0.86941  1.0000
  C   C644      1.0  0.32496  0.37478  0.95691  1.0000
  H   H625      1.0  0.46194  0.20415  0.82939  1.0000
  H   H626      1.0  0.40266  0.21545  0.83840  1.0000
  H   H627      1.0  0.27130  0.04051  0.70504  1.0000
  C   C645      1.0  0.27194  0.04117  0.68989  1.0000
  H   H628      1.0  0.36617  0.32261  0.94796  1.0000
  H   H629      1.0  0.38324  0.00159  0.96885  1.0000
  H   H630      1.0  0.47442  0.45429  0.92963  1.0000
  H   H631      1.0  0.47818  0.47695  0.98179  1.0000
  H   H632      1.0  0.43176  0.03808  0.97645  1.0000
  C   C646      1.0  0.48599  0.15732  0.84297  1.0000
  C   C647      1.0  0.32053  0.31021  0.97947  1.0000
  H   H633      1.0  0.26936  0.07159  0.68654  1.0000
  C   C648      1.0  0.38948  0.99576  0.98146  1.0000
  H   H634      1.0  0.31560  0.38084  0.96844  1.0000
  C   C649      1.0  0.35569  0.45691  0.86573  1.0000
  H   H635      1.0  0.25049  0.37367  0.83843  1.0000
  H   H636      1.0  0.38705  0.47406  0.86004  1.0000
  C   C650      1.0  0.31952  0.00623  0.65980  1.0000
  C   C651      1.0  0.33996  0.44862  0.87460  1.0000
  H   H637      1.0  0.42215  0.01912  0.96696  1.0000
  C   C652      1.0  0.31911  0.14039  0.79543  1.0000
  H   H638      1.0  0.31895  0.14933  0.78191  1.0000
  H   H639      1.0  0.42571  0.07785  0.67466  1.0000
  N   N58       1.0  0.32879  0.12185  0.79242  1.0000
  H   H640      1.0  0.43383  0.19136  0.88392  1.0000
  C   C653      1.0  0.43139  0.21784  0.81230  1.0000
  C   C654      1.0  0.45085  0.99906  0.98051  1.0000
  H   H641      1.0  0.34511  0.34980  0.93675  1.0000
  H   H642      1.0  0.31942  0.01969  0.65159  1.0000
  Fe  Fe108     1.0  0.38447  0.48297  0.93854  1.0000
  S   S213      1.0  0.36918  0.48218  0.91315  1.0000
  C   C655      1.0  0.42547  0.02456  0.98006  1.0000
  C   C656      1.0  0.27478  0.04320  0.65110  1.0000
  C   C657      1.0  0.48569  0.17377  0.80629  1.0000
  S   S214      1.0  0.36982  0.48045  0.96755  1.0000
  H   H643      1.0  0.45891  0.46688  0.95844  1.0000
  H   H644      1.0  0.25993  0.00406  0.69792  1.0000
  C   C658      1.0  0.27552  0.02586  0.66186  1.0000
  C   C659      1.0  0.48300  0.45823  0.93987  1.0000
  H   H645      1.0  0.27754  0.01307  0.65479  1.0000
  H   H646      1.0  0.37102  0.31708  0.98181  1.0000
  H   H647      1.0  0.48564  0.18030  0.79210  1.0000
  C   C660      1.0  0.27438  0.00683  0.69219  1.0000
  H   H648      1.0  0.28337  0.00665  0.70390  1.0000
  C   C661      1.0  0.32037  0.98764  0.68959  1.0000
  H   H649      1.0  0.41027  0.47819  0.96429  1.0000
  C   C662      1.0  0.47455  0.98841  0.88996  1.0000
  C   C663      1.0  0.43989  0.06270  0.65217  1.0000
  H   H650      1.0  0.46515  0.48655  0.88805  1.0000
  H   H651      1.0  0.27196  0.07325  0.65198  1.0000
  S   S215      1.0  0.45781  0.98735  0.87420  1.0000
  H   H652      1.0  0.32088  0.98675  0.70461  1.0000
  H   H653      1.0  0.37311  0.48640  0.84230  1.0000
  C   C664      1.0  0.34363  0.48646  0.87605  1.0000
  C   C665      1.0  0.35050  0.88868  0.17811  1.0000
  C   C666      1.0  0.40788  0.52836  0.99947  1.0000
  S   S216      1.0  0.35309  0.85998  0.28896  1.0000
  Fe  Fe109     1.0  0.37849  0.82799  0.18383  1.0000
  S   S217      1.0  0.37083  0.82190  0.15543  1.0000
  S   S218      1.0  0.35514  0.84220  0.20317  1.0000
  Fe  Fe110     1.0  0.42041  0.81669  0.17357  1.0000
  S   S219      1.0  0.41573  0.80955  0.14485  1.0000
  S   S220      1.0  0.44795  0.81895  0.18616  1.0000
  Fe  Fe111     1.0  0.39650  0.83635  0.14394  1.0000
  S   S221      1.0  0.39847  0.85747  0.11830  1.0000
  Fe  Fe112     1.0  0.39033  0.79533  0.15842  1.0000
  S   S222      1.0  0.38514  0.76495  0.15281  1.0000
  S   S223      1.0  0.40261  0.84421  0.17171  1.0000
  S   S224      1.0  0.39656  0.80065  0.18774  1.0000
  Fe  Fe113     1.0  0.40123  0.96777  0.09937  1.0000
  S   S225      1.0  0.40939  0.96357  0.06902  1.0000
  S   S226      1.0  0.39213  0.94585  0.12288  1.0000
  C   C667      1.0  0.35012  0.90397  0.14123  1.0000
  H   H654      1.0  0.34437  0.64928  0.99788  1.0000
  H   H655      1.0  0.35038  0.91009  0.12682  1.0000
  H   H656      1.0  0.39650  0.53798  0.04467  1.0000
  H   H657      1.0  0.44609  0.85879  0.16719  1.0000
  Fe  Fe114     1.0  0.33401  0.68625  0.09848  1.0000
  S   S227      1.0  0.30843  0.68514  0.08275  1.0000
  S   S228      1.0  0.34075  0.71630  0.10348  1.0000
  Fe  Fe115     1.0  0.34134  0.64270  0.10057  1.0000
  S   S229      1.0  0.31638  0.63889  0.08562  1.0000
  S   S230      1.0  0.36007  0.61783  0.11219  1.0000
  Fe  Fe116     1.0  0.32564  0.66344  0.06598  1.0000
  S   S231      1.0  0.33274  0.65998  0.03473  1.0000
  Fe  Fe117     1.0  0.30117  0.66055  0.10350  1.0000
  S   S232      1.0  0.27339  0.65900  0.12189  1.0000
  S   S233      1.0  0.35163  0.66609  0.08029  1.0000
  S   S234      1.0  0.32569  0.66286  0.11999  1.0000
  C   C668      1.0  0.36561  0.68674  0.00877  1.0000
  H   H658      1.0  0.44551  0.83561  0.14652  1.0000
  H   H659      1.0  0.32793  0.71026  0.16078  1.0000
  Fe  Fe118     1.0  0.39129  0.51438  0.08156  1.0000
  S   S235      1.0  0.36969  0.53949  0.07661  1.0000
  S   S236      1.0  0.42105  0.51368  0.06869  1.0000
  H   H660      1.0  0.36305  0.70929  0.06673  1.0000
  C   C669      1.0  0.47691  0.49256  0.09878  1.0000
  H   H661      1.0  0.37945  0.69196  0.00394  1.0000
  Fe  Fe119     1.0  0.42834  0.49412  0.09370  1.0000
  S   S237      1.0  0.46313  0.96725  0.06021  1.0000
  C   C670      1.0  0.25622  0.64246  0.12370  1.0000
  C   C671      1.0  0.25683  0.62867  0.11121  1.0000
  H   H662      1.0  0.37071  0.96003  0.99762  1.0000
  H   H663      1.0  0.26796  0.62787  0.09997  1.0000
  C   C672      1.0  0.32174  0.66459  0.01352  1.0000
  C   C673      1.0  0.30466  0.67560  0.01228  1.0000
  C   C674      1.0  0.33116  0.65782  0.99711  1.0000
  H   H664      1.0  0.29727  0.68097  0.02475  1.0000
  H   H665      1.0  0.33382  0.69509  0.14222  1.0000
  C   C675      1.0  0.36429  0.59686  0.10077  1.0000
  C   C676      1.0  0.35427  0.59394  0.08584  1.0000
  C   C677      1.0  0.35654  0.57646  0.07827  1.0000
  C   C678      1.0  0.36896  0.56175  0.08540  1.0000
  C   C679      1.0  0.37943  0.56481  0.09995  1.0000
  C   C680      1.0  0.37702  0.58227  0.10766  1.0000
  H   H666      1.0  0.34447  0.60501  0.08035  1.0000
  H   H667      1.0  0.34839  0.57424  0.06701  1.0000
  H   H668      1.0  0.38903  0.55360  0.10558  1.0000
  H   H669      1.0  0.38485  0.58439  0.11920  1.0000
  C   C681      1.0  0.46330  0.98601  0.00938  1.0000
  C   C682      1.0  0.35030  0.87727  0.16351  1.0000
  H   H670      1.0  0.46164  0.78411  0.21273  1.0000
  H   H671      1.0  0.35022  0.86222  0.16685  1.0000
  C   C683      1.0  0.41036  0.53091  0.01802  1.0000
  C   C684      1.0  0.37262  0.75179  0.13883  1.0000
  C   C685      1.0  0.37453  0.73197  0.14139  1.0000
  C   C686      1.0  0.36513  0.72091  0.13074  1.0000
  C   C687      1.0  0.35353  0.72944  0.11721  1.0000
  C   C688      1.0  0.35154  0.74925  0.11469  1.0000
  C   C689      1.0  0.36094  0.76030  0.12535  1.0000
  H   H672      1.0  0.38350  0.72508  0.15167  1.0000
  H   H673      1.0  0.36706  0.70577  0.13293  1.0000
  H   H674      1.0  0.34268  0.75617  0.10434  1.0000
  H   H675      1.0  0.35923  0.77545  0.12306  1.0000
  C   C690      1.0  0.39752  0.88197  0.11982  1.0000
  C   C691      1.0  0.39534  0.88961  0.13709  1.0000
  C   C692      1.0  0.39417  0.90920  0.13776  1.0000
  C   C693      1.0  0.39519  0.92134  0.12121  1.0000
  C   C694      1.0  0.39778  0.91369  0.10394  1.0000
  C   C695      1.0  0.39887  0.89409  0.10327  1.0000
  H   H676      1.0  0.39434  0.88050  0.14995  1.0000
  H   H677      1.0  0.39231  0.91500  0.15118  1.0000
  H   H678      1.0  0.39853  0.92290  0.09110  1.0000
  H   H679      1.0  0.40060  0.88831  0.08983  1.0000
  C   C696      1.0  0.47187  0.81713  0.17687  1.0000
  H   H680      1.0  0.46767  0.80407  0.15221  1.0000
  C   C697      1.0  0.35353  0.85593  0.26485  1.0000
  C   C698      1.0  0.33881  0.86256  0.25394  1.0000
  C   C699      1.0  0.33959  0.85826  0.23513  1.0000
  C   C700      1.0  0.35512  0.84745  0.22689  1.0000
  C   C701      1.0  0.36991  0.84101  0.23774  1.0000
  C   C702      1.0  0.36904  0.84514  0.25660  1.0000
  H   H681      1.0  0.32678  0.87086  0.26002  1.0000
  H   H682      1.0  0.32802  0.86329  0.22693  1.0000
  H   H683      1.0  0.38193  0.83267  0.23170  1.0000
  H   H684      1.0  0.38051  0.83990  0.26486  1.0000
  H   H685      1.0  0.31941  0.83893  0.28693  1.0000
  H   H686      1.0  0.31772  0.73607  0.13879  1.0000
  N   N59       1.0  0.31321  0.59499  0.12450  1.0000
  C   C703      1.0  0.30262  0.58872  0.11209  1.0000
  C   C704      1.0  0.32867  0.58420  0.13030  1.0000
  C   C705      1.0  0.30778  0.57145  0.10472  1.0000
  C   C706      1.0  0.33409  0.56677  0.12340  1.0000
  C   C707      1.0  0.32369  0.56047  0.11038  1.0000
  C   C708      1.0  0.30767  0.61302  0.13225  1.0000
  C   C709      1.0  0.44499  0.77048  0.18597  1.0000
  H   H687      1.0  0.33728  0.58932  0.13987  1.0000
  H   H688      1.0  0.29249  0.75136  0.12021  1.0000
  H   H689      1.0  0.34670  0.55851  0.12758  1.0000
  H   H690      1.0  0.32823  0.54729  0.10442  1.0000
  H   H691      1.0  0.43637  0.77591  0.19832  1.0000
  C   C710      1.0  0.47760  0.76176  0.17468  1.0000
  C   C711      1.0  0.37493  0.53499  0.00543  1.0000
  H   H692      1.0  0.31789  0.68824  0.16224  1.0000
  H   H693      1.0  0.30064  0.61067  0.14663  1.0000
  S   S238      1.0  0.42784  0.98010  0.10306  1.0000
  H   H694      1.0  0.42603  0.96607  0.99592  1.0000
  H   H695      1.0  0.35100  0.91702  0.18520  1.0000
  H   H696      1.0  0.29783  0.62214  0.12359  1.0000
  C   C712      1.0  0.32898  0.71590  0.03676  1.0000
  H   H697      1.0  0.29019  0.59713  0.10769  1.0000
  H   H698      1.0  0.35089  0.93081  0.15204  1.0000
  C   C713      1.0  0.24267  0.61617  0.11295  1.0000
  H   H699      1.0  0.41209  0.97538  0.02683  1.0000
  C   C714      1.0  0.33799  0.71722  0.05277  1.0000
  N   N60       1.0  0.30667  0.70937  0.14232  1.0000
  C   C715      1.0  0.30652  0.72797  0.13603  1.0000
  C   C716      1.0  0.29294  0.69898  0.13820  1.0000
  C   C717      1.0  0.29233  0.73668  0.12541  1.0000
  C   C718      1.0  0.27848  0.70727  0.12771  1.0000
  C   C719      1.0  0.27821  0.72623  0.12126  1.0000
  C   C720      1.0  0.32231  0.70027  0.15243  1.0000
  N   N61       1.0  0.46515  0.76956  0.18801  1.0000
  H   H700      1.0  0.29962  0.56669  0.09457  1.0000
  H   H701      1.0  0.46325  0.84199  0.12816  1.0000
  C   C721      1.0  0.39478  0.53578  0.03030  1.0000
  S   S239      1.0  0.30146  0.94452  0.31245  1.0000
  H   H702      1.0  0.36765  0.67165  0.01403  1.0000
  H   H703      1.0  0.32019  0.62080  0.13270  1.0000
  H   H704      1.0  0.24316  0.60572  0.10307  1.0000
  C   C722      1.0  0.35038  0.91580  0.15547  1.0000
  C   C723      1.0  0.35063  0.90805  0.17402  1.0000
  N   N62       1.0  0.35606  0.69754  0.02375  1.0000
  C   C724      1.0  0.48541  0.82282  0.18736  1.0000
  H   H705      1.0  0.33540  0.87056  0.12829  1.0000
  C   C725      1.0  0.37693  0.53775  0.02406  1.0000
  N   N63       1.0  0.35041  0.88495  0.14534  1.0000
  H   H706      1.0  0.33107  0.70476  0.01000  1.0000
  H   H707      1.0  0.44071  0.89210  0.17380  1.0000
  H   H708      1.0  0.35066  0.88245  0.19249  1.0000
  S   S240      1.0  0.45391  0.50159  0.10656  1.0000
  C   C726      1.0  0.47797  0.98162  0.11144  1.0000
  H   H709      1.0  0.35705  0.87888  0.11685  1.0000
  C   C727      1.0  0.35008  0.87276  0.13026  1.0000
  H   H710      1.0  0.33090  0.72466  0.06426  1.0000
  H   H711      1.0  0.44363  0.87475  0.10885  1.0000
  H   H712      1.0  0.26717  0.73274  0.11292  1.0000
  S   S241      1.0  0.30345  0.88816  0.31162  1.0000
  H   H713      1.0  0.35800  0.85892  0.13350  1.0000
  H   H714      1.0  0.47759  0.52268  0.13915  1.0000
  C   C728      1.0  0.44064  0.89749  0.12639  1.0000
  N   N64       1.0  0.44514  0.86489  0.13764  1.0000
  C   C729      1.0  0.31550  0.83426  0.30149  1.0000
  C   C730      1.0  0.35609  0.70860  0.05415  1.0000
  C   C731      1.0  0.33831  0.70603  0.02225  1.0000
  C   C732      1.0  0.47785  0.80869  0.16037  1.0000
  C   C733      1.0  0.30388  0.98245  0.31337  1.0000
  H   H715      1.0  0.44157  0.78016  0.17352  1.0000
  C   C734      1.0  0.44158  0.88844  0.15948  1.0000
  C   C735      1.0  0.44451  0.86961  0.15564  1.0000
  C   C736      1.0  0.36491  0.69861  0.03949  1.0000
  S   S242      1.0  0.38536  0.48953  0.06730  1.0000
  H   H716      1.0  0.48095  0.82931  0.20019  1.0000
  C   C737      1.0  0.44841  0.84518  0.13369  1.0000
  Fe  Fe120     1.0  0.43468  0.97828  0.07237  1.0000
  H   H717      1.0  0.43895  0.84214  0.12330  1.0000
  H   H718      1.0  0.36479  0.54136  0.03370  1.0000
  H   H719      1.0  0.31476  0.72222  0.03569  1.0000
  H   H720      1.0  0.47273  0.97603  0.01707  1.0000
  H   H721      1.0  0.37877  0.69145  0.04090  1.0000
  C   C738      1.0  0.32909  0.82541  0.31268  1.0000
  H   H722      1.0  0.42425  0.52878  0.02295  1.0000
  C   C739      1.0  0.41356  0.97581  0.99671  1.0000
  H   H723      1.0  0.44075  0.75635  0.18428  1.0000
  H   H724      1.0  0.26768  0.69892  0.12443  1.0000
  H   H725      1.0  0.35728  0.68764  0.99648  1.0000
  N   N65       1.0  0.39030  0.53030  0.99343  1.0000
  H   H726      1.0  0.28646  0.84485  0.30079  1.0000
  C   C740      1.0  0.29727  0.67988  0.99477  1.0000
  C   C741      1.0  0.48053  0.98222  0.06180  1.0000
  C   C742      1.0  0.43960  0.90244  0.14473  1.0000
  H   H727      1.0  0.43692  0.91708  0.14747  1.0000
  H   H728      1.0  0.42007  0.52439  0.99008  1.0000
  S   S243      1.0  0.39860  0.49646  0.10772  1.0000
  H   H729      1.0  0.46914  0.97059  0.10996  1.0000
  H   H730      1.0  0.29316  0.68414  0.14286  1.0000
  C   C743      1.0  0.47146  0.77722  0.20257  1.0000
  C   C744      1.0  0.44339  0.87853  0.12309  1.0000
  C   C745      1.0  0.40569  0.98107  0.01429  1.0000
  H   H731      1.0  0.43872  0.90825  0.11487  1.0000
  H   H732      1.0  0.28414  0.68855  0.99393  1.0000
  Fe  Fe121     1.0  0.33424  0.87750  0.30978  1.0000
  H   H733      1.0  0.46743  0.49060  0.14561  1.0000
  H   H734      1.0  0.47259  0.75606  0.16293  1.0000
  C   C746      1.0  0.31308  0.96430  0.31608  1.0000
  H   H735      1.0  0.38684  0.48696  0.03005  1.0000
  C   C747      1.0  0.48801  0.51071  0.14015  1.0000
  S   S244      1.0  0.34396  0.90475  0.31646  1.0000
  C   C748      1.0  0.46340  0.98626  0.98997  1.0000
  C   C749      1.0  0.29705  0.83757  0.30925  1.0000
  Fe  Fe122     1.0  0.41567  0.48756  0.05657  1.0000
  H   H736      1.0  0.29005  0.98418  0.30845  1.0000
  C   C750      1.0  0.24137  0.64343  0.13800  1.0000
  H   H737      1.0  0.48750  0.51977  0.09404  1.0000
  H   H738      1.0  0.36101  0.53656  0.00063  1.0000
  C   C751      1.0  0.48228  0.49264  0.14383  1.0000
  H   H739      1.0  0.34358  0.82330  0.30683  1.0000
  H   H740      1.0  0.24069  0.65403  0.14775  1.0000
  C   C752      1.0  0.41959  0.89802  0.33103  1.0000
  S   S245      1.0  0.37150  0.87533  0.63013  1.0000
  Fe  Fe123     1.0  0.47096  0.91105  0.58760  1.0000
  H   H741      1.0  0.45759  0.98489  0.46328  1.0000
  S   S246      1.0  0.44496  0.91817  0.60737  1.0000
  Fe  Fe124     1.0  0.30238  0.87747  0.34232  1.0000
  S   S247      1.0  0.27999  0.86173  0.36163  1.0000
  Fe  Fe125     1.0  0.34072  0.89311  0.34657  1.0000
  H   H742      1.0  0.29656  0.94507  0.35911  1.0000
  S   S248      1.0  0.36027  0.90220  0.36637  1.0000
  C   C753      1.0  0.31285  0.88892  0.59329  1.0000
  H   H743      1.0  0.43327  0.93109  0.37406  1.0000
  S   S249      1.0  0.31048  0.90451  0.35119  1.0000
  S   S250      1.0  0.33275  0.86518  0.34007  1.0000
  Fe  Fe126     1.0  0.46598  0.88482  0.39101  1.0000
  S   S251      1.0  0.44365  0.86884  0.38095  1.0000
  S   S252      1.0  0.46065  0.91250  0.40326  1.0000
  H   H744      1.0  0.33759  0.97711  0.37584  1.0000
  C   C754      1.0  0.38303  0.89203  0.37108  1.0000
  C   C755      1.0  0.39078  0.87515  0.36424  1.0000
  C   C756      1.0  0.40918  0.86799  0.36782  1.0000
  C   C757      1.0  0.42011  0.87775  0.37800  1.0000
  C   C758      1.0  0.41227  0.89452  0.38500  1.0000
  C   C759      1.0  0.39380  0.90155  0.38163  1.0000
  H   H745      1.0  0.38263  0.86762  0.35620  1.0000
  H   H746      1.0  0.41509  0.85494  0.36245  1.0000
  H   H747      1.0  0.42039  0.90200  0.39312  1.0000
  H   H748      1.0  0.38787  0.91452  0.38714  1.0000
  H   H749      1.0  0.39208  0.90095  0.32109  1.0000
  C   C760      1.0  0.29245  0.83188  0.32816  1.0000
  C   C761      1.0  0.33938  0.97806  0.32632  1.0000
  H   H750      1.0  0.38287  0.91047  0.64055  1.0000
  C   C762      1.0  0.24645  0.86071  0.64424  1.0000
  C   C763      1.0  0.24883  0.84634  0.38082  1.0000
  C   C764      1.0  0.25639  0.85492  0.36359  1.0000
  H   H751      1.0  0.42340  0.88425  0.32614  1.0000
  H   H752      1.0  0.46224  0.98418  0.59888  1.0000
  H   H753      1.0  0.25712  0.84458  0.39269  1.0000
  H   H754      1.0  0.25073  0.86362  0.33512  1.0000
  C   C765      1.0  0.33096  0.85973  0.60397  1.0000
  C   C766      1.0  0.47830  0.96572  0.38490  1.0000
  S   S253      1.0  0.48100  0.95009  0.36742  1.0000
  H   H755      1.0  0.41165  0.92679  0.63124  1.0000
  C   C767      1.0  0.26021  0.86361  0.62926  1.0000
  C   C768      1.0  0.47924  0.95866  0.40361  1.0000
  H   H756      1.0  0.40535  0.94555  0.35135  1.0000
  C   C769      1.0  0.39131  0.88801  0.62304  1.0000
  C   C770      1.0  0.39360  0.90472  0.63052  1.0000
  C   C771      1.0  0.40995  0.91394  0.62522  1.0000
  C   C772      1.0  0.42412  0.90665  0.61230  1.0000
  C   C773      1.0  0.42170  0.89009  0.60454  1.0000
  C   C774      1.0  0.40538  0.88079  0.60995  1.0000
  H   H757      1.0  0.35798  0.91443  0.58360  1.0000
  H   H758      1.0  0.43247  0.88435  0.59456  1.0000
  H   H759      1.0  0.40371  0.86787  0.60406  1.0000
  H   H760      1.0  0.33360  0.85050  0.59236  1.0000
  C   C775      1.0  0.24533  0.85702  0.34846  1.0000
  C   C776      1.0  0.47951  0.97081  0.41750  1.0000
  C   C777      1.0  0.47310  0.86600  0.63516  1.0000
  S   S254      1.0  0.31517  0.95205  0.64983  1.0000
  C   C778      1.0  0.30080  0.95838  0.36229  1.0000
  H   H761      1.0  0.44093  0.89972  0.65016  1.0000
  S   S255      1.0  0.47413  0.91959  0.55660  1.0000
  H   H762      1.0  0.46232  0.96787  0.48259  1.0000
  Fe  Fe127     1.0  0.48369  0.90215  0.42174  1.0000
  C   C779      1.0  0.34520  0.90737  0.58606  1.0000
  N   N66       1.0  0.30588  0.82325  0.33907  1.0000
  H   H763      1.0  0.30715  0.80369  0.36327  1.0000
  H   H764      1.0  0.48613  0.86010  0.49726  1.0000
  C   C780      1.0  0.48655  0.87512  0.49440  1.0000
  C   C781      1.0  0.43926  0.86437  0.64199  1.0000
  H   H765      1.0  0.30677  0.82821  0.36741  1.0000
  H   H766      1.0  0.47593  0.96042  0.57760  1.0000
  H   H767      1.0  0.35952  0.88067  0.59431  1.0000
  H   H768      1.0  0.30009  0.88189  0.59625  1.0000
  C   C782      1.0  0.39693  0.92464  0.33545  1.0000
  C   C783      1.0  0.30118  0.81816  0.35910  1.0000
  H   H769      1.0  0.44159  0.94577  0.35364  1.0000
  C   C784      1.0  0.46822  0.97946  0.47315  1.0000
  C   C785      1.0  0.48111  0.97412  0.57612  1.0000
  C   C786      1.0  0.31154  0.90802  0.58700  1.0000
  H   H770      1.0  0.48021  0.94379  0.40751  1.0000
  H   H771      1.0  0.45336  0.92309  0.35912  1.0000
  H   H772      1.0  0.48268  0.87517  0.46494  1.0000
  C   C787      1.0  0.48520  0.90301  0.47232  1.0000
  H   H773      1.0  0.32697  0.93224  0.57921  1.0000
  C   C788      1.0  0.43933  0.93112  0.35925  1.0000
  C   C789      1.0  0.43182  0.90604  0.34117  1.0000
  H   H774      1.0  0.29792  0.91561  0.58531  1.0000
  H   H775      1.0  0.48067  0.96507  0.43184  1.0000
  C   C790      1.0  0.34598  0.88828  0.59229  1.0000
  H   H776      1.0  0.34237  0.85662  0.61347  1.0000
  C   C791      1.0  0.47042  0.90253  0.64496  1.0000
  H   H777      1.0  0.34214  0.94389  0.37977  1.0000
  H   H778      1.0  0.33634  0.93739  0.35774  1.0000
  C   C792      1.0  0.40955  0.93233  0.34540  1.0000
  N   N67       1.0  0.32987  0.87947  0.59644  1.0000
  N   N68       1.0  0.45598  0.87467  0.64094  1.0000
  N   N69       1.0  0.42675  0.92304  0.34812  1.0000
  H   H779      1.0  0.27814  0.83479  0.33415  1.0000
  C   C793      1.0  0.23897  0.85283  0.60846  1.0000
  H   H780      1.0  0.44508  0.89821  0.34407  1.0000
  S   S256      1.0  0.32196  0.90310  0.63461  1.0000
  S   S257      1.0  0.28253  0.87205  0.63193  1.0000
  C   C794      1.0  0.40202  0.90738  0.32823  1.0000
  H   H781      1.0  0.32258  0.93055  0.37918  1.0000
  C   C795      1.0  0.32783  0.91732  0.58358  1.0000
  H   H782      1.0  0.38303  0.93166  0.33390  1.0000
  C   C796      1.0  0.32371  0.97623  0.37158  1.0000
  C   C797      1.0  0.25625  0.85952  0.61137  1.0000
  Fe  Fe128     1.0  0.31339  0.91458  0.32070  1.0000
  N   N70       1.0  0.31788  0.95927  0.36875  1.0000
  C   C798      1.0  0.48459  0.88360  0.47609  1.0000
  H   H783      1.0  0.43845  0.85833  0.62852  1.0000
  C   C799      1.0  0.33035  0.94202  0.37152  1.0000
  H   H784      1.0  0.26661  0.86165  0.59958  1.0000
  H   H785      1.0  0.31776  0.85639  0.61257  1.0000
  H   H786      1.0  0.25065  0.79240  0.61925  1.0000
  C   C800      1.0  0.32404  0.82009  0.33159  1.0000
  H   H787      1.0  0.28574  0.81887  0.36280  1.0000
  H   H788      1.0  0.33482  0.81381  0.34035  1.0000
  C   C801      1.0  0.45452  0.89262  0.64601  1.0000
  Fe  Fe129     1.0  0.34565  0.88644  0.64823  1.0000
  H   H789      1.0  0.47426  0.85181  0.63104  1.0000
  Fe  Fe130     1.0  0.48403  0.92118  0.38231  1.0000
  H   H790      1.0  0.42610  0.87366  0.64454  1.0000
  H   H791      1.0  0.27561  0.97393  0.35319  1.0000
  C   C802      1.0  0.28886  0.97469  0.35890  1.0000
  C   C803      1.0  0.33100  0.96223  0.32232  1.0000
  H   H792      1.0  0.33836  0.94840  0.32414  1.0000
  H   H793      1.0  0.35314  0.97626  0.33139  1.0000
  S   S258      1.0  0.48402  0.91451  0.44954  1.0000
  S   S259      1.0  0.48719  0.87325  0.41147  1.0000
  H   H794      1.0  0.24236  0.81186  0.63260  1.0000
  H   H795      1.0  0.48091  0.97371  0.46473  1.0000
  H   H796      1.0  0.48398  0.97481  0.50542  1.0000
  C   C804      1.0  0.23857  0.80291  0.62208  1.0000
  H   H797      1.0  0.46904  0.91704  0.64817  1.0000
  C   C805      1.0  0.47684  0.98515  0.38022  1.0000
  C   C806      1.0  0.48764  0.91381  0.48693  1.0000
  C   C807      1.0  0.48790  0.89383  0.63901  1.0000
  S   S260      1.0  0.48799  0.89433  0.36852  1.0000
  Fe  Fe131     1.0  0.32346  0.88535  0.68640  1.0000
  H   H798      1.0  0.25472  0.68472  0.95787  1.0000
  S   S261      1.0  0.32347  0.87701  0.71810  1.0000
  H   H799      1.0  0.33618  0.90491  0.74130  1.0000
  C   C808      1.0  0.38561  0.94507  0.97524  1.0000
  H   H800      1.0  0.24907  0.86374  0.65810  1.0000
  Fe  Fe132     1.0  0.42161  0.49029  0.91639  1.0000
  C   C809      1.0  0.35302  0.79665  0.78914  1.0000
  S   S262      1.0  0.29782  0.90213  0.67500  1.0000
  S   S263      1.0  0.34410  0.90495  0.67181  1.0000
  Fe  Fe133     1.0  0.41896  0.81279  0.82381  1.0000
  S   S264      1.0  0.39901  0.82118  0.84836  1.0000
  S   S265      1.0  0.44834  0.80046  0.83020  1.0000
  Fe  Fe134     1.0  0.38910  0.82447  0.79581  1.0000
  S   S266      1.0  0.36748  0.83353  0.81853  1.0000
  S   S267      1.0  0.38514  0.82735  0.76446  1.0000
  Fe  Fe135     1.0  0.39074  0.84700  0.82950  1.0000
  S   S268      1.0  0.39163  0.87845  0.83155  1.0000
  Fe  Fe136     1.0  0.37769  0.80656  0.83538  1.0000
  S   S269      1.0  0.35602  0.78802  0.85208  1.0000
  S   S270      1.0  0.41188  0.83910  0.80568  1.0000
  S   S271      1.0  0.39813  0.79685  0.81182  1.0000
  Fe  Fe137     1.0  0.39623  0.96065  0.89823  1.0000
  S   S272      1.0  0.38536  0.93183  0.89826  1.0000
  S   S273      1.0  0.42315  0.96049  0.91137  1.0000
  Fe  Fe138     1.0  0.29276  0.65643  0.89304  1.0000
  S   S274      1.0  0.32190  0.65249  0.87801  1.0000
  S   S275      1.0  0.26341  0.65442  0.88346  1.0000
  Fe  Fe139     1.0  0.30790  0.66878  0.92810  1.0000
  S   S276      1.0  0.33771  0.66565  0.91551  1.0000
  S   S277      1.0  0.29697  0.67920  0.95660  1.0000
  Fe  Fe140     1.0  0.32740  0.67996  0.88866  1.0000
  S   S278      1.0  0.34691  0.69930  0.86978  1.0000
  Fe  Fe141     1.0  0.33037  0.63865  0.90578  1.0000
  S   S279      1.0  0.35217  0.61404  0.91189  1.0000
  S   S280      1.0  0.29772  0.68478  0.90185  1.0000
  S   S281      1.0  0.30109  0.64095  0.92019  1.0000
  Fe  Fe142     1.0  0.38425  0.50743  0.90168  1.0000
  S   S282      1.0  0.39746  0.50945  0.92810  1.0000
  S   S283      1.0  0.36715  0.53116  0.88574  1.0000
  H   H801      1.0  0.39998  0.51950  0.96722  1.0000
  C   C810      1.0  0.38378  0.59559  0.86540  1.0000
  H   H802      1.0  0.24614  0.62716  0.91578  1.0000
  H   H803      1.0  0.23877  0.68671  0.93997  1.0000
  C   C811      1.0  0.36907  0.76551  0.78967  1.0000
  N   N71       1.0  0.45673  0.84906  0.85187  1.0000
  H   H804      1.0  0.38502  0.58111  0.86201  1.0000
  N   N72       1.0  0.34142  0.79116  0.80453  1.0000
  H   H805      1.0  0.31923  0.95768  0.68903  1.0000
  C   C812      1.0  0.47091  0.82760  0.81281  1.0000
  C   C813      1.0  0.30675  0.67313  0.97835  1.0000
  Fe  Fe143     1.0  0.40853  0.98281  0.92880  1.0000
  C   C814      1.0  0.25195  0.63782  0.87282  1.0000
  C   C815      1.0  0.36954  0.94403  0.94824  1.0000
  C   C816      1.0  0.26173  0.62247  0.86456  1.0000
  Fe  Fe144     1.0  0.31894  0.92053  0.65916  1.0000
  H   H806      1.0  0.27680  0.62020  0.86473  1.0000
  C   C817      1.0  0.35462  0.59062  0.90551  1.0000
  C   C818      1.0  0.36823  0.57776  0.91356  1.0000
  C   C819      1.0  0.37185  0.55942  0.90798  1.0000
  C   C820      1.0  0.36201  0.55374  0.89409  1.0000
  C   C821      1.0  0.34829  0.56655  0.88608  1.0000
  C   C822      1.0  0.34447  0.58485  0.89187  1.0000
  H   H807      1.0  0.37621  0.58209  0.92405  1.0000
  H   H808      1.0  0.38253  0.54981  0.91417  1.0000
  H   H809      1.0  0.34060  0.56231  0.87532  1.0000
  H   H810      1.0  0.33400  0.59461  0.88550  1.0000
  S   S284      1.0  0.44959  0.49660  0.92553  1.0000
  H   H811      1.0  0.38670  0.54220  0.96571  1.0000
  H   H812      1.0  0.42743  0.84975  0.86025  1.0000
  C   C823      1.0  0.25204  0.61023  0.85565  1.0000
  H   H813      1.0  0.33117  0.65667  0.96717  1.0000
  H   H814      1.0  0.36217  0.60475  0.84706  1.0000
  C   C824      1.0  0.40181  0.92916  0.94895  1.0000
  C   C825      1.0  0.35443  0.76323  0.85770  1.0000
  C   C826      1.0  0.33859  0.75707  0.86892  1.0000
  C   C827      1.0  0.33616  0.73772  0.87302  1.0000
  C   C828      1.0  0.34947  0.72408  0.86579  1.0000
  C   C829      1.0  0.36529  0.73025  0.85451  1.0000
  C   C830      1.0  0.36783  0.74960  0.85060  1.0000
  H   H815      1.0  0.32806  0.76737  0.87452  1.0000
  H   H816      1.0  0.32389  0.73338  0.88167  1.0000
  H   H817      1.0  0.37576  0.71995  0.84882  1.0000
  H   H818      1.0  0.38013  0.75395  0.84199  1.0000
  C   C831      1.0  0.46994  0.81041  0.82365  1.0000
  C   C832      1.0  0.35424  0.96025  0.97418  1.0000
  H   H819      1.0  0.45657  0.97978  0.91443  1.0000
  H   H820      1.0  0.45838  0.83478  0.80741  1.0000
  H   H821      1.0  0.35893  0.74589  0.81217  1.0000
  C   C833      1.0  0.39091  0.89251  0.85064  1.0000
  C   C834      1.0  0.39564  0.91114  0.84692  1.0000
  C   C835      1.0  0.39453  0.92318  0.86138  1.0000
  C   C836      1.0  0.38835  0.91682  0.87974  1.0000
  C   C837      1.0  0.38379  0.89813  0.88350  1.0000
  C   C838      1.0  0.38521  0.88598  0.86908  1.0000
  H   H822      1.0  0.40003  0.91637  0.83271  1.0000
  H   H823      1.0  0.39801  0.93751  0.85823  1.0000
  H   H824      1.0  0.37893  0.89307  0.89763  1.0000
  H   H825      1.0  0.38140  0.87175  0.87217  1.0000
  H   H826      1.0  0.31420  0.79836  0.81780  1.0000
  H   H827      1.0  0.48134  0.97839  0.93611  1.0000
  C   C839      1.0  0.34047  0.86256  0.73066  1.0000
  C   C840      1.0  0.35647  0.85348  0.72163  1.0000
  C   C841      1.0  0.36980  0.84258  0.73220  1.0000
  C   C842      1.0  0.36752  0.84083  0.75192  1.0000
  C   C843      1.0  0.35157  0.85000  0.76099  1.0000
  C   C844      1.0  0.33810  0.86067  0.75040  1.0000
  H   H828      1.0  0.35851  0.85476  0.70647  1.0000
  H   H829      1.0  0.38205  0.83554  0.72502  1.0000
  H   H830      1.0  0.34963  0.84893  0.77613  1.0000
  H   H831      1.0  0.32580  0.86766  0.75754  1.0000
  N   N73       1.0  0.38526  0.93977  0.95758  1.0000
  H   H832      1.0  0.46535  0.87397  0.83611  1.0000
  C   C845      1.0  0.31813  0.97210  0.66148  1.0000
  C   C846      1.0  0.32745  0.80483  0.81305  1.0000
  C   C847      1.0  0.37089  0.60884  0.85710  1.0000
  H   H833      1.0  0.34162  0.95821  0.94862  1.0000
  C   C848      1.0  0.25059  0.63301  0.92775  1.0000
  H   H834      1.0  0.25986  0.59862  0.84906  1.0000
  H   H835      1.0  0.37519  0.52098  0.97265  1.0000
  H   H836      1.0  0.43460  0.84335  0.83682  1.0000
  C   C849      1.0  0.25277  0.68051  0.94382  1.0000
  C   C850      1.0  0.38793  0.52822  0.97380  1.0000
  S   S285      1.0  0.32661  0.86568  0.66352  1.0000
  C   C851      1.0  0.47234  0.49638  0.91341  1.0000
  C   C852      1.0  0.40569  0.98330  0.98022  1.0000
  C   C853      1.0  0.24825  0.65241  0.92897  1.0000
  H   H837      1.0  0.36913  0.93967  0.93430  1.0000
  H   H838      1.0  0.48412  0.50600  0.93667  1.0000
  S   S286      1.0  0.40410  0.98267  0.87510  1.0000
  H   H839      1.0  0.37626  0.49719  0.86321  1.0000
  C   C854      1.0  0.35386  0.95446  0.95631  1.0000
  H   H840      1.0  0.33457  0.76893  0.82522  1.0000
  N   N74       1.0  0.37934  0.63221  0.87553  1.0000
  C   C855      1.0  0.36888  0.62722  0.86231  1.0000
  C   C856      1.0  0.39214  0.61935  0.88361  1.0000
  C   C857      1.0  0.39456  0.60087  0.87869  1.0000
  C   C858      1.0  0.37704  0.65141  0.88115  1.0000
  H   H841      1.0  0.35865  0.63737  0.85597  1.0000
  H   H842      1.0  0.40009  0.62321  0.89441  1.0000
  H   H843      1.0  0.40419  0.59052  0.88563  1.0000
  H   H844      1.0  0.36466  0.65977  0.87551  1.0000
  H   H845      1.0  0.37484  0.65112  0.89667  1.0000
  H   H846      1.0  0.38964  0.65881  0.87601  1.0000
  H   H847      1.0  0.48550  0.81512  0.87303  1.0000
  H   H848      1.0  0.38009  0.75562  0.78407  1.0000
  H   H849      1.0  0.47298  0.97650  0.98230  1.0000
  H   H850      1.0  0.40343  0.91475  0.95604  1.0000
  C   C859      1.0  0.35721  0.76004  0.80538  1.0000
  H   H851      1.0  0.39815  0.94183  0.98257  1.0000
  H   H852      1.0  0.37625  0.78843  0.76934  1.0000
  Fe  Fe145     1.0  0.42970  0.98409  0.88996  1.0000
  C   C860      1.0  0.36693  0.78390  0.78141  1.0000
  H   H853      1.0  0.41460  0.93636  0.94999  1.0000
  S   S287      1.0  0.40936  0.49014  0.88878  1.0000
  H   H854      1.0  0.43361  0.86745  0.84202  1.0000
  H   H855      1.0  0.26166  0.60639  0.94055  1.0000
  C   C861      1.0  0.34339  0.77314  0.81267  1.0000
  C   C862      1.0  0.31941  0.97111  0.68081  1.0000
  N   N75       1.0  0.36265  0.89775  0.75211  1.0000
  C   C863      1.0  0.35784  0.90184  0.77022  1.0000
  C   C864      1.0  0.37810  0.88570  0.74780  1.0000
  C   C865      1.0  0.36855  0.89369  0.78461  1.0000
  C   C866      1.0  0.38904  0.87722  0.76185  1.0000
  C   C867      1.0  0.38422  0.88131  0.78033  1.0000
  C   C868      1.0  0.35128  0.90670  0.73733  1.0000
  H   H856      1.0  0.34559  0.91138  0.77364  1.0000
  H   H857      1.0  0.38175  0.88213  0.73352  1.0000
  H   H858      1.0  0.36477  0.89682  0.79903  1.0000
  H   H859      1.0  0.40089  0.86713  0.75852  1.0000
  H   H860      1.0  0.39253  0.87483  0.79138  1.0000
  H   H861      1.0  0.35495  0.90025  0.72386  1.0000
  C   C869      1.0  0.26568  0.62931  0.95645  1.0000
  H   H862      1.0  0.35327  0.92188  0.73484  1.0000
  H   H863      1.0  0.32408  0.81720  0.80302  1.0000
  C   C870      1.0  0.26315  0.64878  0.95719  1.0000
  H   H864      1.0  0.35175  0.81101  0.78284  1.0000
  H   H865      1.0  0.24316  0.61358  0.80728  1.0000
  S   S288      1.0  0.41714  0.97691  0.95857  1.0000
  C   C871      1.0  0.25938  0.62141  0.94158  1.0000
  S   S289      1.0  0.38091  0.98182  0.91692  1.0000
  H   H866      1.0  0.33292  0.80974  0.82542  1.0000
  C   C872      1.0  0.48104  0.82844  0.86561  1.0000
  C   C873      1.0  0.43716  0.85264  0.84752  1.0000
  C   C874      1.0  0.32372  0.66198  0.97965  1.0000
  N   N76       1.0  0.25447  0.66005  0.94356  1.0000
  H   H867      1.0  0.40079  0.92808  0.93380  1.0000
  C   C875      1.0  0.48647  0.80117  0.83034  1.0000
  C   C876      1.0  0.47041  0.98352  0.90912  1.0000
  H   H868      1.0  0.43972  0.85291  0.65352  1.0000
  H   H869      1.0  0.45230  0.82240  0.86660  1.0000
  H   H870      1.0  0.34501  0.50126  0.87684  1.0000
  H   H871      1.0  0.26854  0.65484  0.96853  1.0000
  C   C877      1.0  0.48441  0.98281  0.92141  1.0000
  C   C878      1.0  0.47634  0.49042  0.89542  1.0000
  C   C879      1.0  0.46956  0.86138  0.84481  1.0000
  H   H872      1.0  0.34232  0.96861  0.98052  1.0000
  C   C880      1.0  0.48707  0.50134  0.92277  1.0000
  C   C881      1.0  0.46227  0.83267  0.86198  1.0000
  H   H873      1.0  0.48589  0.78782  0.83867  1.0000
  H   H874      1.0  0.26380  0.68653  0.93369  1.0000
  Fe  Fe146     1.0  0.30237  0.88351  0.65102  1.0000
  H   H875      1.0  0.48765  0.94759  0.88503  1.0000
  H   H876      1.0  0.24187  0.66138  0.91787  1.0000
  H   H877      1.0  0.27294  0.62051  0.96707  1.0000
  H   H878      1.0  0.23850  0.62010  0.78314  1.0000
  H   H879      1.0  0.31699  0.48727  0.89286  1.0000
  C   C882      1.0  0.37014  0.95538  0.98381  1.0000
  H   H880      1.0  0.50070  0.13852  0.13787  1.0000
  H   H881      1.0  0.67398  0.22701  0.13961  1.0000
  Fe  Fe147     1.0  0.66450  0.08503  0.30302  1.0000
  S   S290      1.0  0.66615  0.10043  0.27354  1.0000
  Fe  Fe148     1.0  0.59814  0.13412  0.18767  1.0000
  S   S291      1.0  0.61419  0.13331  0.15895  1.0000
  S   S292      1.0  0.60314  0.11691  0.21584  1.0000
  Fe  Fe149     1.0  0.56421  0.15749  0.17147  1.0000
  S   S293      1.0  0.57802  0.15862  0.14210  1.0000
  S   S294      1.0  0.53453  0.17011  0.18006  1.0000
  Fe  Fe150     1.0  0.58691  0.12784  0.14859  1.0000
  S   S295      1.0  0.57954  0.10897  0.12715  1.0000
  Fe  Fe151     1.0  0.60430  0.16443  0.15430  1.0000
  S   S296      1.0  0.62522  0.18376  0.13716  1.0000
  S   S297      1.0  0.57150  0.12664  0.17726  1.0000
  S   S298      1.0  0.58981  0.16536  0.18370  1.0000
  Fe  Fe152     1.0  0.59154  0.00822  0.09052  1.0000
  S   S299      1.0  0.60916  0.02743  0.10332  1.0000
  S   S300      1.0  0.58000  0.01274  0.06233  1.0000
  Fe  Fe153     1.0  0.65549  0.29354  0.09922  1.0000
  S   S301      1.0  0.68648  0.29371  0.08971  1.0000
  S   S302      1.0  0.63896  0.27135  0.11784  1.0000
  Fe  Fe154     1.0  0.64849  0.33625  0.08661  1.0000
  S   S303      1.0  0.67862  0.33919  0.07664  1.0000
  S   S304      1.0  0.62476  0.35961  0.08503  1.0000
  Fe  Fe155     1.0  0.67701  0.31188  0.06405  1.0000
  S   S305      1.0  0.69057  0.31152  0.03398  1.0000
  Fe  Fe156     1.0  0.68574  0.32114  0.10277  1.0000
  S   S306      1.0  0.70370  0.32776  0.12557  1.0000
  S   S307      1.0  0.64629  0.30999  0.07270  1.0000
  S   S308      1.0  0.65531  0.32002  0.11360  1.0000
  H   H882      1.0  0.67418  0.35382  0.02298  1.0000
  H   H883      1.0  0.62616  0.41957  0.12003  1.0000
  C   C883      1.0  0.50234  0.11556  0.18473  1.0000
  C   C884      1.0  0.68902  0.31222  0.99587  1.0000
  C   C885      1.0  0.72494  0.33888  0.12534  1.0000
  H   H884      1.0  0.65382  0.29072  0.14858  1.0000
  Fe  Fe157     1.0  0.60715  0.47027  0.08198  1.0000
  S   S309      1.0  0.63158  0.44745  0.08079  1.0000
  S   S310      1.0  0.58327  0.47209  0.06411  1.0000
  S   S311      1.0  0.56454  0.00056  0.10630  1.0000
  S   S312      1.0  0.68793  0.06559  0.31546  1.0000
  H   H885      1.0  0.51406  0.14384  0.21583  1.0000
  C   C886      1.0  0.61146  0.13658  0.26981  1.0000
  C   C887      1.0  0.59973  0.99708  0.00630  1.0000
  C   C888      1.0  0.51514  0.47837  0.09540  1.0000
  H   H886      1.0  0.52375  0.98931  0.11131  1.0000
  H   H887      1.0  0.61754  0.39698  0.12172  1.0000
  H   H888      1.0  0.52880  0.12244  0.19258  1.0000
  C   C889      1.0  0.58853  0.11650  0.28520  1.0000
  C   C890      1.0  0.67979  0.30773  0.01371  1.0000
  C   C891      1.0  0.66226  0.30065  0.01490  1.0000
  C   C892      1.0  0.65428  0.29780  0.99844  1.0000
  H   H889      1.0  0.66759  0.28618  0.16852  1.0000
  H   H890      1.0  0.65502  0.29708  0.02850  1.0000
  C   C893      1.0  0.62522  0.00764  0.31221  1.0000
  C   C894      1.0  0.62700  0.38405  0.08209  1.0000
  C   C895      1.0  0.61069  0.39655  0.08327  1.0000
  C   C896      1.0  0.61183  0.41607  0.08236  1.0000
  C   C897      1.0  0.62934  0.42325  0.08012  1.0000
  C   C898      1.0  0.64564  0.41079  0.07824  1.0000
  C   C899      1.0  0.64450  0.39126  0.07926  1.0000
  H   H891      1.0  0.59709  0.39109  0.08539  1.0000
  H   H892      1.0  0.59917  0.42550  0.08384  1.0000
  H   H893      1.0  0.65924  0.41625  0.07637  1.0000
  H   H894      1.0  0.65716  0.38180  0.07820  1.0000
  H   H895      1.0  0.60985  0.01524  0.14531  1.0000
  C   C900      1.0  0.55898  0.48225  0.00691  1.0000
  C   C901      1.0  0.67471  0.99727  0.30622  1.0000
  C   C902      1.0  0.61443  0.46976  0.99817  1.0000
  C   C903      1.0  0.69587  0.27429  0.13479  1.0000
  H   H896      1.0  0.50451  0.45118  0.10055  1.0000
  H   H897      1.0  0.59762  0.43019  0.01903  1.0000
  C   C904      1.0  0.62819  0.20832  0.13158  1.0000
  C   C905      1.0  0.64226  0.21370  0.11749  1.0000
  C   C906      1.0  0.64545  0.23281  0.11274  1.0000
  C   C907      1.0  0.63480  0.24696  0.12221  1.0000
  C   C908      1.0  0.62080  0.24157  0.13633  1.0000
  C   C909      1.0  0.61742  0.22249  0.14089  1.0000
  H   H898      1.0  0.65074  0.20298  0.11013  1.0000
  H   H899      1.0  0.65628  0.23655  0.10186  1.0000
  H   H900      1.0  0.61240  0.25226  0.14381  1.0000
  H   H901      1.0  0.60657  0.21875  0.15176  1.0000
  C   C910      1.0  0.58691  0.08529  0.12302  1.0000
  C   C911      1.0  0.60372  0.07613  0.12881  1.0000
  C   C912      1.0  0.61025  0.05830  0.12288  1.0000
  C   C913      1.0  0.59988  0.04931  0.11146  1.0000
  C   C914      1.0  0.58278  0.05820  0.10622  1.0000
  C   C915      1.0  0.57646  0.07616  0.11182  1.0000
  H   H902      1.0  0.61199  0.08305  0.13729  1.0000
  H   H903      1.0  0.62352  0.05158  0.12697  1.0000
  H   H904      1.0  0.57468  0.05151  0.09738  1.0000
  H   H905      1.0  0.56351  0.08316  0.10716  1.0000
  C   C916      1.0  0.51582  0.15302  0.15548  1.0000
  C   C917      1.0  0.51445  0.16517  0.16964  1.0000
  H   H906      1.0  0.73179  0.34080  0.09549  1.0000
  H   H907      1.0  0.52947  0.14712  0.15000  1.0000
  C   C918      1.0  0.62996  0.99633  0.29750  1.0000
  C   C919      1.0  0.64913  0.10372  0.25689  1.0000
  C   C920      1.0  0.65185  0.11658  0.24098  1.0000
  C   C921      1.0  0.63822  0.12051  0.22798  1.0000
  C   C922      1.0  0.62173  0.11141  0.23062  1.0000
  C   C923      1.0  0.61927  0.09815  0.24626  1.0000
  C   C924      1.0  0.63276  0.09443  0.25939  1.0000
  H   H908      1.0  0.66452  0.12375  0.23880  1.0000
  H   H909      1.0  0.64039  0.13068  0.21603  1.0000
  H   H910      1.0  0.60662  0.09096  0.24841  1.0000
  H   H911      1.0  0.63046  0.08444  0.27147  1.0000
  H   H912      1.0  0.67736  0.01059  0.29851  1.0000
  H   H913      1.0  0.65912  0.42257  0.11936  1.0000
  C   C925      1.0  0.73090  0.34281  0.14247  1.0000
  C   C926      1.0  0.50531  0.13626  0.20838  1.0000
  C   C927      1.0  0.69776  0.24190  0.12811  1.0000
  C   C928      1.0  0.48996  0.01215  0.06842  1.0000
  H   H914      1.0  0.52491  0.46797  0.13950  1.0000
  H   H915      1.0  0.62674  0.02260  0.31005  1.0000
  H   H916      1.0  0.55741  0.02573  0.99296  1.0000
  Fe  Fe158     1.0  0.55373  0.00284  0.07796  1.0000
  C   C929      1.0  0.55416  0.01168  0.99113  1.0000
  C   C930      1.0  0.68041  0.24017  0.13836  1.0000
  C   C931      1.0  0.62783  0.40512  0.12717  1.0000
  H   H917      1.0  0.60172  0.00552  0.01743  1.0000
  C   C932      1.0  0.49946  0.14814  0.14865  1.0000
  C   C933      1.0  0.66846  0.36867  0.12184  1.0000
  C   C934      1.0  0.51469  0.48009  0.14036  1.0000
  C   C935      1.0  0.60077  0.00497  0.98755  1.0000
  C   C936      1.0  0.70562  0.25903  0.12636  1.0000
  H   H918      1.0  0.67503  0.30188  0.14865  1.0000
  N   N77       1.0  0.60985  0.12484  0.09214  1.0000
  C   C937      1.0  0.62414  0.13092  0.10041  1.0000
  C   C938      1.0  0.59411  0.13661  0.08894  1.0000
  C   C939      1.0  0.62292  0.14925  0.10564  1.0000
  C   C940      1.0  0.59243  0.15502  0.09402  1.0000
  C   C941      1.0  0.60701  0.16138  0.10227  1.0000
  C   C942      1.0  0.61188  0.10594  0.08579  1.0000
  H   H919      1.0  0.63651  0.12155  0.10316  1.0000
  H   H920      1.0  0.58255  0.13163  0.08289  1.0000
  H   H921      1.0  0.63410  0.15400  0.11251  1.0000
  H   H922      1.0  0.57973  0.16416  0.09196  1.0000
  H   H923      1.0  0.60578  0.17556  0.10653  1.0000
  H   H924      1.0  0.61959  0.09581  0.09562  1.0000
  H   H925      1.0  0.59796  0.10062  0.08534  1.0000
  H   H926      1.0  0.61951  0.10606  0.07160  1.0000
  S   S313      1.0  0.52605  0.01868  0.07204  1.0000
  S   S314      1.0  0.53858  0.46890  0.09785  1.0000
  Fe  Fe159     1.0  0.56526  0.48312  0.08872  1.0000
  H   H927      1.0  0.50924  0.02168  0.11366  1.0000
  H   H928      1.0  0.67099  0.35353  0.12260  1.0000
  H   H929      1.0  0.65723  0.25445  0.15395  1.0000
  S   S315      1.0  0.64159  0.06698  0.31484  1.0000
  H   H930      1.0  0.69775  0.37307  0.11647  1.0000
  N   N78       1.0  0.60548  0.45366  0.00041  1.0000
  H   H931      1.0  0.69175  0.40791  0.11473  1.0000
  H   H932      1.0  0.70261  0.31767  0.99479  1.0000
  H   H933      1.0  0.61020  0.33974  0.01357  1.0000
  C   C943      1.0  0.68351  0.37970  0.11840  1.0000
  C   C944      1.0  0.49567  0.47721  0.14398  1.0000
  N   N79       1.0  0.64699  0.39641  0.12350  1.0000
  C   C945      1.0  0.62833  0.34622  0.03346  1.0000
  C   C946      1.0  0.66831  0.28865  0.15302  1.0000
  H   H934      1.0  0.63472  0.00352  0.12470  1.0000
  H   H935      1.0  0.61225  0.43990  0.04577  1.0000
  C   C947      1.0  0.60473  0.44293  0.01723  1.0000
  H   H936      1.0  0.64087  0.29200  0.99957  1.0000
  C   C948      1.0  0.65018  0.37727  0.12435  1.0000
  C   C949      1.0  0.50085  0.46616  0.09853  1.0000
  C   C950      1.0  0.50881  0.00504  0.06652  1.0000
  C   C951      1.0  0.62418  0.34313  0.01551  1.0000
  H   H937      1.0  0.62781  0.46943  0.04216  1.0000
  H   H938      1.0  0.49128  0.46310  0.14595  1.0000
  H   H939      1.0  0.63856  0.36853  0.12673  1.0000
  H   H940      1.0  0.71905  0.26061  0.11833  1.0000
  H   H941      1.0  0.62432  0.40580  0.14246  1.0000
  C   C952      1.0  0.50861  0.99213  0.11222  1.0000
  H   H942      1.0  0.56299  0.01528  0.02483  1.0000
  C   C953      1.0  0.67103  0.25573  0.14655  1.0000
  C   C954      1.0  0.68013  0.39920  0.11749  1.0000
  C   C955      1.0  0.62245  0.47577  0.01316  1.0000
  H   H943      1.0  0.64959  0.13284  0.29335  1.0000
  H   H944      1.0  0.63668  0.15566  0.28948  1.0000
  H   H945      1.0  0.70203  0.28760  0.13323  1.0000
  C   C956      1.0  0.51362  0.12424  0.19525  1.0000
  N   N80       1.0  0.67867  0.27256  0.14450  1.0000
  H   H946      1.0  0.58661  0.13105  0.25763  1.0000
  H   H947      1.0  0.59483  0.10352  0.31251  1.0000
  C   C957      1.0  0.61614  0.12114  0.29992  1.0000
  C   C958      1.0  0.66167  0.40738  0.12019  1.0000
  N   N81       1.0  0.62212  0.13265  0.28464  1.0000
  C   C959      1.0  0.49657  0.17275  0.17652  1.0000
  H   H948      1.0  0.62444  0.11813  0.31179  1.0000
  H   H949      1.0  0.70500  0.23002  0.12140  1.0000
  C   C960      1.0  0.60155  0.00299  0.14537  1.0000
  C   C961      1.0  0.50027  0.01044  0.11362  1.0000
  H   H950      1.0  0.57563  0.10989  0.28523  1.0000
  C   C962      1.0  0.55362  0.00387  0.02510  1.0000
  C   C963      1.0  0.63963  0.14149  0.28445  1.0000
  H   H951      1.0  0.72250  0.33919  0.15541  1.0000
  C   C964      1.0  0.59932  0.11283  0.30042  1.0000
  C   C965      1.0  0.64633  0.35037  0.03610  1.0000
  C   C966      1.0  0.65993  0.35135  0.02089  1.0000
  H   H952      1.0  0.64974  0.35263  0.04996  1.0000
  C   C967      1.0  0.61296  0.44832  0.03238  1.0000
  H   H953      1.0  0.61629  0.14546  0.25755  1.0000
  C   C968      1.0  0.62176  0.46491  0.03034  1.0000
  H   H954      1.0  0.50872  0.10694  0.17385  1.0000
  C   C969      1.0  0.59456  0.12851  0.26982  1.0000
  H   H955      1.0  0.54889  0.47241  0.01232  1.0000
  H   H956      1.0  0.64696  0.14266  0.27008  1.0000
  N   N82       1.0  0.63758  0.34422  0.00063  1.0000
  C   C970      1.0  0.65526  0.34837  0.00311  1.0000
  H   H957      1.0  0.49539  0.18229  0.18735  1.0000
  H   H958      1.0  0.61779  0.34526  0.04536  1.0000
  S   S316      1.0  0.58900  0.47929  0.10740  1.0000
  H   H959      1.0  0.63503  0.00247  0.28377  1.0000
  C   C971      1.0  0.56367  0.48529  0.98760  1.0000
  H   H960      1.0  0.58944  0.00771  0.13709  1.0000
  H   H961      1.0  0.58271  0.44338  0.98915  1.0000
  N   N83       1.0  0.55229  0.99859  0.00620  1.0000
  H   H962      1.0  0.66604  0.34887  0.99144  1.0000
  H   H963      1.0  0.53951  0.00864  0.03162  1.0000
  C   C972      1.0  0.73606  0.34369  0.10879  1.0000
  H   H964      1.0  0.59630  0.99889  0.16009  1.0000
  C   C973      1.0  0.62945  0.98977  0.12674  1.0000
  N   N84       1.0  0.61268  0.98718  0.13703  1.0000
  H   H965      1.0  0.55978  0.99181  0.03409  1.0000
  C   C974      1.0  0.59712  0.44741  0.98465  1.0000
  H   H966      1.0  0.60345  0.01954  0.98437  1.0000
  H   H967      1.0  0.61504  0.47830  0.98485  1.0000
  C   C975      1.0  0.51351  0.98686  0.06124  1.0000
  H   H968      1.0  0.51416  0.01447  0.61152  1.0000
  C   C976      1.0  0.53460  0.99882  0.59366  1.0000
  S   S317      1.0  0.70709  0.09513  0.63825  1.0000
  H   H969      1.0  0.49356  0.99931  0.52305  1.0000
  H   H970      1.0  0.54625  0.00381  0.41623  1.0000
  Fe  Fe160     1.0  0.51597  0.07067  0.60726  1.0000
  S   S318      1.0  0.51427  0.05291  0.58361  1.0000
  S   S319      1.0  0.54081  0.06386  0.62514  1.0000
  C   C977      1.0  0.61941  0.99950  0.32998  1.0000
  S   S320      1.0  0.65849  0.07420  0.64525  1.0000
  H   H971      1.0  0.68413  0.99202  0.64209  1.0000
  C   C978      1.0  0.52411  0.99785  0.36476  1.0000
  Fe  Fe161     1.0  0.63945  0.08394  0.33955  1.0000
  S   S321      1.0  0.61119  0.09765  0.35109  1.0000
  Fe  Fe162     1.0  0.68315  0.08304  0.34035  1.0000
  S   S322      1.0  0.70520  0.08982  0.35985  1.0000
  C   C979      1.0  0.49337  0.01010  0.57157  1.0000
  C   C980      1.0  0.52731  0.00658  0.38050  1.0000
  S   S323      1.0  0.66117  0.10329  0.32709  1.0000
  S   S324      1.0  0.66080  0.06501  0.35465  1.0000
  C   C981      1.0  0.68366  0.14112  0.61196  1.0000
  H   H972      1.0  0.68114  0.12014  0.37337  1.0000
  H   H973      1.0  0.71119  0.13342  0.64830  1.0000
  N   N85       1.0  0.67641  0.11131  0.60361  1.0000
  C   C982      1.0  0.62892  0.11242  0.38586  1.0000
  H   H974      1.0  0.69554  0.09315  0.58753  1.0000
  Fe  Fe163     1.0  0.51311  0.06189  0.40534  1.0000
  S   S325      1.0  0.54392  0.05445  0.39485  1.0000
  S   S326      1.0  0.50460  0.04842  0.43425  1.0000
  H   H975      1.0  0.67181  0.08914  0.38670  1.0000
  H   H976      1.0  0.64262  0.01417  0.62456  1.0000
  C   C983      1.0  0.68276  0.09267  0.59755  1.0000
  C   C984      1.0  0.68927  0.12377  0.60499  1.0000
  C   C985      1.0  0.72489  0.10287  0.36254  1.0000
  H   H977      1.0  0.66018  0.15904  0.62308  1.0000
  N   N86       1.0  0.64243  0.09792  0.38881  1.0000
  H   H978      1.0  0.52364  0.08938  0.49946  1.0000
  H   H979      1.0  0.52924  0.02147  0.37896  1.0000
  S   S327      1.0  0.50351  0.09712  0.59187  1.0000
  C   C986      1.0  0.66100  0.10062  0.38458  1.0000
  H   H980      1.0  0.61418  0.11014  0.38884  1.0000
  C   C987      1.0  0.59243  0.08540  0.36280  1.0000
  C   C988      1.0  0.57530  0.09555  0.36820  1.0000
  C   C989      1.0  0.56020  0.08637  0.37784  1.0000
  C   C990      1.0  0.56215  0.06693  0.38233  1.0000
  C   C991      1.0  0.57931  0.05683  0.37694  1.0000
  C   C992      1.0  0.59434  0.06596  0.36717  1.0000
  H   H981      1.0  0.57364  0.11060  0.36491  1.0000
  H   H982      1.0  0.54711  0.09435  0.38190  1.0000
  H   H983      1.0  0.58101  0.04180  0.38036  1.0000
  H   H984      1.0  0.60740  0.05794  0.36312  1.0000
  C   C993      1.0  0.58971  0.07763  0.64207  1.0000
  C   C994      1.0  0.50166  0.99642  0.56003  1.0000
  H   H985      1.0  0.62863  0.08032  0.41019  1.0000
  S   S328      1.0  0.51015  0.08710  0.53837  1.0000
  C   C995      1.0  0.63382  0.13007  0.37810  1.0000
  C   C996      1.0  0.72345  0.12897  0.63929  1.0000
  H   H986      1.0  0.51294  0.99975  0.54950  1.0000
  H   H987      1.0  0.63694  0.13633  0.62022  1.0000
  H   H988      1.0  0.60644  0.03513  0.64189  1.0000
  C   C997      1.0  0.72508  0.11103  0.63295  1.0000
  C   C998      1.0  0.50074  0.08432  0.48404  1.0000
  H   H989      1.0  0.54125  0.01115  0.58744  1.0000
  H   H990      1.0  0.68624  0.08290  0.60994  1.0000
  C   C999      1.0  0.63447  0.00356  0.63230  1.0000
  H   H991      1.0  0.57093  0.05577  0.64867  1.0000
  C   C1000     1.0  0.65784  0.11570  0.60899  1.0000
  H   H992      1.0  0.52313  0.00595  0.35132  1.0000
  C   C1001     1.0  0.59325  0.09432  0.63111  1.0000
  C   C1002     1.0  0.58051  0.10178  0.61810  1.0000
  C   C1003     1.0  0.56437  0.09273  0.61608  1.0000
  C   C1004     1.0  0.56081  0.07606  0.62706  1.0000
  N   N87       1.0  0.62125  0.00824  0.64651  1.0000
  C   C1005     1.0  0.49275  0.13377  0.55819  1.0000
  H   H993      1.0  0.58307  0.11468  0.60956  1.0000
  H   H994      1.0  0.55470  0.09867  0.60605  1.0000
  H   H995      1.0  0.65675  0.14645  0.36736  1.0000
  C   C1006     1.0  0.65168  0.13306  0.61573  1.0000
  H   H996      1.0  0.63027  0.03544  0.64787  1.0000
  H   H997      1.0  0.67178  0.08699  0.59056  1.0000
  S   S329      1.0  0.61343  0.10622  0.63310  1.0000
  H   H998      1.0  0.72433  0.12009  0.33636  1.0000
  H   H999      1.0  0.62764  0.07436  0.38653  1.0000
  H   H1000     1.0  0.72976  0.08834  0.38951  1.0000
  C   C1007     1.0  0.63667  0.07943  0.39626  1.0000
  H   H1001     1.0  0.64888  0.06881  0.39780  1.0000
  C   C1008     1.0  0.53113  0.00587  0.41402  1.0000
  C   C1009     1.0  0.73121  0.11692  0.34912  1.0000
  H   H1002     1.0  0.69404  0.15063  0.61359  1.0000
  Fe  Fe164     1.0  0.66442  0.04878  0.32908  1.0000
  H   H1003     1.0  0.64766  0.10567  0.60839  1.0000
  C   C1010     1.0  0.66815  0.99670  0.32522  1.0000
  H   H1004     1.0  0.70409  0.12002  0.60137  1.0000
  C   C1011     1.0  0.66472  0.14577  0.61734  1.0000
  S   S330      1.0  0.66248  0.01729  0.33719  1.0000
  C   C1012     1.0  0.49949  0.08271  0.51827  1.0000
  C   C1013     1.0  0.66640  0.11815  0.37697  1.0000
  C   C1014     1.0  0.50935  0.08565  0.50051  1.0000
  Fe  Fe165     1.0  0.50018  0.07878  0.56882  1.0000
  H   H1005     1.0  0.50838  0.08709  0.47047  1.0000
  C   C1015     1.0  0.65271  0.13291  0.37361  1.0000
  H   H1006     1.0  0.62299  0.14131  0.37526  1.0000
  S   S331      1.0  0.49353  0.04649  0.39133  1.0000
  C   C1016     1.0  0.57360  0.06858  0.64003  1.0000
  H   H1007     1.0  0.49805  0.02399  0.56965  1.0000
  H   H1008     1.0  0.73622  0.15497  0.63912  1.0000
  H   H1009     1.0  0.52266  0.00036  0.42680  1.0000
  N   N88       1.0  0.52764  0.99659  0.39769  1.0000
  H   H1010     1.0  0.52701  0.02117  0.41207  1.0000
  H   H1011     1.0  0.49344  0.14704  0.54894  1.0000
  S   S332      1.0  0.49178  0.08711  0.40891  1.0000
  H   H1012     1.0  0.50430  0.12341  0.55327  1.0000
  H   H1013     1.0  0.49528  0.13653  0.57258  1.0000
  C   C1017     1.0  0.73774  0.14121  0.63402  1.0000
  H   H1014     1.0  0.61635  0.00817  0.34161  1.0000
  C   C1018     1.0  0.51942  0.00070  0.60722  1.0000
  H   H1015     1.0  0.48850  0.03304  0.51101  1.0000
  C   C1019     1.0  0.73430  0.09916  0.37898  1.0000
  C   C1020     1.0  0.61736  0.02790  0.65060  1.0000
  Fe  Fe166     1.0  0.65100  0.10033  0.69081  1.0000
  H   H1016     1.0  0.67657  0.41960  0.88273  1.0000
  S   S333      1.0  0.65028  0.11092  0.71994  1.0000
  Fe  Fe167     1.0  0.65349  0.06178  0.67503  1.0000
  S   S334      1.0  0.64656  0.03225  0.68642  1.0000
  S   S335      1.0  0.67492  0.07814  0.68513  1.0000
  S   S336      1.0  0.62941  0.08303  0.68249  1.0000
  Fe  Fe168     1.0  0.58680  0.16167  0.80346  1.0000
  S   S337      1.0  0.60860  0.16316  0.82360  1.0000
  S   S338      1.0  0.59046  0.15957  0.77172  1.0000
  Fe  Fe169     1.0  0.55376  0.16468  0.83411  1.0000
  S   S339      1.0  0.57335  0.16665  0.85621  1.0000
  S   S340      1.0  0.52341  0.16053  0.84555  1.0000
  Fe  Fe170     1.0  0.58916  0.18662  0.83583  1.0000
  S   S341      1.0  0.59525  0.21580  0.84423  1.0000
  Fe  Fe171     1.0  0.59108  0.14325  0.84267  1.0000
  S   S342      1.0  0.60198  0.11816  0.86165  1.0000
  S   S343      1.0  0.56814  0.18626  0.81439  1.0000
  S   S344      1.0  0.57086  0.14032  0.82175  1.0000
  Fe  Fe172     1.0  0.57322  0.01388  0.88833  1.0000
  S   S345      1.0  0.56176  0.01444  0.91838  1.0000
  S   S346      1.0  0.56897  0.03859  0.86625  1.0000
  C   C1021     1.0  0.61175  0.08233  0.73529  1.0000
  H   H1017     1.0  0.49561  0.99751  0.86848  1.0000
  H   H1018     1.0  0.67178  0.22973  0.92810  1.0000
  H   H1019     1.0  0.61556  0.18751  0.75940  1.0000
  H   H1020     1.0  0.62251  0.08914  0.78541  1.0000
  C   C1022     1.0  0.64083  0.06167  0.73048  1.0000
  Fe  Fe173     1.0  0.65316  0.29453  0.89077  1.0000
  S   S347      1.0  0.67854  0.29626  0.90679  1.0000
  S   S348      1.0  0.65123  0.26628  0.87805  1.0000
  Fe  Fe174     1.0  0.63723  0.33457  0.90044  1.0000
  S   S349      1.0  0.66085  0.33832  0.91714  1.0000
  S   S350      1.0  0.61277  0.35694  0.89719  1.0000
  Fe  Fe175     1.0  0.67949  0.32614  0.89326  1.0000
  S   S351      1.0  0.70127  0.34622  0.88015  1.0000
  Fe  Fe176     1.0  0.65808  0.30861  0.92926  1.0000
  S   S352      1.0  0.65239  0.29876  0.96043  1.0000
  S   S353      1.0  0.65556  0.32361  0.87591  1.0000
  S   S354      1.0  0.63294  0.30553  0.91388  1.0000
  C   C1023     1.0  0.61361  0.24790  0.92065  1.0000
  H   H1021     1.0  0.64507  0.17595  0.77318  1.0000
  H   H1022     1.0  0.63688  0.99469  0.69692  1.0000
  C   C1024     1.0  0.66803  0.00990  0.66140  1.0000
  C   C1025     1.0  0.63152  0.07573  0.76002  1.0000
  H   H1023     1.0  0.64708  0.04919  0.73881  1.0000
  Fe  Fe177     1.0  0.59465  0.46627  0.91127  1.0000
  S   S355      1.0  0.61835  0.44315  0.90661  1.0000
  S   S356      1.0  0.56447  0.46202  0.92002  1.0000
  C   C1026     1.0  0.66346  0.30238  0.98060  1.0000
  C   C1027     1.0  0.55235  0.12628  0.87634  1.0000
  C   C1028     1.0  0.61012  0.26038  0.93449  1.0000
  C   C1029     1.0  0.67376  0.99257  0.65404  1.0000
  C   C1030     1.0  0.59848  0.99413  0.97289  1.0000
  Fe  Fe178     1.0  0.56707  0.47988  0.94308  1.0000
  C   C1031     1.0  0.61361  0.38052  0.90211  1.0000
  C   C1032     1.0  0.62943  0.38652  0.90867  1.0000
  C   C1033     1.0  0.63022  0.40563  0.91096  1.0000
  C   C1034     1.0  0.61526  0.41899  0.90668  1.0000
  C   C1035     1.0  0.59917  0.41292  0.90072  1.0000
  C   C1036     1.0  0.59838  0.39378  0.89842  1.0000
  H   H1024     1.0  0.64125  0.37654  0.91156  1.0000
  H   H1025     1.0  0.64274  0.41019  0.91553  1.0000
  H   H1026     1.0  0.58760  0.42306  0.89725  1.0000
  H   H1027     1.0  0.58606  0.38928  0.89336  1.0000
  H   H1028     1.0  0.59589  0.26599  0.93852  1.0000
  H   H1029     1.0  0.68810  0.31332  0.96579  1.0000
  H   H1030     1.0  0.55503  0.01706  0.96101  1.0000
  C   C1037     1.0  0.61118  0.99476  0.65647  1.0000
  C   C1038     1.0  0.49243  0.99349  0.88325  1.0000
  C   C1039     1.0  0.59919  0.09380  0.74629  1.0000
  C   C1040     1.0  0.66609  0.24026  0.91729  1.0000
  C   C1041     1.0  0.61100  0.22941  0.85400  1.0000
  C   C1042     1.0  0.60486  0.24792  0.85823  1.0000
  C   C1043     1.0  0.61678  0.25936  0.86560  1.0000
  C   C1044     1.0  0.63530  0.25265  0.86858  1.0000
  C   C1045     1.0  0.64146  0.23414  0.86434  1.0000
  C   C1046     1.0  0.62944  0.22259  0.85730  1.0000
  H   H1031     1.0  0.59070  0.25350  0.85580  1.0000
  H   H1032     1.0  0.61166  0.27346  0.86875  1.0000
  H   H1033     1.0  0.65569  0.22864  0.86655  1.0000
  H   H1034     1.0  0.63452  0.20845  0.85428  1.0000
  C   C1047     1.0  0.59357  0.09570  0.86223  1.0000
  C   C1048     1.0  0.59797  0.08186  0.87675  1.0000
  C   C1049     1.0  0.59097  0.06409  0.87798  1.0000
  C   C1050     1.0  0.57963  0.05997  0.86455  1.0000
  C   C1051     1.0  0.57548  0.07370  0.84989  1.0000
  C   C1052     1.0  0.58234  0.09147  0.84876  1.0000
  H   H1035     1.0  0.60673  0.08494  0.88719  1.0000
  H   H1036     1.0  0.59426  0.05366  0.88935  1.0000
  H   H1037     1.0  0.56670  0.07065  0.83946  1.0000
  H   H1038     1.0  0.57898  0.10184  0.83742  1.0000
  C   C1053     1.0  0.50257  0.17129  0.81501  1.0000
  C   C1054     1.0  0.50280  0.16316  0.83347  1.0000
  N   N89       1.0  0.62753  0.07326  0.74231  1.0000
  H   H1039     1.0  0.51535  0.17589  0.80753  1.0000
  C   C1055     1.0  0.54904  0.98873  0.97042  1.0000
  H   H1040     1.0  0.65234  0.18818  0.80257  1.0000
  H   H1041     1.0  0.67497  0.25223  0.91486  1.0000
  H   H1042     1.0  0.62298  0.35318  0.97663  1.0000
  C   C1056     1.0  0.63348  0.12473  0.73392  1.0000
  C   C1057     1.0  0.61687  0.13341  0.72726  1.0000
  C   C1058     1.0  0.60389  0.14397  0.73905  1.0000
  C   C1059     1.0  0.60719  0.14577  0.75769  1.0000
  C   C1060     1.0  0.62379  0.13709  0.76437  1.0000
  C   C1061     1.0  0.63690  0.12677  0.75249  1.0000
  H   H1043     1.0  0.61405  0.13207  0.71301  1.0000
  H   H1044     1.0  0.59115  0.15072  0.73368  1.0000
  H   H1045     1.0  0.62660  0.13840  0.77862  1.0000
  H   H1046     1.0  0.64972  0.12016  0.75778  1.0000
  C   C1062     1.0  0.65471  0.01077  0.67690  1.0000
  C   C1063     1.0  0.53046  0.07430  0.87287  1.0000
  H   H1047     1.0  0.52919  0.11898  0.85235  1.0000
  H   H1048     1.0  0.64581  0.43318  0.87226  1.0000
  C   C1064     1.0  0.62678  0.20652  0.80479  1.0000
  C   C1065     1.0  0.63209  0.24108  0.91541  1.0000
  H   H1049     1.0  0.56176  0.12577  0.88772  1.0000
  C   C1066     1.0  0.51123  0.44992  0.91915  1.0000
  C   C1067     1.0  0.67313  0.39179  0.87569  1.0000
  H   H1050     1.0  0.58226  0.19995  0.76774  1.0000
  Fe  Fe179     1.0  0.67840  0.09255  0.65578  1.0000
  H   H1051     1.0  0.61708  0.38041  0.85964  1.0000
  C   C1068     1.0  0.58845  0.21197  0.77261  1.0000
  H   H1052     1.0  0.63468  0.23151  0.90453  1.0000
  H   H1053     1.0  0.65229  0.07008  0.72388  1.0000
  C   C1069     1.0  0.50442  0.46977  0.96571  1.0000
  H   H1054     1.0  0.61258  0.02897  0.66566  1.0000
  C   C1070     1.0  0.60297  0.09611  0.76448  1.0000
  C   C1071     1.0  0.53270  0.10696  0.86218  1.0000
  H   H1055     1.0  0.73180  0.31567  0.87724  1.0000
  C   C1072     1.0  0.66767  0.41084  0.87687  1.0000
  H   H1056     1.0  0.64528  0.34004  0.97163  1.0000
  C   C1073     1.0  0.68082  0.30978  0.97939  1.0000
  H   H1057     1.0  0.60009  0.22260  0.80379  1.0000
  C   C1074     1.0  0.63544  0.18643  0.77984  1.0000
  Fe  Fe180     1.0  0.54905  0.98808  0.91505  1.0000
  H   H1058     1.0  0.59362  0.10540  0.77297  1.0000
  C   C1075     1.0  0.52564  0.08984  0.86050  1.0000
  N   N90       1.0  0.50211  0.45730  0.93639  1.0000
  H   H1059     1.0  0.52583  0.06069  0.87128  1.0000
  N   N91       1.0  0.54433  0.10847  0.87572  1.0000
  C   C1076     1.0  0.61001  0.21253  0.79686  1.0000
  H   H1060     1.0  0.72436  0.37549  0.86536  1.0000
  H   H1061     1.0  0.54104  0.13785  0.87821  1.0000
  S   S357      1.0  0.59770  0.48205  0.93591  1.0000
  H   H1062     1.0  0.62965  0.21185  0.81768  1.0000
  N   N92       1.0  0.60602  0.20552  0.78089  1.0000
  C   C1077     1.0  0.61866  0.19295  0.77216  1.0000
  C   C1078     1.0  0.54902  0.09335  0.88800  1.0000
  C   C1079     1.0  0.54201  0.07610  0.88687  1.0000
  H   H1063     1.0  0.55883  0.09433  0.89826  1.0000
  H   H1064     1.0  0.54645  0.06388  0.89603  1.0000
  C   C1080     1.0  0.66123  0.38061  0.86852  1.0000
  H   H1065     1.0  0.51688  0.08856  0.84940  1.0000
  C   C1081     1.0  0.72563  0.34552  0.87215  1.0000
  S   S358      1.0  0.65564  0.11566  0.66193  1.0000
  H   H1066     1.0  0.68639  0.38558  0.88046  1.0000
  H   H1067     1.0  0.62260  0.27562  0.95362  1.0000
  H   H1068     1.0  0.52004  0.99698  0.89032  1.0000
  H   H1069     1.0  0.66559  0.36580  0.86775  1.0000
  C   C1082     1.0  0.63890  0.40690  0.86383  1.0000
  C   C1083     1.0  0.65049  0.41850  0.87082  1.0000
  C   C1084     1.0  0.63208  0.37642  0.85509  1.0000
  H   H1070     1.0  0.62531  0.41286  0.85971  1.0000
  H   H1071     1.0  0.66706  0.23391  0.90373  1.0000
  H   H1072     1.0  0.63427  0.37786  0.83958  1.0000
  H   H1073     1.0  0.63485  0.36140  0.86027  1.0000
  H   H1074     1.0  0.60895  0.08101  0.72101  1.0000
  H   H1075     1.0  0.59109  0.22252  0.76054  1.0000
  H   H1076     1.0  0.59568  0.45875  0.97308  1.0000
  C   C1085     1.0  0.62507  0.26579  0.94295  1.0000
  N   N93       1.0  0.64672  0.24698  0.92330  1.0000
  H   H1077     1.0  0.52799  0.46184  0.94652  1.0000
  S   S359      1.0  0.59969  0.99615  0.89488  1.0000
  C   C1086     1.0  0.55269  0.00691  0.97302  1.0000
  N   N94       1.0  0.64427  0.38819  0.86290  1.0000
  H   H1078     1.0  0.57777  0.21827  0.78300  1.0000
  C   C1087     1.0  0.63949  0.19327  0.79629  1.0000
  C   C1088     1.0  0.61923  0.08703  0.77144  1.0000
  C   C1089     1.0  0.64340  0.25896  0.93711  1.0000
  H   H1079     1.0  0.64439  0.06914  0.76531  1.0000
  H   H1080     1.0  0.50171  0.45203  0.90775  1.0000
  H   H1081     1.0  0.56094  0.12952  0.86296  1.0000
  H   H1082     1.0  0.58693  0.10131  0.74055  1.0000
  H   H1083     1.0  0.63395  0.05636  0.71918  1.0000
  H   H1084     1.0  0.65499  0.26357  0.94346  1.0000
  Fe  Fe181     1.0  0.58712  0.99501  0.92511  1.0000
  S   S360      1.0  0.55811  0.98887  0.88438  1.0000
  H   H1085     1.0  0.60216  0.24374  0.91375  1.0000
  S   S361      1.0  0.60007  0.00472  0.94957  1.0000
  S   S362      1.0  0.55431  0.47226  0.97217  1.0000
  H   H1086     1.0  0.52371  0.45750  0.91381  1.0000
  C   C1090     1.0  0.51283  0.46270  0.94917  1.0000
  C   C1091     1.0  0.73330  0.36247  0.86542  1.0000
  C   C1092     1.0  0.50633  0.99303  0.89559  1.0000
  C   C1093     1.0  0.64716  0.99417  0.68490  1.0000
  H   H1087     1.0  0.51569  0.43475  0.92181  1.0000
  H   H1088     1.0  0.60592  0.43530  0.97900  1.0000
  C   C1094     1.0  0.63269  0.34130  0.98192  1.0000
  H   H1089     1.0  0.51302  0.47431  0.97564  1.0000
  H   H1090     1.0  0.62596  0.32798  0.98235  1.0000
  H   H1091     1.0  0.59928  0.07179  0.65222  1.0000
  C   C1095     1.0  0.73743  0.32882  0.87214  1.0000
  Fe  Fe182     1.0  0.63561  0.09631  0.65333  1.0000
  H   H1092     1.0  0.60074  0.99846  0.66775  1.0000
  H   H1093     1.0  0.67405  0.02252  0.65518  1.0000
  H   H1094     1.0  0.49797  0.48472  0.87308  1.0000
  C   C1096     1.0  0.50251  0.98720  0.91458  1.0000
  S   S363      1.0  0.59200  0.51603  0.02749  1.0000
  S   S364      1.0  0.68497  0.88658  0.29968  1.0000
  Fe  Fe183     1.0  0.65743  0.87565  0.29479  1.0000
  S   S365      1.0  0.65513  0.85776  0.27029  1.0000
  Fe  Fe184     1.0  0.59098  0.82383  0.19253  1.0000
  S   S366      1.0  0.61414  0.82330  0.16910  1.0000
  S   S367      1.0  0.59220  0.83638  0.22076  1.0000
  Fe  Fe185     1.0  0.56253  0.81212  0.16729  1.0000
  S   S368      1.0  0.58422  0.81163  0.14236  1.0000
  S   S369      1.0  0.53476  0.80258  0.16006  1.0000
  Fe  Fe186     1.0  0.60405  0.79617  0.16196  1.0000
  S   S370      1.0  0.62626  0.77321  0.15081  1.0000
  Fe  Fe187     1.0  0.59250  0.83849  0.15119  1.0000
  S   S371      1.0  0.60102  0.86239  0.12969  1.0000
  S   S372      1.0  0.58212  0.79550  0.18690  1.0000
  S   S373      1.0  0.56959  0.84020  0.17463  1.0000
  H   H1095     1.0  0.73191  0.68754  0.08125  1.0000
  C   C1097     1.0  0.61353  0.84595  0.30386  1.0000
  C   C1098     1.0  0.65672  0.55548  0.07350  1.0000
  C   C1099     1.0  0.63976  0.97490  0.11813  1.0000
  H   H1096     1.0  0.59860  0.71425  0.09717  1.0000
  C   C1100     1.0  0.54857  0.98074  0.00380  1.0000
  Fe  Fe188     1.0  0.57455  0.97063  0.10117  1.0000
  S   S374      1.0  0.56877  0.94862  0.12563  1.0000
  H   H1097     1.0  0.64224  0.63480  0.00500  1.0000
  Fe  Fe189     1.0  0.65244  0.66754  0.10696  1.0000
  S   S375      1.0  0.68256  0.66754  0.09406  1.0000
  S   S376      1.0  0.63371  0.68969  0.12356  1.0000
  Fe  Fe190     1.0  0.64714  0.63037  0.09053  1.0000
  S   S377      1.0  0.67656  0.62844  0.07689  1.0000
  S   S378      1.0  0.62960  0.60886  0.08115  1.0000
  Fe  Fe191     1.0  0.68546  0.63651  0.10384  1.0000
  S   S379      1.0  0.71052  0.61559  0.11154  1.0000
  Fe  Fe192     1.0  0.67154  0.65898  0.06811  1.0000
  S   S380      1.0  0.68194  0.66994  0.03837  1.0000
  S   S381      1.0  0.65593  0.63669  0.11818  1.0000
  S   S382      1.0  0.64156  0.66088  0.08021  1.0000
  Fe  Fe193     1.0  0.59437  0.50903  0.09642  1.0000
  S   S383      1.0  0.60261  0.52973  0.11537  1.0000
  S   S384      1.0  0.56906  0.51356  0.07997  1.0000
  H   H1098     1.0  0.50311  0.96129  0.05509  1.0000
  C   C1101     1.0  0.54006  0.50074  0.13191  1.0000
  Fe  Fe194     1.0  0.58813  0.98198  0.06009  1.0000
  C   C1102     1.0  0.73044  0.61476  0.12464  1.0000
  C   C1103     1.0  0.59168  0.88217  0.20040  1.0000
  H   H1099     1.0  0.73642  0.60651  0.07807  1.0000
  H   H1100     1.0  0.54935  0.48775  0.13512  1.0000
  H   H1101     1.0  0.72415  0.64200  0.13483  1.0000
  H   H1102     1.0  0.66131  0.59591  0.10874  1.0000
  C   C1104     1.0  0.62558  0.87620  0.20340  1.0000
  C   C1105     1.0  0.67381  0.66206  0.01821  1.0000
  C   C1106     1.0  0.68171  0.66818  0.00020  1.0000
  C   C1107     1.0  0.65961  0.64991  0.01977  1.0000
  H   H1103     1.0  0.62871  0.84529  0.30296  1.0000
  H   H1104     1.0  0.65335  0.64508  0.03348  1.0000
  C   C1108     1.0  0.62076  0.58771  0.09161  1.0000
  C   C1109     1.0  0.61349  0.57613  0.08005  1.0000
  C   C1110     1.0  0.60755  0.55853  0.08722  1.0000
  C   C1111     1.0  0.60858  0.55241  0.10616  1.0000
  C   C1112     1.0  0.61527  0.56425  0.11790  1.0000
  C   C1113     1.0  0.62144  0.58179  0.11065  1.0000
  H   H1105     1.0  0.61277  0.58065  0.06533  1.0000
  H   H1106     1.0  0.60233  0.54963  0.07806  1.0000
  H   H1107     1.0  0.61595  0.55970  0.13261  1.0000
  H   H1108     1.0  0.62670  0.59069  0.11978  1.0000
  H   H1109     1.0  0.60213  0.87165  0.16645  1.0000
  H   H1110     1.0  0.71845  0.61356  0.06288  1.0000
  C   C1114     1.0  0.60081  0.57353  0.98731  1.0000
  C   C1115     1.0  0.66173  0.55281  0.11135  1.0000
  C   C1116     1.0  0.59694  0.97810  0.01047  1.0000
  H   H1111     1.0  0.63349  0.96811  0.28953  1.0000
  H   H1112     1.0  0.56335  0.48995  0.03414  1.0000
  H   H1113     1.0  0.71487  0.64657  0.04869  1.0000
  C   C1117     1.0  0.62827  0.74948  0.14445  1.0000
  C   C1118     1.0  0.61336  0.73809  0.14748  1.0000
  C   C1119     1.0  0.61552  0.71975  0.14149  1.0000
  C   C1120     1.0  0.63250  0.71245  0.13220  1.0000
  C   C1121     1.0  0.64749  0.72376  0.12939  1.0000
  C   C1122     1.0  0.64538  0.74204  0.13553  1.0000
  H   H1114     1.0  0.60016  0.74338  0.15447  1.0000
  H   H1115     1.0  0.60383  0.71118  0.14390  1.0000
  H   H1116     1.0  0.66068  0.71846  0.12240  1.0000
  H   H1117     1.0  0.65710  0.75056  0.13319  1.0000
  C   C1123     1.0  0.51078  0.81032  0.16579  1.0000
  C   C1124     1.0  0.50476  0.81954  0.18182  1.0000
  Fe  Fe195     1.0  0.66773  0.91371  0.30571  1.0000
  C   C1125     1.0  0.65332  0.64409  0.00355  1.0000
  S   S385      1.0  0.60243  0.97799  0.08693  1.0000
  H   H1118     1.0  0.51500  0.82344  0.19037  1.0000
  H   H1119     1.0  0.59218  0.96806  0.14658  1.0000
  H   H1120     1.0  0.69272  0.67754  0.99882  1.0000
  C   C1126     1.0  0.57699  0.92446  0.12585  1.0000
  C   C1127     1.0  0.59040  0.91775  0.11209  1.0000
  C   C1128     1.0  0.59746  0.89870  0.11341  1.0000
  C   C1129     1.0  0.59100  0.88607  0.12830  1.0000
  C   C1130     1.0  0.57734  0.89273  0.14190  1.0000
  C   C1131     1.0  0.57053  0.91186  0.14077  1.0000
  H   H1121     1.0  0.59548  0.92726  0.10049  1.0000
  H   H1122     1.0  0.60795  0.89368  0.10276  1.0000
  H   H1123     1.0  0.57199  0.88316  0.15328  1.0000
  H   H1124     1.0  0.56009  0.91690  0.15144  1.0000
  C   C1132     1.0  0.63758  0.85315  0.25583  1.0000
  C   C1133     1.0  0.64248  0.84072  0.24182  1.0000
  C   C1134     1.0  0.62896  0.83568  0.23073  1.0000
  C   C1135     1.0  0.61017  0.84279  0.23368  1.0000
  C   C1136     1.0  0.60527  0.85533  0.24761  1.0000
  C   C1137     1.0  0.61888  0.86072  0.25838  1.0000
  H   H1125     1.0  0.65685  0.83470  0.23967  1.0000
  H   H1126     1.0  0.63302  0.82598  0.22017  1.0000
  H   H1127     1.0  0.59081  0.86096  0.25008  1.0000
  H   H1128     1.0  0.61482  0.87045  0.26890  1.0000
  S   S386      1.0  0.67636  0.94274  0.29441  1.0000
  H   H1129     1.0  0.63399  0.86188  0.15281  1.0000
  S   S387      1.0  0.59659  0.96725  0.03367  1.0000
  N   N95       1.0  0.60855  0.75808  0.10354  1.0000
  C   C1138     1.0  0.62658  0.75751  0.09533  1.0000
  C   C1139     1.0  0.59834  0.74299  0.10379  1.0000
  C   C1140     1.0  0.63495  0.74137  0.08739  1.0000
  C   C1141     1.0  0.60632  0.72658  0.09609  1.0000
  C   C1142     1.0  0.62476  0.72579  0.08791  1.0000
  C   C1143     1.0  0.59990  0.77498  0.11195  1.0000
  H   H1130     1.0  0.63478  0.76935  0.09542  1.0000
  H   H1131     1.0  0.58418  0.74334  0.11058  1.0000
  H   H1132     1.0  0.64945  0.74069  0.08149  1.0000
  H   H1133     1.0  0.63133  0.71284  0.08263  1.0000
  H   H1134     1.0  0.58964  0.78278  0.10284  1.0000
  H   H1135     1.0  0.59269  0.77117  0.12602  1.0000
  H   H1136     1.0  0.61054  0.78452  0.11424  1.0000
  C   C1144     1.0  0.67375  0.96318  0.30680  1.0000
  H   H1137     1.0  0.62328  0.88009  0.21767  1.0000
  C   C1145     1.0  0.60293  0.85987  0.31367  1.0000
  C   C1146     1.0  0.61581  0.95477  0.13074  1.0000
  H   H1138     1.0  0.65405  0.55707  0.05886  1.0000
  C   C1147     1.0  0.72256  0.66867  0.06348  1.0000
  C   C1148     1.0  0.49738  0.97770  0.11092  1.0000
  H   H1139     1.0  0.58916  0.56053  0.01372  1.0000
  H   H1140     1.0  0.65005  0.52606  0.11302  1.0000
  H   H1141     1.0  0.51147  0.52712  0.13310  1.0000
  C   C1149     1.0  0.49940  0.97549  0.05880  1.0000
  C   C1150     1.0  0.65203  0.53946  0.08488  1.0000
  H   H1142     1.0  0.63112  0.82149  0.28274  1.0000
  H   H1143     1.0  0.52105  0.50729  0.09038  1.0000
  C   C1151     1.0  0.49695  0.76158  0.17566  1.0000
  H   H1144     1.0  0.66297  0.55191  0.12629  1.0000
  H   H1145     1.0  0.68511  0.58963  0.09937  1.0000
  C   C1152     1.0  0.51022  0.49772  0.09287  1.0000
  H   H1146     1.0  0.59284  0.95248  0.99889  1.0000
  H   H1147     1.0  0.64569  0.52847  0.07915  1.0000
  C   C1153     1.0  0.49720  0.80522  0.15495  1.0000
  H   H1148     1.0  0.71445  0.67959  0.05542  1.0000
  S   S388      1.0  0.56106  0.97239  0.07435  1.0000
  H   H1149     1.0  0.59049  0.88178  0.21593  1.0000
  H   H1150     1.0  0.54737  0.97032  0.01574  1.0000
  H   H1151     1.0  0.54250  0.50479  0.11663  1.0000
  C   C1154     1.0  0.58573  0.83450  0.29618  1.0000
  H   H1152     1.0  0.71742  0.94097  0.29929  1.0000
  C   C1155     1.0  0.67277  0.58436  0.10810  1.0000
  N   N96       1.0  0.52021  0.49787  0.13682  1.0000
  H   H1153     1.0  0.71424  0.91815  0.29252  1.0000
  S   S389      1.0  0.64122  0.90358  0.29807  1.0000
  C   C1156     1.0  0.65454  0.53807  0.10393  1.0000
  H   H1154     1.0  0.67709  0.58051  0.12246  1.0000
  C   C1157     1.0  0.54693  0.97553  0.98588  1.0000
  H   H1155     1.0  0.66642  0.58287  0.07270  1.0000
  C   C1158     1.0  0.61605  0.81884  0.28518  1.0000
  H   H1156     1.0  0.61104  0.81828  0.27116  1.0000
  C   C1159     1.0  0.63187  0.86596  0.16706  1.0000
  C   C1160     1.0  0.58516  0.50761  0.99302  1.0000
  H   H1157     1.0  0.52796  0.98147  0.05906  1.0000
  Fe  Fe196     1.0  0.58895  0.50218  0.05684  1.0000
  C   C1161     1.0  0.64381  0.87039  0.19624  1.0000
  C   C1162     1.0  0.58062  0.50448  0.01233  1.0000
  C   C1163     1.0  0.61381  0.87152  0.17481  1.0000
  H   H1158     1.0  0.51846  0.77020  0.19081  1.0000
  H   H1159     1.0  0.58726  0.89655  0.19433  1.0000
  N   N97       1.0  0.66633  0.56847  0.10007  1.0000
  C   C1164     1.0  0.66379  0.57000  0.08140  1.0000
  H   H1160     1.0  0.58181  0.87233  0.19698  1.0000
  N   N98       1.0  0.60488  0.83358  0.29518  1.0000
  H   H1161     1.0  0.66095  0.86044  0.17224  1.0000
  N   N99       1.0  0.61082  0.87633  0.19281  1.0000
  C   C1165     1.0  0.64693  0.86519  0.17794  1.0000
  C   C1166     1.0  0.49118  0.50477  0.09485  1.0000
  C   C1167     1.0  0.72335  0.92604  0.29983  1.0000
  S   S390      1.0  0.61441  0.49968  0.07262  1.0000
  H   H1162     1.0  0.65536  0.86967  0.20495  1.0000
  C   C1168     1.0  0.50716  0.51308  0.13663  1.0000
  H   H1163     1.0  0.64047  0.94571  0.11325  1.0000
  H   H1164     1.0  0.61077  0.58080  0.99356  1.0000
  H   H1165     1.0  0.68245  0.98123  0.28237  1.0000
  C   C1169     1.0  0.73397  0.62959  0.13456  1.0000
  C   C1170     1.0  0.62909  0.97691  0.30086  1.0000
  C   C1171     1.0  0.59480  0.96722  0.99580  1.0000
  H   H1166     1.0  0.61009  0.94126  0.13209  1.0000
  C   C1172     1.0  0.63286  0.95728  0.12019  1.0000
  C   C1173     1.0  0.50350  0.76947  0.19038  1.0000
  H   H1167     1.0  0.61001  0.94434  0.31740  1.0000
  C   C1174     1.0  0.60576  0.97000  0.13896  1.0000
  C   C1175     1.0  0.72279  0.64992  0.05977  1.0000
  H   H1168     1.0  0.56666  0.54417  0.99927  1.0000
  C   C1176     1.0  0.58863  0.56230  0.99862  1.0000
  H   H1169     1.0  0.50172  0.79801  0.14257  1.0000
  C   C1177     1.0  0.67756  0.98058  0.29711  1.0000
  C   C1178     1.0  0.73235  0.67310  0.07795  1.0000
  C   C1179     1.0  0.56735  0.49199  0.01927  1.0000
  N   N100      1.0  0.73256  0.63600  0.07014  1.0000
  H   H1170     1.0  0.57889  0.82468  0.28930  1.0000
  H   H1171     1.0  0.50683  0.75600  0.16475  1.0000
  H   H1172     1.0  0.59562  0.51706  0.98757  1.0000
  H   H1173     1.0  0.54433  0.51194  0.13971  1.0000
  H   H1174     1.0  0.63532  0.94131  0.31356  1.0000
  H   H1175     1.0  0.50376  0.96359  0.10908  1.0000
  H   H1176     1.0  0.61500  0.80501  0.29339  1.0000
  C   C1180     1.0  0.73267  0.61648  0.06589  1.0000
  C   C1181     1.0  0.58341  0.86085  0.31486  1.0000
  C   C1182     1.0  0.57593  0.55299  0.99032  1.0000
  H   H1177     1.0  0.62878  0.48898  0.01159  1.0000
  H   H1178     1.0  0.65276  0.97718  0.10956  1.0000
  C   C1183     1.0  0.49071  0.77724  0.20400  1.0000
  H   H1179     1.0  0.49567  0.78399  0.21512  1.0000
  C   C1184     1.0  0.57470  0.84811  0.30607  1.0000
  C   C1185     1.0  0.66118  0.65019  0.98555  1.0000
  H   H1180     1.0  0.55951  0.84875  0.30697  1.0000
  H   H1181     1.0  0.73752  0.92570  0.29208  1.0000
  S   S391      1.0  0.66729  0.90789  0.63396  1.0000
  H   H1182     1.0  0.72425  0.89522  0.37022  1.0000
  S   S392      1.0  0.62014  0.90211  0.61600  1.0000
  H   H1183     1.0  0.64849  0.83783  0.63537  1.0000
  H   H1184     1.0  0.52993  0.84620  0.43897  1.0000
  Fe  Fe197     1.0  0.51373  0.90031  0.58922  1.0000
  S   S393      1.0  0.52014  0.90753  0.55827  1.0000
  S   S394      1.0  0.53305  0.89237  0.61264  1.0000
  H   H1185     1.0  0.53274  0.94522  0.57621  1.0000
  S   S395      1.0  0.48927  0.88391  0.58567  1.0000
  C   C1186     1.0  0.53897  0.94706  0.58933  1.0000
  H   H1186     1.0  0.48815  0.92882  0.48410  1.0000
  C   C1187     1.0  0.68337  0.87771  0.59051  1.0000
  Fe  Fe198     1.0  0.63652  0.89362  0.32865  1.0000
  S   S396      1.0  0.49349  0.87482  0.53137  1.0000
  S   S397      1.0  0.60770  0.90547  0.34051  1.0000
  C   C1188     1.0  0.62325  0.94860  0.32165  1.0000
  C   C1189     1.0  0.65837  0.86537  0.61157  1.0000
  C   C1190     1.0  0.54077  0.98104  0.58788  1.0000
  S   S398      1.0  0.70057  0.86130  0.65006  1.0000
  S   S399      1.0  0.66228  0.90533  0.33631  1.0000
  H   H1187     1.0  0.66991  0.83908  0.64592  1.0000
  H   H1188     1.0  0.55662  0.88755  0.64294  1.0000
  S   S400      1.0  0.50689  0.96103  0.54881  1.0000
  Fe  Fe199     1.0  0.63748  0.90065  0.64119  1.0000
  C   C1191     1.0  0.73560  0.85299  0.33744  1.0000
  C   C1192     1.0  0.72304  0.85591  0.35329  1.0000
  H   H1189     1.0  0.63162  0.95643  0.63564  1.0000
  Fe  Fe200     1.0  0.50880  0.88487  0.38956  1.0000
  S   S401      1.0  0.53699  0.86807  0.38377  1.0000
  S   S402      1.0  0.50680  0.91271  0.40122  1.0000
  N   N101      1.0  0.53227  0.96554  0.59565  1.0000
  C   C1193     1.0  0.61858  0.98005  0.33283  1.0000
  C   C1194     1.0  0.72267  0.85918  0.63600  1.0000
  H   H1190     1.0  0.69689  0.93079  0.32782  1.0000
  C   C1195     1.0  0.58835  0.89449  0.35248  1.0000
  C   C1196     1.0  0.58957  0.87546  0.35903  1.0000
  C   C1197     1.0  0.57370  0.86751  0.36850  1.0000
  C   C1198     1.0  0.55655  0.87849  0.37157  1.0000
  C   C1199     1.0  0.55535  0.89749  0.36496  1.0000
  C   C1200     1.0  0.57118  0.90542  0.35550  1.0000
  H   H1191     1.0  0.69682  0.91639  0.36053  1.0000
  C   C1201     1.0  0.51706  0.96734  0.60860  1.0000
  H   H1192     1.0  0.54223  0.90607  0.36718  1.0000
  H   H1193     1.0  0.57009  0.92015  0.35050  1.0000
  S   S403      1.0  0.69897  0.86506  0.35188  1.0000
  H   H1194     1.0  0.53235  0.84212  0.47332  1.0000
  H   H1195     1.0  0.66460  0.94936  0.33360  1.0000
  C   C1202     1.0  0.53010  0.85832  0.44679  1.0000
  H   H1196     1.0  0.50981  0.95521  0.61420  1.0000
  H   H1197     1.0  0.57476  0.85282  0.37366  1.0000
  H   H1198     1.0  0.54834  0.86406  0.49857  1.0000
  H   H1199     1.0  0.52708  0.90591  0.44061  1.0000
  H   H1200     1.0  0.66883  0.82230  0.62910  1.0000
  H   H1201     1.0  0.50288  0.86869  0.62928  1.0000
  C   C1203     1.0  0.66486  0.97922  0.33500  1.0000
  H   H1202     1.0  0.50033  0.90141  0.63788  1.0000
  H   H1203     1.0  0.62433  0.94349  0.33663  1.0000
  H   H1204     1.0  0.60977  0.86984  0.32036  1.0000
  N   N102      1.0  0.67042  0.85060  0.61769  1.0000
  H   H1205     1.0  0.64940  0.98103  0.61748  1.0000
  H   H1206     1.0  0.69850  0.83777  0.61583  1.0000
  C   C1204     1.0  0.63824  0.98491  0.62806  1.0000
  S   S404      1.0  0.65154  0.86488  0.32526  1.0000
  C   C1205     1.0  0.66463  0.87908  0.59784  1.0000
  H   H1207     1.0  0.65985  0.97861  0.34971  1.0000
  C   C1206     1.0  0.70900  0.92175  0.33204  1.0000
  H   H1208     1.0  0.60275  0.86693  0.35706  1.0000
  Fe  Fe201     1.0  0.49965  0.93276  0.56212  1.0000
  C   C1207     1.0  0.59569  0.90014  0.61559  1.0000
  C   C1208     1.0  0.58759  0.90396  0.59845  1.0000
  C   C1209     1.0  0.56842  0.90198  0.59731  1.0000
  C   C1210     1.0  0.55712  0.89594  0.61331  1.0000
  C   C1211     1.0  0.56518  0.89227  0.63047  1.0000
  C   C1212     1.0  0.58429  0.89444  0.63165  1.0000
  H   H1209     1.0  0.59628  0.90828  0.58592  1.0000
  H   H1210     1.0  0.56252  0.90469  0.58398  1.0000
  C   C1213     1.0  0.72987  0.85191  0.37107  1.0000
  C   C1214     1.0  0.49566  0.97837  0.56244  1.0000
  C   C1215     1.0  0.53144  0.85614  0.46615  1.0000
  H   H1211     1.0  0.52431  0.85813  0.50317  1.0000
  H   H1212     1.0  0.73072  0.85595  0.32365  1.0000
  S   S405      1.0  0.49505  0.92666  0.59320  1.0000
  H   H1213     1.0  0.72061  0.88705  0.62199  1.0000
  C   C1216     1.0  0.68878  0.84908  0.61046  1.0000
  C   C1217     1.0  0.48970  0.90534  0.50513  1.0000
  C   C1218     1.0  0.66756  0.96258  0.32588  1.0000
  H   H1214     1.0  0.59027  0.89140  0.64492  1.0000
  H   H1215     1.0  0.51857  0.97180  0.35474  1.0000
  N   N103      1.0  0.62372  0.96901  0.31842  1.0000
  C   C1219     1.0  0.62828  0.97104  0.63835  1.0000
  C   C1220     1.0  0.66404  0.83676  0.63273  1.0000
  H   H1216     1.0  0.65505  0.89093  0.59331  1.0000
  C   C1221     1.0  0.52268  0.96853  0.38409  1.0000
  H   H1217     1.0  0.49190  0.91380  0.51617  1.0000
  C   C1222     1.0  0.52174  0.97870  0.36663  1.0000
  H   H1218     1.0  0.72932  0.83055  0.64705  1.0000
  C   C1223     1.0  0.69554  0.86259  0.59679  1.0000
  H   H1219     1.0  0.52029  0.95376  0.38574  1.0000
  H   H1220     1.0  0.53515  0.93549  0.60005  1.0000
  H   H1221     1.0  0.71027  0.86158  0.59156  1.0000
  C   C1224     1.0  0.72437  0.90196  0.35603  1.0000
  N   N104      1.0  0.53147  0.87147  0.47597  1.0000
  C   C1225     1.0  0.53022  0.88917  0.46694  1.0000
  Fe  Fe202     1.0  0.67819  0.87745  0.33027  1.0000
  C   C1226     1.0  0.52878  0.89185  0.44761  1.0000
  H   H1222     1.0  0.55450  0.94552  0.58666  1.0000
  C   C1227     1.0  0.52882  0.87630  0.43750  1.0000
  H   H1223     1.0  0.52930  0.88185  0.50308  1.0000
  H   H1224     1.0  0.52975  0.90138  0.47474  1.0000
  H   H1225     1.0  0.64387  0.86684  0.61749  1.0000
  H   H1226     1.0  0.52771  0.87816  0.42250  1.0000
  H   H1227     1.0  0.72040  0.85410  0.38348  1.0000
  Fe  Fe203     1.0  0.49417  0.89362  0.55478  1.0000
  H   H1228     1.0  0.68852  0.88850  0.58020  1.0000
  C   C1228     1.0  0.72900  0.87371  0.62323  1.0000
  C   C1229     1.0  0.53356  0.86874  0.49613  1.0000
  C   C1230     1.0  0.70894  0.91380  0.35057  1.0000
  C   C1231     1.0  0.73395  0.84196  0.63727  1.0000
  C   C1232     1.0  0.52553  0.97778  0.39960  1.0000
  H   H1229     1.0  0.52550  0.96992  0.41325  1.0000
  C   C1233     1.0  0.51047  0.98491  0.61464  1.0000
  H   H1230     1.0  0.57506  0.87146  0.32265  1.0000
  C   C1234     1.0  0.48931  0.87542  0.63417  1.0000
  H   H1231     1.0  0.61443  0.97379  0.34677  1.0000
  C   C1235     1.0  0.48921  0.88595  0.50896  1.0000
  H   H1232     1.0  0.55232  0.97972  0.57705  1.0000
  N   N105      1.0  0.72400  0.91799  0.31930  1.0000
  H   H1233     1.0  0.49813  0.98643  0.62455  1.0000
  Fe  Fe204     1.0  0.64236  0.89531  0.68331  1.0000
  C   C1236     1.0  0.49496  0.48935  0.88699  1.0000
  S   S406      1.0  0.62335  0.89182  0.71091  1.0000
  H   H1234     1.0  0.61219  0.79519  0.78340  1.0000
  H   H1235     1.0  0.67050  0.56193  0.87148  1.0000
  C   C1237     1.0  0.62493  0.71345  0.93025  1.0000
  S   S407      1.0  0.67249  0.90257  0.67908  1.0000
  Fe  Fe205     1.0  0.59623  0.83094  0.80847  1.0000
  S   S408      1.0  0.60553  0.82232  0.83744  1.0000
  S   S409      1.0  0.61949  0.83381  0.78436  1.0000
  Fe  Fe206     1.0  0.55452  0.82957  0.82241  1.0000
  S   S410      1.0  0.56094  0.82067  0.85203  1.0000
  S   S411      1.0  0.52533  0.83851  0.81278  1.0000
  Fe  Fe207     1.0  0.58150  0.84284  0.84735  1.0000
  S   S412      1.0  0.58126  0.86177  0.87112  1.0000
  Fe  Fe208     1.0  0.58451  0.80077  0.84002  1.0000
  S   S413      1.0  0.58827  0.76906  0.85021  1.0000
  S   S414      1.0  0.57390  0.85286  0.81835  1.0000
  S   S415      1.0  0.57644  0.80831  0.81040  1.0000
  Fe  Fe209     1.0  0.58373  0.97089  0.89279  1.0000
  S   S416      1.0  0.57353  0.96836  0.92360  1.0000
  S   S417      1.0  0.59346  0.94865  0.87225  1.0000
  Fe  Fe210     1.0  0.68650  0.64482  0.89840  1.0000
  S   S418      1.0  0.66337  0.65245  0.87948  1.0000
  S   S419      1.0  0.71693  0.64251  0.88521  1.0000
  Fe  Fe211     1.0  0.65904  0.64747  0.93391  1.0000
  S   S420      1.0  0.63407  0.65522  0.91709  1.0000
  S   S421      1.0  0.65213  0.64265  0.96570  1.0000
  Fe  Fe212     1.0  0.64713  0.63224  0.89945  1.0000
  S   S422      1.0  0.63102  0.61123  0.88716  1.0000
  Fe  Fe213     1.0  0.65214  0.67484  0.89851  1.0000
  S   S423      1.0  0.64640  0.70657  0.88914  1.0000
  S   S424      1.0  0.67099  0.62334  0.91712  1.0000
  S   S425      1.0  0.67636  0.66836  0.91660  1.0000
  Fe  Fe214     1.0  0.58931  0.50874  0.91838  1.0000
  S   S426      1.0  0.60524  0.53268  0.92604  1.0000
  S   S427      1.0  0.55847  0.50735  0.92754  1.0000
  S   S428      1.0  0.64624  0.87542  0.66058  1.0000
  C   C1238     1.0  0.62006  0.68210  0.95531  1.0000
  C   C1239     1.0  0.63698  0.87294  0.79531  1.0000
  C   C1240     1.0  0.63848  0.77222  0.81663  1.0000
  C   C1241     1.0  0.61461  0.97595  0.65261  1.0000
  H   H1236     1.0  0.71536  0.60166  0.89165  1.0000
  C   C1242     1.0  0.62403  0.58937  0.89814  1.0000
  C   C1243     1.0  0.61290  0.57897  0.88881  1.0000
  C   C1244     1.0  0.60724  0.56146  0.89690  1.0000
  C   C1245     1.0  0.61280  0.55406  0.91439  1.0000
  C   C1246     1.0  0.62419  0.56433  0.92356  1.0000
  C   C1247     1.0  0.62971  0.58189  0.91556  1.0000
  H   H1237     1.0  0.60846  0.58456  0.87530  1.0000
  H   H1238     1.0  0.59845  0.55380  0.88967  1.0000
  H   H1239     1.0  0.62876  0.55866  0.93700  1.0000
  H   H1240     1.0  0.63843  0.58960  0.92284  1.0000
  C   C1248     1.0  0.61259  0.90145  0.78025  1.0000
  H   H1241     1.0  0.58898  0.74183  0.82253  1.0000
  H   H1242     1.0  0.72168  0.61588  0.83514  1.0000
  H   H1243     1.0  0.68179  0.66697  0.97023  1.0000
  H   H1244     1.0  0.66921  0.70320  0.94136  1.0000
  C   C1249     1.0  0.56290  0.54412  0.96248  1.0000
  H   H1245     1.0  0.63967  0.79904  0.80033  1.0000
  C   C1250     1.0  0.60302  0.73764  0.81543  1.0000
  H   H1246     1.0  0.61849  0.66969  0.96506  1.0000
  C   C1251     1.0  0.50264  0.94654  0.88625  1.0000
  C   C1252     1.0  0.60425  0.75218  0.86199  1.0000
  C   C1253     1.0  0.60019  0.73326  0.86491  1.0000
  C   C1254     1.0  0.61280  0.71914  0.87312  1.0000
  C   C1255     1.0  0.62976  0.72370  0.87861  1.0000
  C   C1256     1.0  0.63374  0.74265  0.87587  1.0000
  C   C1257     1.0  0.62114  0.75677  0.86765  1.0000
  H   H1247     1.0  0.58718  0.72944  0.86070  1.0000
  H   H1248     1.0  0.60939  0.70472  0.87513  1.0000
  H   H1249     1.0  0.64675  0.74647  0.88008  1.0000
  H   H1250     1.0  0.62456  0.77119  0.86558  1.0000
  C   C1258     1.0  0.58406  0.88613  0.87089  1.0000
  C   C1259     1.0  0.58054  0.89470  0.88779  1.0000
  C   C1260     1.0  0.58313  0.91381  0.88847  1.0000
  C   C1261     1.0  0.58948  0.92458  0.87224  1.0000
  C   C1262     1.0  0.59292  0.91604  0.85531  1.0000
  C   C1263     1.0  0.59009  0.89698  0.85458  1.0000
  H   H1251     1.0  0.57602  0.88639  0.90051  1.0000
  H   H1252     1.0  0.58073  0.92001  0.90167  1.0000
  H   H1253     1.0  0.59795  0.92420  0.84269  1.0000
  H   H1254     1.0  0.59294  0.89058  0.84153  1.0000
  C   C1264     1.0  0.51527  0.94861  0.87024  1.0000
  C   C1265     1.0  0.50457  0.82666  0.81623  1.0000
  C   C1266     1.0  0.50369  0.80926  0.82671  1.0000
  H   H1255     1.0  0.59374  0.96672  0.96593  1.0000
  H   H1256     1.0  0.51621  0.80218  0.83226  1.0000
  H   H1257     1.0  0.64859  0.68384  0.96052  1.0000
  H   H1258     1.0  0.59509  0.76682  0.79103  1.0000
  H   H1259     1.0  0.65555  0.87968  0.77085  1.0000
  C   C1267     1.0  0.62192  0.87422  0.73016  1.0000
  C   C1268     1.0  0.63674  0.86062  0.73376  1.0000
  C   C1269     1.0  0.63558  0.84814  0.75020  1.0000
  C   C1270     1.0  0.61959  0.84901  0.76322  1.0000
  C   C1271     1.0  0.60466  0.86242  0.75949  1.0000
  C   C1272     1.0  0.60588  0.87498  0.74313  1.0000
  H   H1260     1.0  0.64923  0.85992  0.72404  1.0000
  H   H1261     1.0  0.64724  0.83785  0.75292  1.0000
  H   H1262     1.0  0.59226  0.86327  0.76931  1.0000
  H   H1263     1.0  0.59433  0.88545  0.74053  1.0000
  N   N106      1.0  0.61355  0.75421  0.81104  1.0000
  C   C1273     1.0  0.71236  0.58843  0.84331  1.0000
  H   H1264     1.0  0.57999  0.50085  0.96580  1.0000
  C   C1274     1.0  0.60753  0.76805  0.79799  1.0000
  C   C1275     1.0  0.73159  0.62306  0.87704  1.0000
  C   C1276     1.0  0.60019  0.57525  0.96791  1.0000
  C   C1277     1.0  0.66743  0.57736  0.87161  1.0000
  H   H1265     1.0  0.60123  0.73120  0.80243  1.0000
  C   C1278     1.0  0.69439  0.61735  0.85064  1.0000
  H   H1266     1.0  0.66551  0.58073  0.88646  1.0000
  S   S429      1.0  0.67285  0.95489  0.65116  1.0000
  H   H1267     1.0  0.55292  0.55406  0.95478  1.0000
  H   H1268     1.0  0.60964  0.58387  0.95893  1.0000
  C   C1279     1.0  0.61937  0.87701  0.80476  1.0000
  C   C1280     1.0  0.61706  0.78417  0.79370  1.0000
  S   S430      1.0  0.53314  0.49116  0.88609  1.0000
  C   C1281     1.0  0.68034  0.60694  0.86013  1.0000
  H   H1269     1.0  0.72509  0.58105  0.83721  1.0000
  H   H1270     1.0  0.49978  0.94281  0.91643  1.0000
  C   C1282     1.0  0.65275  0.97687  0.67742  1.0000
  C   C1283     1.0  0.57653  0.49818  0.98067  1.0000
  H   H1271     1.0  0.64675  0.96423  0.68362  1.0000
  N   N107      1.0  0.62979  0.89717  0.77093  1.0000
  N   N108      1.0  0.63952  0.70537  0.93993  1.0000
  H   H1272     1.0  0.62324  0.91261  0.74515  1.0000
  H   H1273     1.0  0.69987  0.56324  0.85416  1.0000
  H   H1274     1.0  0.54820  0.98480  0.95641  1.0000
  H   H1275     1.0  0.55579  0.94499  0.89022  1.0000
  N   N109      1.0  0.68233  0.58776  0.86127  1.0000
  H   H1276     1.0  0.53406  0.94172  0.91894  1.0000
  H   H1277     1.0  0.54026  0.95534  0.84231  1.0000
  C   C1284     1.0  0.69810  0.57845  0.85307  1.0000
  H   H1278     1.0  0.59648  0.71172  0.92410  1.0000
  S   S431      1.0  0.52044  0.98374  0.92964  1.0000
  C   C1285     1.0  0.49420  0.84095  0.85856  1.0000
  H   H1279     1.0  0.64638  0.86142  0.80079  1.0000
  C   C1286     1.0  0.54735  0.94970  0.85494  1.0000
  H   H1280     1.0  0.66098  0.71819  0.92209  1.0000
  H   H1281     1.0  0.59327  0.89447  0.80440  1.0000
  H   H1282     1.0  0.50897  0.83742  0.86043  1.0000
  H   H1283     1.0  0.58729  0.56662  0.94495  1.0000
  C   C1287     1.0  0.63252  0.78633  0.80322  1.0000
  C   C1288     1.0  0.63547  0.90815  0.75336  1.0000
  H   H1284     1.0  0.60291  0.91248  0.77438  1.0000
  H   H1285     1.0  0.64559  0.89966  0.74413  1.0000
  H   H1286     1.0  0.64200  0.92074  0.75631  1.0000
  C   C1289     1.0  0.50975  0.49388  0.89658  1.0000
  H   H1287     1.0  0.73717  0.57522  0.88030  1.0000
  C   C1290     1.0  0.58750  0.56551  0.96007  1.0000
  H   H1288     1.0  0.50982  0.95093  0.85663  1.0000
  H   H1289     1.0  0.61021  0.72680  0.82502  1.0000
  C   C1291     1.0  0.66607  0.97599  0.66191  1.0000
  H   H1290     1.0  0.62676  0.72565  0.92030  1.0000
  H   H1291     1.0  0.65392  0.58146  0.86538  1.0000
  C   C1292     1.0  0.52867  0.94325  0.90529  1.0000
  C   C1293     1.0  0.62887  0.75608  0.82028  1.0000
  C   C1294     1.0  0.54088  0.94528  0.88900  1.0000
  C   C1295     1.0  0.48814  0.83563  0.80909  1.0000
  C   C1296     1.0  0.65754  0.71360  0.93716  1.0000
  C   C1297     1.0  0.60707  0.89137  0.79723  1.0000
  H   H1292     1.0  0.61515  0.86881  0.81773  1.0000
  H   H1293     1.0  0.49882  0.86680  0.84174  1.0000
  C   C1298     1.0  0.63716  0.69012  0.95261  1.0000
  C   C1299     1.0  0.71045  0.60800  0.84212  1.0000
  H   H1294     1.0  0.65029  0.77387  0.82434  1.0000
  N   N110      1.0  0.53413  0.94803  0.87177  1.0000
  C   C1300     1.0  0.60533  0.68983  0.94499  1.0000
  S   S432      1.0  0.63194  0.92017  0.66392  1.0000
  H   H1295     1.0  0.63346  0.74529  0.83089  1.0000
  C   C1301     1.0  0.64201  0.88324  0.77832  1.0000
  Fe  Fe215     1.0  0.66215  0.92590  0.65817  1.0000
  H   H1296     1.0  0.48871  0.84903  0.80087  1.0000
  H   H1297     1.0  0.69306  0.63256  0.85029  1.0000
  H   H1298     1.0  0.51687  0.50352  0.92202  1.0000
  C   C1302     1.0  0.60772  0.70565  0.93240  1.0000
  C   C1303     1.0  0.50568  0.49990  0.91452  1.0000
  Fe  Fe216     1.0  0.55794  0.48976  0.90357  1.0000
  S   S433      1.0  0.58837  0.49307  0.89278  1.0000
  H   H1299     1.0  0.55799  0.95944  0.85669  1.0000
  H   H1300     1.0  0.55482  0.93574  0.85251  1.0000
  H   H1301     1.0  0.66786  0.61425  0.86672  1.0000
  H   H1302     1.0  0.57109  0.53501  0.95237  1.0000
  H   H1303     1.0  0.65693  0.72585  0.94548  1.0000
  C   C1304     1.0  0.72782  0.60449  0.88249  1.0000
  H   H1304     1.0  0.60710  0.96516  0.66091  1.0000
  C   C1305     1.0  0.59529  0.97525  0.97711  1.0000
  C   C1306     1.0  0.50944  0.94384  0.90387  1.0000
  H   H1305     1.0  0.59215  0.68346  0.94662  1.0000
  H   H1306     1.0  0.55475  0.53490  0.97290  1.0000
  Fe  Fe217     1.0  0.67594  0.88421  0.65492  1.0000
  N   N111      1.0  0.57569  0.55446  0.97125  1.0000
  C   C1307     1.0  0.67550  0.66224  0.98395  1.0000
  C   C1308     1.0  0.48847  0.85751  0.84807  1.0000
  H   H1307     1.0  0.54450  0.96125  0.98391  1.0000
  Fe  Fe218     1.0  0.79795  0.37847  0.14672  1.0000
  S   S434      1.0  0.82574  0.36383  0.15461  1.0000
  S   S435      1.0  0.78106  0.36547  0.12642  1.0000
  Fe  Fe219     1.0  0.80687  0.41552  0.16171  1.0000
  S   S436      1.0  0.83507  0.40334  0.17013  1.0000
  S   S437      1.0  0.79384  0.44522  0.16640  1.0000
  Fe  Fe220     1.0  0.83785  0.39055  0.14241  1.0000
  S   S438      1.0  0.86445  0.39153  0.12254  1.0000
  Fe  Fe221     1.0  0.82070  0.37766  0.18181  1.0000
  S   S439      1.0  0.82254  0.36302  0.21182  1.0000
  S   S440      1.0  0.81074  0.40457  0.13330  1.0000
  S   S441      1.0  0.79187  0.39056  0.17470  1.0000
  C   C1309     1.0  0.98487  0.38087  0.01049  1.0000
  C   C1310     1.0  0.93707  0.36704  0.28721  1.0000
  N   N112      1.0  0.81186  0.41800  0.21745  1.0000
  C   C1311     1.0  0.90771  0.46248  0.00648  1.0000
  C   C1312     1.0  0.74774  0.35124  0.14312  1.0000
  Fe  Fe222     1.0  0.88262  0.42767  0.99556  1.0000
  Fe  Fe223     1.0  0.88280  0.38754  0.01248  1.0000
  S   S442      1.0  0.86784  0.37235  0.03815  1.0000
  S   S443      1.0  0.90258  0.40969  0.01311  1.0000
  C   C1313     1.0  0.81480  0.34330  0.09131  1.0000
  C   C1314     1.0  0.84252  0.40992  0.22795  1.0000
  S   S444      1.0  0.88129  0.34181  0.27457  1.0000
  H   H1308     1.0  0.91167  0.44867  0.00185  1.0000
  H   H1309     1.0  0.94205  0.31292  0.26092  1.0000
  H   H1310     1.0  0.81937  0.39308  0.23474  1.0000
  H   H1311     1.0  0.81193  0.34068  0.06222  1.0000
  H   H1312     1.0  0.80765  0.44449  0.20156  1.0000
  H   H1313     1.0  0.78368  0.41812  0.22930  1.0000
  C   C1315     1.0  0.88881  0.46940  0.00854  1.0000
  H   H1314     1.0  0.79212  0.39804  0.21649  1.0000
  C   C1316     1.0  0.81744  0.43462  0.20882  1.0000
  C   C1317     1.0  0.83933  0.35694  0.22885  1.0000
  C   C1318     1.0  0.85804  0.36117  0.22559  1.0000
  C   C1319     1.0  0.87053  0.35646  0.23970  1.0000
  C   C1320     1.0  0.86465  0.34740  0.25733  1.0000
  C   C1321     1.0  0.84592  0.34325  0.26059  1.0000
  C   C1322     1.0  0.83343  0.34800  0.24650  1.0000
  H   H1315     1.0  0.86293  0.36799  0.21217  1.0000
  H   H1316     1.0  0.88493  0.35975  0.23687  1.0000
  H   H1317     1.0  0.84105  0.33630  0.27396  1.0000
  H   H1318     1.0  0.81905  0.34461  0.24931  1.0000
  C   C1323     1.0  0.80580  0.46581  0.16589  1.0000
  H   H1319     1.0  0.88712  0.43842  0.09456  1.0000
  C   C1324     1.0  0.82538  0.46507  0.16460  1.0000
  H   H1320     1.0  0.75213  0.35397  0.15643  1.0000
  H   H1321     1.0  0.83365  0.45178  0.16322  1.0000
  C   C1325     1.0  0.86655  0.38087  0.06049  1.0000
  C   C1326     1.0  0.84931  0.38193  0.07158  1.0000
  C   C1327     1.0  0.84838  0.38553  0.09053  1.0000
  C   C1328     1.0  0.86474  0.38809  0.09853  1.0000
  C   C1329     1.0  0.88185  0.38779  0.08724  1.0000
  C   C1330     1.0  0.88275  0.38428  0.06828  1.0000
  H   H1322     1.0  0.83668  0.37941  0.06564  1.0000
  H   H1323     1.0  0.83508  0.38592  0.09903  1.0000
  H   H1324     1.0  0.89456  0.38986  0.09329  1.0000
  H   H1325     1.0  0.89614  0.38333  0.05993  1.0000
  H   H1326     1.0  0.92655  0.31019  0.28219  1.0000
  H   H1327     1.0  0.86139  0.32748  0.12210  1.0000
  C   C1331     1.0  0.75300  0.35193  0.10946  1.0000
  C   C1332     1.0  0.82746  0.34350  0.10476  1.0000
  H   H1328     1.0  0.91922  0.32569  0.26261  1.0000
  H   H1329     1.0  0.86292  0.42968  0.21880  1.0000
  C   C1333     1.0  0.75905  0.35574  0.12660  1.0000
  H   H1330     1.0  0.76152  0.35536  0.09655  1.0000
  H   H1331     1.0  0.86816  0.33638  0.07799  1.0000
  H   H1332     1.0  0.78655  0.42033  0.20394  1.0000
  C   C1334     1.0  0.96701  0.39796  0.98618  1.0000
  C   C1335     1.0  0.79256  0.41344  0.21683  1.0000
  H   H1333     1.0  0.84642  0.33615  0.05371  1.0000
  H   H1334     1.0  0.85214  0.40005  0.23549  1.0000
  H   H1335     1.0  0.84570  0.43685  0.02921  1.0000
  N   N113      1.0  0.84639  0.34112  0.09993  1.0000
  H   H1336     1.0  0.91683  0.35603  0.27240  1.0000
  C   C1336     1.0  0.83588  0.43906  0.20911  1.0000
  H   H1337     1.0  0.84801  0.41236  0.03783  1.0000
  H   H1338     1.0  0.84944  0.48075  0.16455  1.0000
  C   C1337     1.0  0.82397  0.40597  0.22738  1.0000
  C   C1338     1.0  0.95616  0.33168  0.28614  1.0000
  H   H1339     1.0  0.83404  0.42650  0.07884  1.0000
  H   H1340     1.0  0.82863  0.42787  0.04679  1.0000
  N   N114      1.0  0.85532  0.43093  0.05634  1.0000
  C   C1339     1.0  0.84826  0.43005  0.07476  1.0000
  C   C1340     1.0  0.87351  0.43466  0.05137  1.0000
  C   C1341     1.0  0.85951  0.43302  0.08873  1.0000
  C   C1342     1.0  0.88518  0.43762  0.06497  1.0000
  C   C1343     1.0  0.87812  0.43669  0.08378  1.0000
  C   C1344     1.0  0.84380  0.42680  0.04189  1.0000
  C   C1345     1.0  0.85317  0.33796  0.08196  1.0000
  H   H1341     1.0  0.87914  0.43518  0.03683  1.0000
  H   H1342     1.0  0.85405  0.43168  0.10338  1.0000
  H   H1343     1.0  0.89967  0.44031  0.06090  1.0000
  H   H1344     1.0  0.95513  0.37961  0.00875  1.0000
  H   H1345     1.0  0.82198  0.34591  0.11901  1.0000
  H   H1346     1.0  0.93630  0.46885  0.00690  1.0000
  S   S445      1.0  0.86213  0.40637  0.99656  1.0000
  H   H1347     1.0  0.96347  0.31772  0.28622  1.0000
  C   C1346     1.0  0.93146  0.32038  0.27052  1.0000
  H   H1348     1.0  0.95902  0.37360  0.30310  1.0000
  C   C1347     1.0  0.96770  0.38571  0.00252  1.0000
  H   H1349     1.0  0.79981  0.34558  0.09520  1.0000
  H   H1350     1.0  0.92918  0.38066  0.28793  1.0000
  C   C1348     1.0  0.82159  0.34049  0.07287  1.0000
  C   C1349     1.0  0.85944  0.34150  0.11421  1.0000
  C   C1350     1.0  0.92167  0.47392  0.00930  1.0000
  C   C1351     1.0  0.93015  0.35303  0.27840  1.0000
  H   H1351     1.0  0.87328  0.34577  0.10784  1.0000
  H   H1352     1.0  0.85410  0.35206  0.12418  1.0000
  C   C1352     1.0  0.96348  0.34533  0.29508  1.0000
  Fe  Fe224     1.0  0.88394  0.32767  0.30482  1.0000
  C   C1353     1.0  0.84853  0.42652  0.21861  1.0000
  C   C1354     1.0  0.95376  0.36307  0.29573  1.0000
  N   N115      1.0  0.93959  0.33554  0.27818  1.0000
  H   H1353     1.0  0.84028  0.45212  0.20191  1.0000
  C   C1355     1.0  0.84090  0.33775  0.06813  1.0000
  Fe  Fe225     1.0  0.91575  0.40024  0.98548  1.0000
  H   H1354     1.0  0.97628  0.34194  0.30198  1.0000
  C   C1356     1.0  0.83430  0.48155  0.16535  1.0000
  C   C1357     1.0  0.79532  0.48326  0.16768  1.0000
  S   S446      1.0  0.87132  0.45655  0.00251  1.0000
  H   H1355     1.0  0.98535  0.37107  0.02289  1.0000
  H   H1356     1.0  0.98722  0.28951  0.30981  1.0000
  H   H1357     1.0  0.78017  0.48400  0.16877  1.0000
  S   S447      1.0  0.89447  0.29721  0.31150  1.0000
  S   S448      1.0  0.89750  0.37612  0.98600  1.0000
  Fe  Fe226     1.0  0.82594  0.15383  0.56193  1.0000
  S   S449      1.0  0.82060  0.13124  0.58561  1.0000
  S   S450      1.0  0.83392  0.14424  0.53245  1.0000
  Fe  Fe227     1.0  0.82899  0.18343  0.58995  1.0000
  S   S451      1.0  0.82394  0.16264  0.61481  1.0000
  S   S452      1.0  0.83435  0.21410  0.59204  1.0000
  Fe  Fe228     1.0  0.84385  0.14268  0.59845  1.0000
  S   S453      1.0  0.86770  0.12489  0.61203  1.0000
  Fe  Fe229     1.0  0.80090  0.15317  0.59970  1.0000
  S   S454      1.0  0.77153  0.15209  0.61621  1.0000
  S   S455      1.0  0.85009  0.16400  0.57447  1.0000
  S   S456      1.0  0.80502  0.17532  0.57523  1.0000
  Fe  Fe230     1.0  0.81386  0.15514  0.42375  1.0000
  S   S457      1.0  0.81061  0.12667  0.41451  1.0000
  S   S458      1.0  0.80150  0.16415  0.45243  1.0000
  Fe  Fe231     1.0  0.83225  0.16971  0.38532  1.0000
  S   S459      1.0  0.82984  0.14209  0.37363  1.0000
  S   S460      1.0  0.84941  0.19027  0.36568  1.0000
  Fe  Fe232     1.0  0.80041  0.14205  0.38799  1.0000
  S   S461      1.0  0.77557  0.13629  0.37137  1.0000
  Fe  Fe233     1.0  0.84011  0.12886  0.40070  1.0000
  S   S462      1.0  0.86234  0.10389  0.40166  1.0000
  S   S463      1.0  0.80219  0.17076  0.39790  1.0000
  S   S464      1.0  0.84393  0.15612  0.41181  1.0000
  H   H1358     1.0  0.92281  0.45059  0.51050  1.0000
  C   C1358     1.0  0.97782  0.00172  0.40413  1.0000
  C   C1359     1.0  0.88368  0.07467  0.59549  1.0000
  S   S465      1.0  0.97904  0.05677  0.57379  1.0000
  H   H1359     1.0  0.90534  0.22102  0.63977  1.0000
  Fe  Fe234     1.0  0.97187  0.08651  0.40674  1.0000
  S   S466      1.0  0.95088  0.10807  0.39295  1.0000
  S   S467      1.0  0.96518  0.05796  0.41985  1.0000
  Fe  Fe235     1.0  0.97328  0.08740  0.57862  1.0000
  H   H1360     1.0  0.75212  0.13412  0.44257  1.0000
  S   S468      1.0  0.94752  0.10508  0.56836  1.0000
  C   C1360     1.0  0.85538  0.34522  0.57838  1.0000
  H   H1361     1.0  0.86783  0.12077  0.35500  1.0000
  H   H1362     1.0  0.86162  0.15558  0.35100  1.0000
  C   C1361     1.0  0.75441  0.18888  0.39934  1.0000
  H   H1363     1.0  0.98064  0.07111  0.53486  1.0000
  C   C1362     1.0  0.78228  0.20552  0.60908  1.0000
  S   S469      1.0  0.90845  0.29401  0.63178  1.0000
  S   S470      1.0  0.88608  0.34565  0.61768  1.0000
  Fe  Fe236     1.0  0.88927  0.33655  0.34553  1.0000
  S   S471      1.0  0.90031  0.30705  0.35441  1.0000
  S   S472      1.0  0.88638  0.36147  0.36319  1.0000
  Fe  Fe237     1.0  0.87693  0.29847  0.33934  1.0000
  S   S473      1.0  0.85644  0.27919  0.35638  1.0000
  S   S474      1.0  0.86492  0.32840  0.33176  1.0000
  Fe  Fe238     1.0  0.92910  0.39970  0.47704  1.0000
  S   S475      1.0  0.92326  0.36954  0.48022  1.0000
  S   S476      1.0  0.95637  0.40892  0.46285  1.0000
  Fe  Fe239     1.0  0.89144  0.41295  0.49506  1.0000
  S   S477      1.0  0.88185  0.38362  0.49980  1.0000
  S   S478      1.0  0.87751  0.43893  0.50811  1.0000
  Fe  Fe240     1.0  0.91046  0.37473  0.50925  1.0000
  S   S479      1.0  0.91858  0.35189  0.53207  1.0000
  Fe  Fe241     1.0  0.89522  0.38000  0.47032  1.0000
  S   S480      1.0  0.88428  0.36030  0.45173  1.0000
  S   S481      1.0  0.91897  0.40398  0.50680  1.0000
  S   S482      1.0  0.90209  0.41015  0.46488  1.0000
  H   H1364     1.0  0.87882  0.45667  0.46972  1.0000
  H   H1365     1.0  0.95052  0.42191  0.50026  1.0000
  C   C1363     1.0  0.88905  0.36090  0.38752  1.0000
  C   C1364     1.0  0.88641  0.37784  0.39606  1.0000
  C   C1365     1.0  0.88635  0.37796  0.41562  1.0000
  C   C1366     1.0  0.88875  0.36108  0.42694  1.0000
  C   C1367     1.0  0.89204  0.34416  0.41835  1.0000
  C   C1368     1.0  0.89236  0.34406  0.39872  1.0000
  H   H1366     1.0  0.88388  0.39094  0.38753  1.0000
  H   H1367     1.0  0.88359  0.39106  0.42202  1.0000
  H   H1368     1.0  0.89384  0.33102  0.42698  1.0000
  H   H1369     1.0  0.89450  0.33093  0.39236  1.0000
  C   C1369     1.0  0.96506  0.31967  0.34001  1.0000
  H   H1370     1.0  0.95115  0.32469  0.34565  1.0000
  C   C1370     1.0  0.89759  0.34840  0.59472  1.0000
  C   C1371     1.0  0.89307  0.36476  0.58304  1.0000
  C   C1372     1.0  0.89996  0.36641  0.56396  1.0000
  C   C1373     1.0  0.91144  0.35165  0.55639  1.0000
  C   C1374     1.0  0.91658  0.33561  0.56825  1.0000
  C   C1375     1.0  0.90976  0.33400  0.58733  1.0000
  H   H1371     1.0  0.88378  0.37604  0.58866  1.0000
  H   H1372     1.0  0.89601  0.37890  0.55503  1.0000
  H   H1373     1.0  0.92559  0.32418  0.56255  1.0000
  H   H1374     1.0  0.91349  0.32140  0.59616  1.0000
  H   H1375     1.0  0.89647  0.15858  0.62883  1.0000
  H   H1376     1.0  0.76128  0.14988  0.45649  1.0000
  H   H1377     1.0  0.87841  0.06068  0.59556  1.0000
  H   H1378     1.0  0.96714  0.36591  0.47171  1.0000
  H   H1379     1.0  0.91720  0.44162  0.48101  1.0000
  C   C1376     1.0  0.76239  0.14470  0.44234  1.0000
  C   C1377     1.0  0.85137  0.21500  0.36378  1.0000
  C   C1378     1.0  0.86503  0.22261  0.35055  1.0000
  C   C1379     1.0  0.86699  0.24210  0.34823  1.0000
  C   C1380     1.0  0.85514  0.25434  0.35902  1.0000
  C   C1381     1.0  0.84151  0.24674  0.37231  1.0000
  C   C1382     1.0  0.83967  0.22722  0.37475  1.0000
  H   H1380     1.0  0.87412  0.21338  0.34191  1.0000
  C   C1383     1.0  0.92614  0.46425  0.50389  1.0000
  H   H1381     1.0  0.83220  0.25602  0.38070  1.0000
  H   H1382     1.0  0.82907  0.22167  0.38495  1.0000
  C   C1384     1.0  0.88689  0.10553  0.39986  1.0000
  C   C1385     1.0  0.89900  0.08893  0.40043  1.0000
  C   C1386     1.0  0.91859  0.08951  0.39918  1.0000
  C   C1387     1.0  0.92631  0.10675  0.39696  1.0000
  C   C1388     1.0  0.91421  0.12339  0.39652  1.0000
  C   C1389     1.0  0.89458  0.12281  0.39814  1.0000
  H   H1383     1.0  0.89318  0.07550  0.40178  1.0000
  H   H1384     1.0  0.92772  0.07660  0.39932  1.0000
  H   H1385     1.0  0.92004  0.13682  0.39474  1.0000
  H   H1386     1.0  0.88542  0.13571  0.39772  1.0000
  C   C1390     1.0  0.84608  0.22435  0.60861  1.0000
  C   C1391     1.0  0.85144  0.21431  0.62518  1.0000
  C   C1392     1.0  0.86031  0.22319  0.63805  1.0000
  C   C1393     1.0  0.86418  0.24212  0.63450  1.0000
  C   C1394     1.0  0.84982  0.24330  0.60511  1.0000
  H   H1387     1.0  0.84866  0.19975  0.62813  1.0000
  H   H1388     1.0  0.95586  0.36707  0.50529  1.0000
  C   C1395     1.0  0.81096  0.15870  0.47449  1.0000
  C   C1396     1.0  0.82721  0.14657  0.47661  1.0000
  C   C1397     1.0  0.83398  0.14239  0.49442  1.0000
  C   C1398     1.0  0.82471  0.15033  0.51034  1.0000
  C   C1399     1.0  0.80849  0.16253  0.50820  1.0000
  C   C1400     1.0  0.80166  0.16663  0.49040  1.0000
  H   H1389     1.0  0.83451  0.14035  0.46454  1.0000
  H   H1390     1.0  0.84651  0.13293  0.49587  1.0000
  H   H1391     1.0  0.80118  0.16874  0.52027  1.0000
  H   H1392     1.0  0.78909  0.17604  0.48896  1.0000
  C   C1401     1.0  0.89051  0.12111  0.60042  1.0000
  C   C1402     1.0  0.89476  0.12837  0.58190  1.0000
  C   C1403     1.0  0.91258  0.12391  0.57261  1.0000
  C   C1404     1.0  0.92627  0.11197  0.58159  1.0000
  C   C1405     1.0  0.92223  0.10511  0.60028  1.0000
  C   C1406     1.0  0.90445  0.10978  0.60967  1.0000
  H   H1393     1.0  0.88419  0.13699  0.57452  1.0000
  H   H1394     1.0  0.91559  0.12932  0.55816  1.0000
  H   H1395     1.0  0.93267  0.09596  0.60738  1.0000
  H   H1396     1.0  0.90133  0.10416  0.62404  1.0000
  C   C1407     1.0  0.97473  0.05983  0.49126  1.0000
  H   H1397     1.0  0.93932  0.44630  0.46805  1.0000
  C   C1408     1.0  0.75614  0.12301  0.36842  1.0000
  C   C1409     1.0  0.80105  0.21984  0.62926  1.0000
  H   H1398     1.0  0.76947  0.21549  0.60939  1.0000
  C   C1410     1.0  0.75910  0.19278  0.41679  1.0000
  H   H1399     1.0  0.97942  0.00729  0.59530  1.0000
  H   H1400     1.0  0.86176  0.26664  0.61491  1.0000
  S   S483      1.0  0.94758  0.29709  0.31924  1.0000
  C   C1411     1.0  0.87982  0.46232  0.49834  1.0000
  H   H1401     1.0  0.88035  0.47272  0.52530  1.0000
  C   C1412     1.0  0.88415  0.19260  0.59497  1.0000
  C   C1413     1.0  0.75466  0.15611  0.41063  1.0000
  H   H1402     1.0  0.76786  0.11338  0.60706  1.0000
  H   H1403     1.0  0.87749  0.24766  0.33792  1.0000
  C   C1414     1.0  0.89794  0.12157  0.35283  1.0000
  H   H1404     1.0  0.77824  0.19143  0.60689  1.0000
  H   H1405     1.0  0.93819  0.12483  0.33538  1.0000
  C   C1415     1.0  0.90911  0.15183  0.34932  1.0000
  H   H1406     1.0  0.96544  0.12113  0.50451  1.0000
  H   H1407     1.0  0.76556  0.18120  0.44425  1.0000
  C   C1416     1.0  0.90256  0.18765  0.62732  1.0000
  H   H1408     1.0  0.87986  0.16319  0.60010  1.0000
  H   H1409     1.0  0.85592  0.37414  0.53797  1.0000
  H   H1410     1.0  0.79214  0.20985  0.59685  1.0000
  C   C1417     1.0  0.87587  0.14909  0.35111  1.0000
  H   H1411     1.0  0.84322  0.37347  0.57147  1.0000
  H   H1412     1.0  0.86843  0.07461  0.44466  1.0000
  C   C1418     1.0  0.85846  0.36161  0.54744  1.0000
  C   C1419     1.0  0.75557  0.11788  0.61601  1.0000
  C   C1420     1.0  0.97904  0.11386  0.50073  1.0000
  H   H1413     1.0  0.84570  0.25124  0.59238  1.0000
  Fe  Fe242     1.0  0.97576  0.06709  0.44535  1.0000
  C   C1421     1.0  0.88019  0.48630  0.47197  1.0000
  C   C1422     1.0  0.78902  0.19077  0.64026  1.0000
  H   H1414     1.0  0.91750  0.45815  0.46084  1.0000
  H   H1415     1.0  0.97301  0.10991  0.47275  1.0000
  S   S484      1.0  0.98061  0.09605  0.43293  1.0000
  H   H1416     1.0  0.94047  0.13159  0.35855  1.0000
  H   H1417     1.0  0.92421  0.21952  0.62112  1.0000
  H   H1418     1.0  0.75308  0.20000  0.38808  1.0000
  C   C1423     1.0  0.98542  0.29989  0.31988  1.0000
  H   H1419     1.0  0.90287  0.23452  0.61796  1.0000
  C   C1424     1.0  0.75210  0.17045  0.39625  1.0000
  C   C1425     1.0  0.80941  0.22010  0.64592  1.0000
  H   H1420     1.0  0.77679  0.13779  0.43970  1.0000
  C   C1426     1.0  0.74124  0.10568  0.62120  1.0000
  C   C1427     1.0  0.98371  0.06466  0.52185  1.0000
  C   C1428     1.0  0.75398  0.13580  0.62239  1.0000
  N   N116      1.0  0.92729  0.46778  0.48481  1.0000
  C   C1429     1.0  0.88065  0.47641  0.51034  1.0000
  H   H1421     1.0  0.97747  0.37463  0.52762  1.0000
  C   C1430     1.0  0.92874  0.47835  0.51518  1.0000
  H   H1422     1.0  0.93280  0.10928  0.35610  1.0000
  H   H1423     1.0  0.88792  0.17550  0.34828  1.0000
  H   H1424     1.0  0.89020  0.22131  0.59384  1.0000
  N   N117      1.0  0.91335  0.09905  0.44756  1.0000
  C   C1431     1.0  0.89661  0.10958  0.44561  1.0000
  C   C1432     1.0  0.91431  0.07988  0.44848  1.0000
  C   C1433     1.0  0.88017  0.10092  0.44500  1.0000
  C   C1434     1.0  0.89815  0.07076  0.44771  1.0000
  C   C1435     1.0  0.88100  0.08140  0.44592  1.0000
  C   C1436     1.0  0.93058  0.10829  0.44759  1.0000
  H   H1425     1.0  0.89593  0.12479  0.44407  1.0000
  H   H1426     1.0  0.92766  0.07155  0.44960  1.0000
  H   H1427     1.0  0.86700  0.10931  0.44291  1.0000
  H   H1428     1.0  0.89903  0.05558  0.44813  1.0000
  C   C1437     1.0  0.89513  0.17236  0.62112  1.0000
  H   H1429     1.0  0.93805  0.10909  0.43330  1.0000
  H   H1430     1.0  0.92758  0.12274  0.45197  1.0000
  H   H1431     1.0  0.94002  0.10030  0.45746  1.0000
  H   H1432     1.0  0.87210  0.29050  0.39107  1.0000
  C   C1438     1.0  0.86288  0.09493  0.57562  1.0000
  C   C1439     1.0  0.85918  0.10544  0.55878  1.0000
  C   C1440     1.0  0.87342  0.10689  0.54423  1.0000
  H   H1433     1.0  0.85183  0.09431  0.58705  1.0000
  H   H1434     1.0  0.84540  0.11261  0.55703  1.0000
  H   H1435     1.0  0.87067  0.11542  0.53130  1.0000
  C   C1441     1.0  0.89186  0.20755  0.60148  1.0000
  N   N118      1.0  0.85392  0.31370  0.39990  1.0000
  C   C1442     1.0  0.85033  0.32302  0.38297  1.0000
  C   C1443     1.0  0.85264  0.32320  0.41559  1.0000
  C   C1444     1.0  0.84572  0.34244  0.38133  1.0000
  C   C1445     1.0  0.84786  0.34261  0.41450  1.0000
  C   C1446     1.0  0.84458  0.35228  0.39720  1.0000
  C   C1447     1.0  0.85940  0.29345  0.40089  1.0000
  H   H1436     1.0  0.85140  0.31547  0.37057  1.0000
  H   H1437     1.0  0.85587  0.31596  0.42897  1.0000
  H   H1438     1.0  0.84382  0.34991  0.36770  1.0000
  H   H1439     1.0  0.84775  0.35025  0.42678  1.0000
  H   H1440     1.0  0.84190  0.36745  0.39594  1.0000
  H   H1441     1.0  0.86265  0.28756  0.41516  1.0000
  H   H1442     1.0  0.84795  0.28596  0.39665  1.0000
  H   H1443     1.0  0.76147  0.20696  0.41921  1.0000
  H   H1444     1.0  0.95724  0.07533  0.51158  1.0000
  N   N119      1.0  0.88029  0.08593  0.57783  1.0000
  N   N120      1.0  0.91250  0.13269  0.35102  1.0000
  C   C1448     1.0  0.87940  0.12960  0.35306  1.0000
  C   C1449     1.0  0.97034  0.36928  0.50046  1.0000
  C   C1450     1.0  0.85892  0.25210  0.61788  1.0000
  C   C1451     1.0  0.76141  0.17811  0.43091  1.0000
  H   H1445     1.0  0.92747  0.47562  0.53031  1.0000
  H   H1446     1.0  0.85035  0.34527  0.59311  1.0000
  H   H1447     1.0  0.89887  0.07278  0.59762  1.0000
  N   N121      1.0  0.90070  0.20500  0.61762  1.0000
  N   N122      1.0  0.75906  0.16007  0.42775  1.0000
  H   H1448     1.0  0.97298  0.42946  0.52155  1.0000
  C   C1452     1.0  0.97045  0.06712  0.50863  1.0000
  C   C1453     1.0  0.89109  0.09749  0.54651  1.0000
  H   H1449     1.0  0.87648  0.08184  0.60760  1.0000
  H   H1450     1.0  0.97000  0.01528  0.40198  1.0000
  C   C1454     1.0  0.96515  0.42161  0.49548  1.0000
  H   H1451     1.0  0.88214  0.31840  0.54853  1.0000
  S   S485      1.0  0.95949  0.06562  0.47366  1.0000
  C   C1455     1.0  0.85134  0.36124  0.56623  1.0000
  H   H1452     1.0  0.87555  0.34636  0.52660  1.0000
  C   C1456     1.0  0.88582  0.17492  0.60489  1.0000
  H   H1453     1.0  0.88440  0.30628  0.58113  1.0000
  C   C1457     1.0  0.87023  0.31330  0.58488  1.0000
  H   H1454     1.0  0.90972  0.18560  0.64001  1.0000
  H   H1455     1.0  0.90816  0.07993  0.56525  1.0000
  H   H1456     1.0  0.92062  0.16066  0.34795  1.0000
  Fe  Fe243     1.0  0.89373  0.32160  0.63953  1.0000
  C   C1458     1.0  0.74977  0.10900  0.38187  1.0000
  H   H1457     1.0  0.87659  0.19482  0.58251  1.0000
  H   H1458     1.0  0.75355  0.14173  0.40782  1.0000
  C   C1459     1.0  0.87315  0.33023  0.55356  1.0000
  C   C1460     1.0  0.86940  0.34600  0.54103  1.0000
  H   H1459     1.0  0.85951  0.30332  0.58449  1.0000
  C   C1461     1.0  0.89426  0.08687  0.56346  1.0000
  H   H1460     1.0  0.90238  0.09869  0.53541  1.0000
  N   N123      1.0  0.86633  0.33007  0.57201  1.0000
  H   H1461     1.0  0.80287  0.23121  0.61831  1.0000
  C   C1462     1.0  0.97788  0.42610  0.50747  1.0000
  C   C1463     1.0  0.89074  0.16031  0.34941  1.0000
  C   C1464     1.0  0.90875  0.22073  0.62437  1.0000
  H   H1462     1.0  0.87022  0.31704  0.59951  1.0000
  C   C1465     1.0  0.97149  0.41675  0.47745  1.0000
  C   C1466     1.0  0.93192  0.12418  0.35013  1.0000
  C   C1467     1.0  0.97684  0.36849  0.48155  1.0000
  C   C1468     1.0  0.87984  0.46732  0.47907  1.0000
  H   H1463     1.0  0.75686  0.10560  0.39446  1.0000
  N   N124      1.0  0.79117  0.20521  0.62654  1.0000
  H   H1464     1.0  0.90054  0.10640  0.35456  1.0000
  S   S486      1.0  0.90745  0.33817  0.31828  1.0000
  C   C1469     1.0  0.92527  0.45272  0.47310  1.0000
  Fe  Fe244     1.0  0.91699  0.30811  0.32615  1.0000
  H   H1465     1.0  0.78101  0.17925  0.63824  1.0000
  C   C1470     1.0  0.96719  0.30616  0.32711  1.0000
  C   C1471     1.0  0.74657  0.12690  0.35209  1.0000
  C   C1472     1.0  0.98327  0.10760  0.48295  1.0000
  H   H1466     1.0  0.74906  0.16713  0.38255  1.0000
  H   H1467     1.0  0.75123  0.13760  0.34148  1.0000
  H   H1468     1.0  0.81755  0.23158  0.64782  1.0000
  H   H1469     1.0  0.97913  0.33677  0.35610  1.0000
  S   S487      1.0  0.98561  0.08372  0.60637  1.0000
  C   C1473     1.0  0.98249  0.37345  0.51303  1.0000
  H   H1470     1.0  0.74276  0.09191  0.61611  1.0000
  C   C1474     1.0  0.93122  0.48506  0.47648  1.0000
  C   C1475     1.0  0.98098  0.32653  0.34588  1.0000
  H   H1471     1.0  0.86433  0.21529  0.65084  1.0000
  Fe  Fe245     1.0  0.80680  0.36862  0.83730  1.0000
  S   S488      1.0  0.83682  0.35808  0.82869  1.0000
  S   S489      1.0  0.78840  0.34547  0.85013  1.0000
  Fe  Fe246     1.0  0.81478  0.40962  0.82554  1.0000
  S   S490      1.0  0.84491  0.40182  0.81588  1.0000
  S   S491      1.0  0.80081  0.43939  0.82684  1.0000
  Fe  Fe247     1.0  0.83472  0.37791  0.80251  1.0000
  S   S492      1.0  0.84274  0.37224  0.77138  1.0000
  Fe  Fe248     1.0  0.84448  0.38266  0.84263  1.0000
  S   S493      1.0  0.86829  0.38138  0.86139  1.0000
  S   S494      1.0  0.80416  0.38726  0.81048  1.0000
  S   S495      1.0  0.81490  0.39158  0.85299  1.0000
  Fe  Fe249     1.0  0.87787  0.39692  0.97007  1.0000
  S   S496      1.0  0.85768  0.39261  0.94855  1.0000
  H   H1472     1.0  0.84232  0.41939  0.85954  1.0000
  Fe  Fe250     1.0  0.89096  0.31024  0.68201  1.0000
  S   S497      1.0  0.90559  0.28162  0.67661  1.0000
  S   S498      1.0  0.88495  0.31480  0.71371  1.0000
  H   H1473     1.0  0.95809  0.32568  0.73133  1.0000
  C   C1476     1.0  0.79737  0.19047  0.65701  1.0000
  Fe  Fe251     1.0  0.88736  0.28090  0.65306  1.0000
  H   H1474     1.0  0.81413  0.47304  0.87092  1.0000
  H   H1475     1.0  0.85552  0.34820  0.91597  1.0000
  S   S499      1.0  0.91230  0.32518  0.66221  1.0000
  C   C1477     1.0  0.75658  0.32912  0.86547  1.0000
  C   C1478     1.0  0.82638  0.44510  0.86626  1.0000
  C   C1479     1.0  0.93418  0.29647  0.71065  1.0000
  H   H1476     1.0  0.82696  0.35998  0.93473  1.0000
  C   C1480     1.0  0.84395  0.47224  0.86360  1.0000
  H   H1477     1.0  0.87320  0.46739  0.85469  1.0000
  C   C1481     1.0  0.84117  0.47632  0.81810  1.0000
  N   N125      1.0  0.85943  0.44218  0.85671  1.0000
  H   H1478     1.0  0.94602  0.47092  0.96034  1.0000
  H   H1479     1.0  0.91998  0.29407  0.70846  1.0000
  C   C1482     1.0  0.95573  0.31415  0.72352  1.0000
  C   C1483     1.0  0.85494  0.35617  0.75565  1.0000
  C   C1484     1.0  0.85424  0.36035  0.73615  1.0000
  C   C1485     1.0  0.86324  0.34801  0.72315  1.0000
  C   C1486     1.0  0.87313  0.33114  0.72939  1.0000
  C   C1487     1.0  0.87380  0.32693  0.74890  1.0000
  C   C1488     1.0  0.86481  0.33928  0.76191  1.0000
  H   H1480     1.0  0.84671  0.37332  0.73101  1.0000
  H   H1481     1.0  0.86253  0.35160  0.70828  1.0000
  H   H1482     1.0  0.88135  0.31397  0.75403  1.0000
  H   H1483     1.0  0.86558  0.33573  0.77677  1.0000
  C   C1489     1.0  0.83200  0.45979  0.81888  1.0000
  C   C1490     1.0  0.81277  0.46010  0.82442  1.0000
  H   H1484     1.0  0.81311  0.43889  0.86863  1.0000
  H   H1485     1.0  0.83981  0.44681  0.81525  1.0000
  C   C1491     1.0  0.97324  0.31394  0.66788  1.0000
  C   C1492     1.0  0.86545  0.38636  0.88521  1.0000
  C   C1493     1.0  0.88110  0.38375  0.89570  1.0000
  C   C1494     1.0  0.87920  0.38642  0.91497  1.0000
  C   C1495     1.0  0.86157  0.39172  0.92392  1.0000
  C   C1496     1.0  0.84605  0.39488  0.91327  1.0000
  C   C1497     1.0  0.84794  0.39222  0.89404  1.0000
  H   H1486     1.0  0.89474  0.37927  0.88901  1.0000
  H   H1487     1.0  0.89126  0.38386  0.92301  1.0000
  H   H1488     1.0  0.83235  0.39899  0.92008  1.0000
  H   H1489     1.0  0.83574  0.39423  0.88626  1.0000
  H   H1490     1.0  0.92547  0.32036  0.72616  1.0000
  C   C1498     1.0  0.80283  0.47719  0.82887  1.0000
  C   C1499     1.0  0.76422  0.34608  0.85878  1.0000
  H   H1491     1.0  0.98638  0.33395  0.68138  1.0000
  H   H1492     1.0  0.76550  0.31609  0.86552  1.0000
  H   H1493     1.0  0.75805  0.37597  0.85381  1.0000
  C   C1500     1.0  0.91694  0.46672  0.95957  1.0000
  H   H1494     1.0  0.95927  0.32094  0.67015  1.0000
  N   N126      1.0  0.77998  0.34994  0.79798  1.0000
  C   C1501     1.0  0.79019  0.33390  0.80435  1.0000
  C   C1502     1.0  0.78589  0.35985  0.78158  1.0000
  C   C1503     1.0  0.80659  0.32719  0.79403  1.0000
  C   C1504     1.0  0.80216  0.35347  0.77087  1.0000
  C   C1505     1.0  0.81253  0.33703  0.77714  1.0000
  C   C1506     1.0  0.76330  0.35728  0.80935  1.0000
  H   H1495     1.0  0.78583  0.32634  0.81763  1.0000
  H   H1496     1.0  0.77830  0.37300  0.77691  1.0000
  C   C1507     1.0  0.94933  0.28492  0.70336  1.0000
  H   H1497     1.0  0.80718  0.36160  0.75813  1.0000
  H   H1498     1.0  0.82541  0.33223  0.76913  1.0000
  H   H1499     1.0  0.85606  0.47589  0.81392  1.0000
  H   H1500     1.0  0.75238  0.36401  0.80039  1.0000
  H   H1501     1.0  0.88163  0.42182  0.86365  1.0000
  C   C1508     1.0  0.98355  0.40560  0.97819  1.0000
  H   H1502     1.0  0.78794  0.47762  0.83308  1.0000
  H   H1503     1.0  0.81482  0.31464  0.79923  1.0000
  H   H1504     1.0  0.79617  0.36334  0.92113  1.0000
  H   H1505     1.0  0.98318  0.41502  0.96552  1.0000
  C   C1509     1.0  0.80790  0.35319  0.89489  1.0000
  H   H1506     1.0  0.86016  0.32218  0.88366  1.0000
  H   H1507     1.0  0.82349  0.34282  0.87049  1.0000
  C   C1510     1.0  0.85824  0.33770  0.88120  1.0000
  C   C1511     1.0  0.86018  0.46092  0.85820  1.0000
  C   C1512     1.0  0.82598  0.35596  0.92074  1.0000
  C   C1513     1.0  0.84214  0.34929  0.91002  1.0000
  Fe  Fe252     1.0  0.92560  0.29664  0.65577  1.0000
  H   H1508     1.0  0.87081  0.34375  0.88504  1.0000
  C   C1514     1.0  0.97585  0.29721  0.65922  1.0000
  C   C1515     1.0  0.82434  0.34656  0.88458  1.0000
  N   N127      1.0  0.84121  0.34496  0.89209  1.0000
  N   N128      1.0  0.97055  0.30266  0.71644  1.0000
  C   C1516     1.0  0.93732  0.31123  0.72071  1.0000
  H   H1509     1.0  0.81435  0.20514  0.67265  1.0000
  C   C1517     1.0  0.80878  0.35799  0.91305  1.0000
  C   C1518     1.0  0.80766  0.20524  0.65980  1.0000
  C   C1519     1.0  0.96754  0.28814  0.70653  1.0000
  H   H1510     1.0  0.85752  0.34181  0.86596  1.0000
  C   C1520     1.0  0.84288  0.43420  0.86085  1.0000
  S   S500      1.0  0.89674  0.42018  0.96794  1.0000
  H   H1511     1.0  0.76724  0.36777  0.81821  1.0000
  C   C1521     1.0  0.75245  0.36278  0.85883  1.0000
  H   H1512     1.0  0.91980  0.45207  0.95692  1.0000
  H   H1513     1.0  0.97923  0.27926  0.70052  1.0000
  H   H1514     1.0  0.88702  0.46652  0.96060  1.0000
  H   H1515     1.0  0.75695  0.34593  0.81880  1.0000
  H   H1516     1.0  0.94700  0.27379  0.69496  1.0000
  H   H1517     1.0  0.79459  0.35462  0.88874  1.0000
  S   S501      1.0  0.87130  0.30851  0.65970  1.0000
  H   H1518     1.0  0.88774  0.43877  0.84419  1.0000
  C   C1522     1.0  0.82695  0.46426  0.86756  1.0000
  H   H1519     1.0  0.87349  0.42054  0.84101  1.0000
  H   H1520     1.0  0.79590  0.17880  0.66767  1.0000
  C   C1523     1.0  0.93170  0.47733  0.96148  1.0000
  C   C1524     1.0  0.87646  0.43033  0.85114  1.0000
  C   C1525     1.0  0.89847  0.47499  0.96163  1.0000
  S   S502      1.0  0.94627  0.40341  0.97452  1.0000
  S   S503      1.0  0.95677  0.28627  0.65278  1.0000
  S   S504      1.0  0.87605  0.25223  0.65106  1.0000
  C   C1526     1.0  0.79770  0.59406  0.23070  1.0000
  H   H1521     1.0  0.78539  0.58908  0.22519  1.0000
  S   S505      1.0  0.93397  0.50779  0.01395  1.0000
  C   C1527     1.0  0.93798  0.64652  0.26321  1.0000
  Fe  Fe253     1.0  0.89298  0.64548  0.30150  1.0000
  S   S506      1.0  0.88361  0.64148  0.27209  1.0000
  S   S507      1.0  0.91101  0.66955  0.30129  1.0000
  Fe  Fe254     1.0  0.80950  0.59072  0.16088  1.0000
  S   S508      1.0  0.83591  0.60484  0.16308  1.0000
  S   S509      1.0  0.78309  0.61128  0.15748  1.0000
  Fe  Fe255     1.0  0.82946  0.55108  0.16797  1.0000
  S   S510      1.0  0.85648  0.56317  0.17112  1.0000
  S   S511      1.0  0.83606  0.51910  0.16854  1.0000
  Fe  Fe256     1.0  0.84033  0.58462  0.18867  1.0000
  S   S512      1.0  0.84866  0.58958  0.21822  1.0000
  Fe  Fe257     1.0  0.85021  0.58226  0.14545  1.0000
  S   S513      1.0  0.87535  0.58309  0.12336  1.0000
  S   S514      1.0  0.81332  0.57126  0.18730  1.0000
  S   S515      1.0  0.82376  0.56962  0.14155  1.0000
  H   H1522     1.0  0.90749  0.59940  0.24432  1.0000
  S   S516      1.0  0.89238  0.54655  0.00194  1.0000
  C   C1528     1.0  0.89775  0.49862  0.01738  1.0000
  Fe  Fe258     1.0  0.89858  0.57287  0.01339  1.0000
  S   S517      1.0  0.87638  0.58587  0.03442  1.0000
  S   S518      1.0  0.92835  0.56249  0.01835  1.0000
  N   N129      1.0  0.80300  0.61173  0.22054  1.0000
  C   C1529     1.0  0.85735  0.53937  0.08472  1.0000
  H   H1523     1.0  0.78875  0.60841  0.19665  1.0000
  C   C1530     1.0  0.87513  0.58315  0.09873  1.0000
  C   C1531     1.0  0.85861  0.58715  0.08985  1.0000
  C   C1532     1.0  0.85923  0.58771  0.07017  1.0000
  C   C1533     1.0  0.87622  0.58375  0.05921  1.0000
  C   C1534     1.0  0.89267  0.57921  0.06814  1.0000
  C   C1535     1.0  0.89215  0.57925  0.08776  1.0000
  H   H1524     1.0  0.84545  0.59028  0.09809  1.0000
  H   H1525     1.0  0.84645  0.59137  0.06339  1.0000
  H   H1526     1.0  0.90585  0.57612  0.05992  1.0000
  H   H1527     1.0  0.90501  0.57620  0.09452  1.0000
  C   C1536     1.0  0.80426  0.49980  0.16818  1.0000
  C   C1537     1.0  0.82383  0.49901  0.16715  1.0000
  H   H1528     1.0  0.81930  0.61785  0.24191  1.0000
  H   H1529     1.0  0.79599  0.51307  0.16965  1.0000
  C   C1538     1.0  0.92215  0.62169  0.25231  1.0000
  C   C1539     1.0  0.91805  0.62599  0.00172  1.0000
  H   H1530     1.0  0.97176  0.56358  0.01191  1.0000
  C   C1540     1.0  0.76313  0.61221  0.14438  1.0000
  C   C1541     1.0  0.75973  0.59750  0.13422  1.0000
  H   H1531     1.0  0.76949  0.58505  0.13405  1.0000
  C   C1542     1.0  0.87374  0.62674  0.25747  1.0000
  C   C1543     1.0  0.86724  0.60935  0.26419  1.0000
  C   C1544     1.0  0.85987  0.59823  0.25199  1.0000
  C   C1545     1.0  0.85894  0.60407  0.23277  1.0000
  C   C1546     1.0  0.86561  0.62138  0.22601  1.0000
  C   C1547     1.0  0.87284  0.63258  0.23824  1.0000
  H   H1532     1.0  0.86780  0.60449  0.27885  1.0000
  H   H1533     1.0  0.85479  0.58493  0.25755  1.0000
  H   H1534     1.0  0.86512  0.62620  0.21134  1.0000
  H   H1535     1.0  0.87782  0.64591  0.23271  1.0000
  C   C1548     1.0  0.91667  0.49227  0.01407  1.0000
  C   C1549     1.0  0.88168  0.53127  0.13654  1.0000
  H   H1536     1.0  0.75011  0.66204  0.09965  1.0000
  H   H1537     1.0  0.83079  0.53980  0.10160  1.0000
  C   C1550     1.0  0.90608  0.62152  0.01767  1.0000
  H   H1538     1.0  0.79406  0.59579  0.24582  1.0000
  H   H1539     1.0  0.94991  0.61818  0.28750  1.0000
  H   H1540     1.0  0.80966  0.58307  0.22924  1.0000
  C   C1551     1.0  0.94075  0.61408  0.27786  1.0000
  C   C1552     1.0  0.84593  0.53811  0.10158  1.0000
  H   H1541     1.0  0.91985  0.57598  0.26892  1.0000
  H   H1542     1.0  0.94777  0.64952  0.25059  1.0000
  C   C1553     1.0  0.91712  0.60328  0.25363  1.0000
  C   C1554     1.0  0.75015  0.62826  0.14440  1.0000
  C   C1555     1.0  0.74272  0.64029  0.08394  1.0000
  C   C1556     1.0  0.85418  0.53504  0.11851  1.0000
  C   C1557     1.0  0.93599  0.59555  0.27962  1.0000
  H   H1543     1.0  0.85118  0.54221  0.07148  1.0000
  H   H1544     1.0  0.93884  0.60732  0.04800  1.0000
  C   C1558     1.0  0.92399  0.59019  0.26749  1.0000
  H   H1545     1.0  0.92492  0.65614  0.26238  1.0000
  C   C1559     1.0  0.79750  0.61696  0.20299  1.0000
  C   C1560     1.0  0.81435  0.62238  0.22830  1.0000
  C   C1561     1.0  0.80332  0.63328  0.19278  1.0000
  C   C1562     1.0  0.82046  0.63876  0.21847  1.0000
  C   C1563     1.0  0.81494  0.64419  0.20057  1.0000
  H   H1546     1.0  0.79909  0.63719  0.17876  1.0000
  H   H1547     1.0  0.82983  0.64688  0.22456  1.0000
  H   H1548     1.0  0.81984  0.65667  0.19264  1.0000
  H   H1549     1.0  0.89488  0.52186  0.13577  1.0000
  H   H1550     1.0  0.88473  0.54525  0.14016  1.0000
  S   S519      1.0  0.96187  0.64255  0.31150  1.0000
  H   H1551     1.0  0.87209  0.52512  0.14812  1.0000
  H   H1552     1.0  0.89383  0.51230  0.02216  1.0000
  H   H1553     1.0  0.91619  0.63198  0.24196  1.0000
  Fe  Fe259     1.0  0.92261  0.53717  0.00476  1.0000
  H   H1554     1.0  0.89965  0.53413  0.10235  1.0000
  H   H1555     1.0  0.94459  0.64967  0.27571  1.0000
  H   H1556     1.0  0.94133  0.58556  0.29055  1.0000
  C   C1564     1.0  0.87679  0.53749  0.08500  1.0000
  N   N130      1.0  0.87326  0.53337  0.11867  1.0000
  C   C1565     1.0  0.88456  0.53473  0.10221  1.0000
  H   H1557     1.0  0.84523  0.53420  0.13153  1.0000
  H   H1558     1.0  0.88576  0.53888  0.07197  1.0000
  N   N131      1.0  0.93350  0.62696  0.26459  1.0000
  N   N132      1.0  0.94474  0.61688  0.01918  1.0000
  H   H1559     1.0  0.94665  0.62678  0.99015  1.0000
  C   C1566     1.0  0.93746  0.62363  0.00274  1.0000
  H   H1560     1.0  0.89098  0.62280  0.01703  1.0000
  Fe  Fe260     1.0  0.93545  0.57436  0.98872  1.0000
  H   H1561     1.0  0.97267  0.49115  0.99893  1.0000
  C   C1567     1.0  0.93310  0.61266  0.03495  1.0000
  C   C1568     1.0  0.91362  0.61499  0.03444  1.0000
  C   C1569     1.0  0.74349  0.59877  0.12448  1.0000
  H   H1562     1.0  0.90434  0.61154  0.04688  1.0000
  H   H1563     1.0  0.74100  0.58719  0.11685  1.0000
  H   H1564     1.0  0.74285  0.61374  0.05362  1.0000
  C   C1570     1.0  0.97897  0.51928  0.98890  1.0000
  H   H1565     1.0  0.75256  0.63974  0.15222  1.0000
  H   H1566     1.0  0.75066  0.62929  0.09203  1.0000
  C   C1571     1.0  0.98311  0.49989  0.99167  1.0000
  H   H1567     1.0  0.96536  0.52569  0.99399  1.0000
  C   C1572     1.0  0.74255  0.65884  0.08824  1.0000
  C   C1573     1.0  0.98440  0.56888  0.00483  1.0000
  C   C1574     1.0  0.96510  0.61446  0.02023  1.0000
  H   H1568     1.0  0.86920  0.49253  0.01643  1.0000
  H   H1569     1.0  0.91235  0.63081  0.98852  1.0000
  C   C1575     1.0  0.98167  0.65432  0.31493  1.0000
  H   H1570     1.0  0.75073  0.90262  0.31427  1.0000
  H   H1571     1.0  0.96944  0.60001  0.02621  1.0000
  H   H1572     1.0  0.96935  0.62478  0.02909  1.0000
  C   C1576     1.0  0.98338  0.58158  0.98886  1.0000
  H   H1573     1.0  0.97294  0.61639  0.00614  1.0000
  C   C1577     1.0  0.88383  0.48727  0.01449  1.0000
  S   S520      1.0  0.91346  0.62593  0.31742  1.0000
  S   S521      1.0  0.90585  0.58692  0.98436  1.0000
  Fe  Fe261     1.0  0.90635  0.63379  0.63560  1.0000
  S   S522      1.0  0.91740  0.61316  0.61376  1.0000
  S   S523      1.0  0.91157  0.66439  0.63243  1.0000
  H   H1574     1.0  0.86812  0.56557  0.45564  1.0000
  C   C1578     1.0  0.86779  0.55650  0.41043  1.0000
  Fe  Fe262     1.0  0.89771  0.63536  0.34402  1.0000
  S   S524      1.0  0.89276  0.61182  0.36736  1.0000
  S   S525      1.0  0.91581  0.65870  0.34612  1.0000
  Fe  Fe263     1.0  0.89420  0.54583  0.48757  1.0000
  S   S526      1.0  0.88332  0.57611  0.49003  1.0000
  S   S527      1.0  0.87982  0.52423  0.47472  1.0000
  Fe  Fe264     1.0  0.93255  0.55236  0.49628  1.0000
  S   S528      1.0  0.92559  0.58305  0.49906  1.0000
  S   S529      1.0  0.96126  0.53741  0.49797  1.0000
  Fe  Fe265     1.0  0.89933  0.57441  0.51568  1.0000
  S   S530      1.0  0.88583  0.59158  0.53951  1.0000
  Fe  Fe266     1.0  0.91013  0.58333  0.47342  1.0000
  S   S531      1.0  0.91044  0.60931  0.45246  1.0000
  S   S532      1.0  0.90750  0.54322  0.51477  1.0000
  S   S533      1.0  0.91985  0.55343  0.46908  1.0000
  Fe  Fe267     1.0  0.82059  0.81874  0.42010  1.0000
  S   S534      1.0  0.82167  0.84173  0.39628  1.0000
  S   S535      1.0  0.81267  0.82993  0.44873  1.0000
  Fe  Fe268     1.0  0.83316  0.78819  0.39348  1.0000
  S   S536      1.0  0.83508  0.80913  0.36829  1.0000
  S   S537      1.0  0.84034  0.75643  0.39328  1.0000
  Fe  Fe269     1.0  0.84903  0.82618  0.38658  1.0000
  S   S538      1.0  0.87477  0.84128  0.37512  1.0000
  Fe  Fe270     1.0  0.80725  0.82302  0.38014  1.0000
  S   S539      1.0  0.78542  0.83300  0.35870  1.0000
  S   S540      1.0  0.84881  0.80444  0.41115  1.0000
  S   S541      1.0  0.80450  0.80079  0.40453  1.0000
  Fe  Fe271     1.0  0.80627  0.83215  0.59057  1.0000
  S   S542      1.0  0.81158  0.80135  0.58510  1.0000
  S   S543      1.0  0.77926  0.85136  0.59867  1.0000
  Fe  Fe272     1.0  0.84738  0.83983  0.57689  1.0000
  S   S544      1.0  0.85515  0.81013  0.57054  1.0000
  S   S545      1.0  0.86705  0.86297  0.56815  1.0000
  Fe  Fe273     1.0  0.82771  0.81150  0.55793  1.0000
  S   S546      1.0  0.82966  0.79590  0.53151  1.0000
  Fe  Fe274     1.0  0.83894  0.80163  0.59790  1.0000
  S   S547      1.0  0.85571  0.77973  0.61663  1.0000
  S   S548      1.0  0.82082  0.84196  0.56239  1.0000
  S   S549      1.0  0.83274  0.83173  0.60523  1.0000
  Fe  Fe275     1.0  0.96457  0.87733  0.41624  1.0000
  S   S550      1.0  0.96581  0.89944  0.43602  1.0000
  S   S551      1.0  0.94009  0.85888  0.42268  1.0000
  Fe  Fe276     1.0  0.96732  0.89421  0.58839  1.0000
  S   S552      1.0  0.96780  0.92543  0.58091  1.0000
  S   S553      1.0  0.94290  0.87767  0.60125  1.0000
  H   H1575     1.0  0.75082  0.88237  0.60215  1.0000
  S   S554      1.0  0.98255  0.93254  0.52774  1.0000
  H   H1576     1.0  0.96617  0.67948  0.32396  1.0000
  H   H1577     1.0  0.95670  0.61794  0.52657  1.0000
  H   H1578     1.0  0.80401  0.74402  0.38596  1.0000
  C   C1579     1.0  0.91210  0.62862  0.51516  1.0000
  C   C1580     1.0  0.88878  0.86583  0.57684  1.0000
  C   C1581     1.0  0.89988  0.87971  0.56779  1.0000
  C   C1582     1.0  0.91668  0.88323  0.57480  1.0000
  C   C1583     1.0  0.92247  0.87305  0.59111  1.0000
  C   C1584     1.0  0.91135  0.85918  0.60016  1.0000
  C   C1585     1.0  0.89467  0.85549  0.59303  1.0000
  H   H1579     1.0  0.89533  0.88794  0.55539  1.0000
  H   H1580     1.0  0.92486  0.89417  0.56790  1.0000
  H   H1581     1.0  0.91567  0.85126  0.61282  1.0000
  H   H1582     1.0  0.88627  0.84484  0.60021  1.0000
  C   C1586     1.0  0.76136  0.84216  0.35722  1.0000
  C   C1587     1.0  0.75453  0.84613  0.33942  1.0000
  H   H1583     1.0  0.84702  0.60408  0.45079  1.0000
  Fe  Fe277     1.0  0.97856  0.91678  0.41104  1.0000
  H   H1584     1.0  0.94795  0.89909  0.53998  1.0000
  H   H1585     1.0  0.85390  0.59895  0.62139  1.0000
  H   H1586     1.0  0.93214  0.48784  0.46136  1.0000
  C   C1588     1.0  0.81755  0.82003  0.47158  1.0000
  C   C1589     1.0  0.81260  0.83092  0.48682  1.0000
  C   C1590     1.0  0.81651  0.82392  0.50515  1.0000
  C   C1591     1.0  0.82520  0.80577  0.50853  1.0000
  C   C1592     1.0  0.83018  0.79488  0.49329  1.0000
  C   C1593     1.0  0.82652  0.80200  0.47489  1.0000
  H   H1587     1.0  0.80563  0.84488  0.48445  1.0000
  H   H1588     1.0  0.81252  0.83244  0.51671  1.0000
  H   H1589     1.0  0.83687  0.78081  0.49573  1.0000
  H   H1590     1.0  0.83044  0.79344  0.46335  1.0000
  C   C1594     1.0  0.89354  0.84514  0.38808  1.0000
  C   C1595     1.0  0.89568  0.83612  0.40597  1.0000
  C   C1596     1.0  0.91040  0.84006  0.41604  1.0000
  C   C1597     1.0  0.92303  0.85319  0.40849  1.0000
  C   C1598     1.0  0.92106  0.86200  0.39050  1.0000
  C   C1599     1.0  0.90646  0.85790  0.38033  1.0000
  H   H1591     1.0  0.88591  0.82625  0.41213  1.0000
  H   H1592     1.0  0.91182  0.83314  0.42993  1.0000
  H   H1593     1.0  0.93065  0.87213  0.38450  1.0000
  H   H1594     1.0  0.90497  0.86490  0.36648  1.0000
  H   H1595     1.0  0.93712  0.51314  0.48072  1.0000
  C   C1600     1.0  0.76056  0.79531  0.37899  1.0000
  S   S555      1.0  0.87568  0.65344  0.32816  1.0000
  H   H1596     1.0  0.94616  0.90985  0.48036  1.0000
  H   H1597     1.0  0.95490  0.56546  0.52415  1.0000
  C   C1601     1.0  0.93416  0.62729  0.48762  1.0000
  C   C1602     1.0  0.88102  0.50038  0.48398  1.0000
  C   C1603     1.0  0.80689  0.75922  0.35866  1.0000
  C   C1604     1.0  0.86170  0.60204  0.44444  1.0000
  C   C1605     1.0  0.86120  0.59544  0.63392  1.0000
  H   H1598     1.0  0.76398  0.84386  0.32702  1.0000
  H   H1599     1.0  0.85696  0.77366  0.55733  1.0000
  N   N133      1.0  0.86382  0.58633  0.43269  1.0000
  C   C1606     1.0  0.95001  0.90066  0.49252  1.0000
  C   C1607     1.0  0.87206  0.72078  0.34801  1.0000
  C   C1608     1.0  0.86638  0.71256  0.36584  1.0000
  C   C1609     1.0  0.85650  0.72365  0.37940  1.0000
  C   C1610     1.0  0.85227  0.74309  0.37539  1.0000
  C   C1611     1.0  0.85781  0.75131  0.35751  1.0000
  C   C1612     1.0  0.86758  0.74020  0.34393  1.0000
  H   H1600     1.0  0.86975  0.69768  0.36926  1.0000
  H   H1601     1.0  0.85228  0.71711  0.39317  1.0000
  H   H1602     1.0  0.85470  0.76624  0.35417  1.0000
  C   C1613     1.0  0.90051  0.61143  0.39005  1.0000
  C   C1614     1.0  0.90102  0.62793  0.39866  1.0000
  C   C1615     1.0  0.90461  0.62703  0.41763  1.0000
  C   C1616     1.0  0.90768  0.60965  0.42821  1.0000
  C   C1617     1.0  0.90780  0.59315  0.41943  1.0000
  C   C1618     1.0  0.90433  0.59407  0.40043  1.0000
  H   H1603     1.0  0.89804  0.64140  0.39089  1.0000
  H   H1604     1.0  0.90457  0.63989  0.42425  1.0000
  H   H1605     1.0  0.91035  0.57968  0.42733  1.0000
  H   H1606     1.0  0.90420  0.58123  0.39383  1.0000
  C   C1619     1.0  0.85862  0.71542  0.63188  1.0000
  C   C1620     1.0  0.84244  0.72508  0.62477  1.0000
  C   C1621     1.0  0.84126  0.74470  0.61994  1.0000
  C   C1622     1.0  0.85616  0.75498  0.62248  1.0000
  C   C1623     1.0  0.87219  0.74537  0.62990  1.0000
  C   C1624     1.0  0.87351  0.72573  0.63440  1.0000
  H   H1607     1.0  0.82877  0.75185  0.61442  1.0000
  H   H1608     1.0  0.89054  0.75483  0.59187  1.0000
  C   C1625     1.0  0.93278  0.49602  0.50679  1.0000
  C   C1626     1.0  0.90876  0.60823  0.59262  1.0000
  C   C1627     1.0  0.89120  0.61583  0.58734  1.0000
  C   C1628     1.0  0.88447  0.61057  0.57106  1.0000
  C   C1629     1.0  0.89520  0.59778  0.55977  1.0000
  C   C1630     1.0  0.91286  0.59035  0.56492  1.0000
  C   C1631     1.0  0.91952  0.59550  0.58129  1.0000
  H   H1609     1.0  0.88272  0.62560  0.59590  1.0000
  H   H1610     1.0  0.87080  0.61642  0.56722  1.0000
  H   H1611     1.0  0.92128  0.58047  0.55644  1.0000
  H   H1612     1.0  0.93309  0.58945  0.58526  1.0000
  C   C1632     1.0  0.78311  0.76769  0.38321  1.0000
  C   C1633     1.0  0.75747  0.85375  0.61323  1.0000
  H   H1613     1.0  0.79581  0.85062  0.63466  1.0000
  H   H1614     1.0  0.87948  0.49011  0.45713  1.0000
  H   H1615     1.0  0.75958  0.82592  0.62733  1.0000
  H   H1616     1.0  0.97502  0.58904  0.53193  1.0000
  C   C1634     1.0  0.80011  0.77470  0.34723  1.0000
  C   C1635     1.0  0.97874  0.96742  0.40679  1.0000
  H   H1617     1.0  0.75138  0.88845  0.34698  1.0000
  C   C1636     1.0  0.97662  0.85388  0.50297  1.0000
  H   H1618     1.0  0.90057  0.80459  0.35276  1.0000
  C   C1637     1.0  0.96100  0.87724  0.52319  1.0000
  C   C1638     1.0  0.96007  0.88322  0.49026  1.0000
  C   C1639     1.0  0.95108  0.89464  0.52596  1.0000
  C   C1640     1.0  0.97574  0.55350  0.50404  1.0000
  C   C1641     1.0  0.94571  0.90646  0.51050  1.0000
  H   H1619     1.0  0.89365  0.74106  0.38439  1.0000
  H   H1620     1.0  0.98752  0.65466  0.36019  1.0000
  H   H1621     1.0  0.97045  0.62717  0.47664  1.0000
  N   N134      1.0  0.94866  0.62297  0.49867  1.0000
  H   H1622     1.0  0.97977  0.93700  0.48797  1.0000
  H   H1623     1.0  0.87943  0.76885  0.39992  1.0000
  C   C1642     1.0  0.88449  0.76080  0.57872  1.0000
  H   H1624     1.0  0.90934  0.74122  0.33626  1.0000
  Fe  Fe278     1.0  0.88287  0.66918  0.64785  1.0000
  N   N135      1.0  0.86355  0.85651  0.44503  1.0000
  C   C1643     1.0  0.85347  0.85908  0.42973  1.0000
  C   C1644     1.0  0.87938  0.86556  0.44520  1.0000
  C   C1645     1.0  0.85932  0.87072  0.41392  1.0000
  C   C1646     1.0  0.88555  0.87743  0.42969  1.0000
  C   C1647     1.0  0.87547  0.87994  0.41394  1.0000
  C   C1648     1.0  0.85705  0.84411  0.46128  1.0000
  H   H1625     1.0  0.84092  0.85191  0.42964  1.0000
  H   H1626     1.0  0.88756  0.86337  0.45719  1.0000
  H   H1627     1.0  0.85169  0.87214  0.40154  1.0000
  H   H1628     1.0  0.89851  0.88402  0.42957  1.0000
  H   H1629     1.0  0.88051  0.88850  0.40154  1.0000
  H   H1630     1.0  0.84346  0.85026  0.46784  1.0000
  H   H1631     1.0  0.85488  0.83017  0.45686  1.0000
  H   H1632     1.0  0.86719  0.84177  0.47211  1.0000
  C   C1649     1.0  0.92698  0.62445  0.52630  1.0000
  H   H1633     1.0  0.96515  0.86813  0.53528  1.0000
  H   H1634     1.0  0.92904  0.73987  0.35028  1.0000
  H   H1635     1.0  0.87190  0.53898  0.43614  1.0000
  C   C1650     1.0  0.91569  0.63023  0.49568  1.0000
  H   H1636     1.0  0.91794  0.58793  0.64994  1.0000
  S   S556      1.0  0.85964  0.69053  0.63679  1.0000
  C   C1651     1.0  0.73907  0.90612  0.32446  1.0000
  C   C1652     1.0  0.93400  0.49943  0.48734  1.0000
  H   H1637     1.0  0.86970  0.54489  0.40170  1.0000
  H   H1638     1.0  0.90419  0.63292  0.48683  1.0000
  C   C1653     1.0  0.87998  0.58807  0.63250  1.0000
  C   C1654     1.0  0.89914  0.79062  0.35974  1.0000
  H   H1639     1.0  0.96386  0.87903  0.47621  1.0000
  H   H1640     1.0  0.91430  0.57344  0.63210  1.0000
  N   N136      1.0  0.86859  0.75085  0.57517  1.0000
  C   C1655     1.0  0.86716  0.73274  0.58267  1.0000
  C   C1656     1.0  0.85560  0.75953  0.56378  1.0000
  C   C1657     1.0  0.85198  0.72314  0.57950  1.0000
  C   C1658     1.0  0.84020  0.75039  0.56038  1.0000
  C   C1659     1.0  0.83833  0.73212  0.56842  1.0000
  H   H1641     1.0  0.96934  0.60328  0.48699  1.0000
  H   H1642     1.0  0.87741  0.72581  0.59174  1.0000
  H   H1643     1.0  0.89551  0.76012  0.56680  1.0000
  H   H1644     1.0  0.85058  0.70903  0.58612  1.0000
  H   H1645     1.0  0.82975  0.75759  0.55165  1.0000
  H   H1646     1.0  0.82630  0.72499  0.56614  1.0000
  H   H1647     1.0  0.77697  0.76517  0.39752  1.0000
  H   H1648     1.0  0.83022  0.86196  0.65022  1.0000
  H   H1649     1.0  0.87190  0.74673  0.33018  1.0000
  N   N137      1.0  0.90498  0.75707  0.36001  1.0000
  C   C1660     1.0  0.90691  0.77462  0.35116  1.0000
  C   C1661     1.0  0.89551  0.75494  0.37745  1.0000
  C   C1662     1.0  0.96887  0.56616  0.51716  1.0000
  C   C1663     1.0  0.88744  0.77063  0.38635  1.0000
  C   C1664     1.0  0.88938  0.78856  0.37744  1.0000
  C   C1665     1.0  0.91352  0.74059  0.35078  1.0000
  H   H1650     1.0  0.91445  0.77631  0.33736  1.0000
  S   S557      1.0  0.87706  0.63854  0.64951  1.0000
  H   H1651     1.0  0.87985  0.77573  0.58078  1.0000
  H   H1652     1.0  0.92428  0.62295  0.54146  1.0000
  H   H1653     1.0  0.88197  0.50601  0.51262  1.0000
  H   H1654     1.0  0.81894  0.75014  0.35366  1.0000
  H   H1655     1.0  0.75369  0.84233  0.38686  1.0000
  H   H1656     1.0  0.83291  0.88918  0.58437  1.0000
  S   S558      1.0  0.96699  0.94719  0.40505  1.0000
  H   H1657     1.0  0.80279  0.88048  0.60112  1.0000
  S   S559      1.0  0.98445  0.88596  0.56226  1.0000
  C   C1666     1.0  0.81529  0.87883  0.60859  1.0000
  H   H1658     1.0  0.80690  0.77784  0.33328  1.0000
  C   C1667     1.0  0.78468  0.78633  0.35405  1.0000
  C   C1668     1.0  0.79838  0.75568  0.37677  1.0000
  H   H1659     1.0  0.90882  0.72727  0.35812  1.0000
  H   H1660     1.0  0.88700  0.58586  0.61874  1.0000
  C   C1669     1.0  0.84849  0.88133  0.60835  1.0000
  C   C1670     1.0  0.94528  0.62159  0.51778  1.0000
  H   H1661     1.0  0.86174  0.88502  0.60103  1.0000
  H   H1662     1.0  0.88329  0.80088  0.38415  1.0000
  C   C1671     1.0  0.74882  0.84519  0.37305  1.0000
  H   H1663     1.0  0.93669  0.62772  0.47247  1.0000
  H   H1664     1.0  0.83077  0.71731  0.62288  1.0000
  N   N138      1.0  0.96576  0.87196  0.50548  1.0000
  H   H1665     1.0  0.98171  0.92821  0.36128  1.0000
  C   C1672     1.0  0.79691  0.86563  0.63652  1.0000
  H   H1666     1.0  0.96732  0.84232  0.50612  1.0000
  H   H1667     1.0  0.88600  0.71859  0.63995  1.0000
  C   C1673     1.0  0.74620  0.87099  0.61195  1.0000
  C   C1674     1.0  0.83223  0.88387  0.59905  1.0000
  C   C1675     1.0  0.86203  0.58967  0.41388  1.0000
  S   S560      1.0  0.88592  0.70793  0.33079  1.0000
  H   H1668     1.0  0.86356  0.57772  0.38741  1.0000
  C   C1676     1.0  0.96765  0.61828  0.48996  1.0000
  C   C1677     1.0  0.97995  0.67224  0.32123  1.0000
  N   N139      1.0  0.77626  0.78262  0.37177  1.0000
  H   H1669     1.0  0.86558  0.61524  0.43620  1.0000
  C   C1678     1.0  0.84777  0.87344  0.62686  1.0000
  H   H1670     1.0  0.98117  0.96246  0.36338  1.0000
  S   S561      1.0  0.97570  0.89528  0.39084  1.0000
  C   C1679     1.0  0.86911  0.55318  0.42969  1.0000
  C   C1680     1.0  0.75119  0.83926  0.62606  1.0000
  H   H1671     1.0  0.76594  0.80592  0.38677  1.0000
  N   N140      1.0  0.81460  0.87150  0.62691  1.0000
  C   C1681     1.0  0.86699  0.56834  0.44069  1.0000
  H   H1672     1.0  0.75029  0.78750  0.38849  1.0000
  H   H1673     1.0  0.98340  0.85337  0.48842  1.0000
  H   H1674     1.0  0.88374  0.75317  0.63213  1.0000
  H   H1675     1.0  0.87128  0.59941  0.45576  1.0000
  Fe  Fe279     1.0  0.89485  0.67641  0.32879  1.0000
  H   H1676     1.0  0.85975  0.60392  0.40743  1.0000
  H   H1677     1.0  0.77964  0.79849  0.34515  1.0000
  C   C1682     1.0  0.86416  0.57484  0.40244  1.0000
  C   C1683     1.0  0.98021  0.57954  0.52149  1.0000
  H   H1678     1.0  0.93852  0.92022  0.51246  1.0000
  H   H1679     1.0  0.86052  0.87086  0.63393  1.0000
  Fe  Fe280     1.0  0.98667  0.91689  0.55580  1.0000
  C   C1684     1.0  0.88162  0.49529  0.50318  1.0000
  H   H1680     1.0  0.89778  0.63008  0.52163  1.0000
  C   C1685     1.0  0.83061  0.86848  0.63596  1.0000
  H   H1681     1.0  0.93496  0.50710  0.51531  1.0000
  H   H1682     1.0  0.95396  0.98621  0.40257  1.0000
  H   H1683     1.0  0.75290  0.80291  0.36744  1.0000
  H   H1684     1.0  0.97694  0.97660  0.52576  1.0000
  H   H1685     1.0  0.98483  0.62311  0.35064  1.0000
  H   H1686     1.0  0.98334  0.97264  0.59241  1.0000
  H   H1687     1.0  0.78464  0.87400  0.63068  1.0000
  H   H1688     1.0  0.97854  0.62042  0.49927  1.0000
  N   N141      1.0  0.88945  0.58406  0.64816  1.0000
  C   C1686     1.0  0.90931  0.57695  0.64657  1.0000
  Fe  Fe281     1.0  0.93045  0.65036  0.31866  1.0000
  C   C1687     1.0  0.96876  0.98520  0.40443  1.0000
  C   C1688     1.0  0.73957  0.89810  0.34294  1.0000
  C   C1689     1.0  0.98797  0.92388  0.49138  1.0000
  C   C1690     1.0  0.76768  0.62846  0.90573  1.0000
  H   H1689     1.0  0.75384  0.62255  0.90799  1.0000
  H   H1690     1.0  0.90162  0.59631  0.77016  1.0000
  H   H1691     1.0  0.87362  0.66086  0.75464  1.0000
  H   H1692     1.0  0.75109  0.64074  0.86102  1.0000
  N   N142      1.0  0.89305  0.63846  0.74560  1.0000
  Fe  Fe282     1.0  0.88961  0.63513  0.67735  1.0000
  S   S562      1.0  0.88207  0.61374  0.70271  1.0000
  S   S563      1.0  0.89348  0.66596  0.67663  1.0000
  Fe  Fe283     1.0  0.83146  0.58404  0.80982  1.0000
  S   S564      1.0  0.81072  0.56191  0.81395  1.0000
  S   S565      1.0  0.83532  0.60570  0.78383  1.0000
  Fe  Fe284     1.0  0.84252  0.57509  0.85070  1.0000
  S   S566      1.0  0.82298  0.55238  0.85720  1.0000
  S   S567      1.0  0.86018  0.58623  0.87124  1.0000
  Fe  Fe285     1.0  0.83311  0.54347  0.82855  1.0000
  S   S568      1.0  0.84410  0.51312  0.82369  1.0000
  Fe  Fe286     1.0  0.80187  0.57248  0.84241  1.0000
  S   S569      1.0  0.77179  0.57350  0.85680  1.0000
  S   S570      1.0  0.85438  0.56505  0.82287  1.0000
  S   S571      1.0  0.82088  0.59576  0.83749  1.0000
  H   H1693     1.0  0.90730  0.63971  0.71784  1.0000
  H   H1694     1.0  0.88503  0.65296  0.72010  1.0000
  H   H1695     1.0  0.86391  0.64365  0.78510  1.0000
  N   N143      1.0  0.78298  0.61433  0.90055  1.0000
  S   S572      1.0  0.88506  0.54992  0.95097  1.0000
  H   H1696     1.0  0.76561  0.59160  0.90394  1.0000
  C   C1691     1.0  0.89792  0.64860  0.72732  1.0000
  C   C1692     1.0  0.89593  0.61071  0.76709  1.0000
  C   C1693     1.0  0.87823  0.56048  0.92891  1.0000
  C   C1694     1.0  0.88314  0.57821  0.92138  1.0000
  C   C1695     1.0  0.87750  0.58583  0.90375  1.0000
  C   C1696     1.0  0.86690  0.57587  0.89340  1.0000
  C   C1697     1.0  0.86189  0.55818  0.90098  1.0000
  C   C1698     1.0  0.86753  0.55057  0.91860  1.0000
  H   H1697     1.0  0.89136  0.58603  0.92907  1.0000
  H   H1698     1.0  0.88149  0.59950  0.89804  1.0000
  H   H1699     1.0  0.85382  0.55029  0.89321  1.0000
  H   H1700     1.0  0.86364  0.53685  0.92423  1.0000
  H   H1701     1.0  0.91171  0.56414  0.65629  1.0000
  H   H1702     1.0  0.88825  0.58437  0.67783  1.0000
  C   C1699     1.0  0.90096  0.62062  0.74987  1.0000
  S   S573      1.0  0.93188  0.54816  0.97549  1.0000
  H   H1703     1.0  0.80428  0.50667  0.83202  1.0000
  C   C1700     1.0  0.74800  0.62643  0.86529  1.0000
  H   H1704     1.0  0.76657  0.64005  0.89434  1.0000
  C   C1701     1.0  0.88267  0.61913  0.77991  1.0000
  C   C1702     1.0  0.75663  0.59292  0.86427  1.0000
  C   C1703     1.0  0.76049  0.61148  0.85899  1.0000
  S   S574      1.0  0.91872  0.62823  0.66343  1.0000
  H   H1705     1.0  0.77303  0.61431  0.84994  1.0000
  C   C1704     1.0  0.97123  0.66435  0.66524  1.0000
  C   C1705     1.0  0.86747  0.61124  0.72440  1.0000
  C   C1706     1.0  0.85465  0.62573  0.73075  1.0000
  C   C1707     1.0  0.84452  0.62347  0.74863  1.0000
  C   C1708     1.0  0.84695  0.60674  0.76052  1.0000
  C   C1709     1.0  0.85935  0.59205  0.75392  1.0000
  C   C1710     1.0  0.86948  0.59430  0.73603  1.0000
  H   H1706     1.0  0.85265  0.63877  0.72201  1.0000
  H   H1707     1.0  0.83490  0.63491  0.75343  1.0000
  H   H1708     1.0  0.86140  0.57907  0.76275  1.0000
  H   H1709     1.0  0.87922  0.58290  0.73135  1.0000
  H   H1710     1.0  0.91065  0.61367  0.73966  1.0000
  H   H1711     1.0  0.87787  0.61127  0.79290  1.0000
  C   C1711     1.0  0.88022  0.64691  0.75820  1.0000
  Fe  Fe287     1.0  0.92197  0.65904  0.66117  1.0000
  H   H1712     1.0  0.93919  0.50445  0.96695  1.0000
  H   H1713     1.0  0.87155  0.50864  0.95381  1.0000
  H   H1714     1.0  0.79145  0.56793  0.89510  1.0000
  C   C1712     1.0  0.83133  0.49331  0.82300  1.0000
  C   C1713     1.0  0.90928  0.50392  0.96704  1.0000
  H   H1715     1.0  0.87392  0.51281  0.97763  1.0000
  H   H1716     1.0  0.79590  0.86749  0.65172  1.0000
  C   C1714     1.0  0.86184  0.59442  0.66742  1.0000
  C   C1715     1.0  0.97711  0.64750  0.65737  1.0000
  C   C1716     1.0  0.81235  0.58774  0.89128  1.0000
  H   H1717     1.0  0.82972  0.61074  0.88760  1.0000
  H   H1718     1.0  0.84440  0.48728  0.86382  1.0000
  C   C1717     1.0  0.77965  0.59591  0.90057  1.0000
  Fe  Fe288     1.0  0.90179  0.55950  0.97322  1.0000
  H   H1719     1.0  0.83763  0.60463  0.65283  1.0000
  C   C1718     1.0  0.81204  0.49371  0.82824  1.0000
  C   C1719     1.0  0.87549  0.50186  0.96758  1.0000
  S   S575      1.0  0.96164  0.58949  0.97992  1.0000
  C   C1720     1.0  0.81565  0.60651  0.89130  1.0000
  C   C1721     1.0  0.79424  0.58239  0.89575  1.0000
  C   C1722     1.0  0.92789  0.49609  0.96516  1.0000
  H   H1720     1.0  0.90506  0.66122  0.72907  1.0000
  H   H1721     1.0  0.90639  0.51846  0.96997  1.0000
  S   S576      1.0  0.94709  0.67188  0.67019  1.0000
  C   C1723     1.0  0.74024  0.58953  0.87606  1.0000
  C   C1724     1.0  0.87478  0.63735  0.77550  1.0000
  H   H1722     1.0  0.80334  0.63431  0.89579  1.0000
  H   H1723     1.0  0.82383  0.57739  0.88765  1.0000
  C   C1725     1.0  0.80069  0.61972  0.89594  1.0000
  H   H1724     1.0  0.77022  0.63428  0.91885  1.0000
  H   H1725     1.0  0.96677  0.63891  0.65370  1.0000
  H   H1726     1.0  0.86561  0.49125  0.97311  1.0000
  C   C1726     1.0  0.98490  0.67532  0.66996  1.0000
  C   C1727     1.0  0.88065  0.58718  0.66545  1.0000
  H   H1727     1.0  0.85509  0.59722  0.68117  1.0000
  N   N144      1.0  0.89486  0.49330  0.96560  1.0000
  H   H1728     1.0  0.98049  0.68843  0.67596  1.0000
  C   C1728     1.0  0.85209  0.59861  0.65152  1.0000
