data_image0
_chemical_formula_structural       SFeS2FeS2FeSFeS3CHCH3FeS2CHC6H4C6HSCH2C2NHC2H3C6H8N2CHC5SCH3FeCH3C2H5CNCH2C2H2CSCH2CH2SHCHC2HCH2CH2NHCHC2HC2HSC3H3C4FeC2SFeS2FeS2FeSFeS3FeS2CHC3HC2HCH2C6H4SNHC3HC7H4NC6H6CH5CH3CHC3HCNC3H2CH4C2H3CH3C2HC2HCSFeNFeSHCHCSFeS2FeS2FeSFeS3C4H2FeS2CH3CHC4HCH4C6H5CHC4HC6H4NC5H4N2C3HCH2FeCH2CHNC6H2CH2CH3CHCH3CH2CH2SHCH3C2NFeCH3SFeS2FeS2FeS2FeSFeS3C8H2CHC2HC6H4C2H5C6H4NC2SC2HCH2NCH2CH2FeHC2NHCHC2H2CFeCHCHNC4SCH2CH3CHNH2C4H3NHSH2CHCH4CHSCHCHSH2SFeSFeSCH2S2FeS2FeS2Fe2S3HS2C6H10C4H2C6H4C6H7CN2C6H8CH3C2HC4HC4FeC3HC5HNHSH2CH2CFeH2CHCFeCSFeHSH2CS2HSCFeS2FeS2Fe2S3FeS2NSC6H4NCHSC4H2C7H4FeCHFeC6H4NC6H10SCNC6H11C3H5SC2H2SHSC2H3CSC3HFeS2CSFeSFeSH2FeS2FeS2FeS2FeS2FeS2FeSFeS2HS2H2C6H5SC6H4C6H5NCSHC2HSHC3H2SHCFeC2H2C3HCHSHFeHC3H2NH3C2NC6H8NC6H7CH5C3HC2HCHFeHSFeHSFeCS2HS2HSCFeS2FeSFeS2FeSFeS3CHS2HNSHC6H4CHCHC6H4C2NCHC6H4CHC2NH2C2HC2HCSCFeNCH2CH6NHCHCHCHCHCFeCH3C2H3C4SC2H3FeH5CH3FeHSH2SC2FeSFeSH3FeSCFeSHFeS2CNSHC2FeS2C6H4CH3CHSFeHC6H4C6H5CSC2NC6H2FeCH4C3HCHC2HSCHSH5SHCHC3NCNCH3NCHSC2H4SHCFe2SCH2SCHSCH2C3FeSFeSHCSHFeHS2HSCHSFeS2FeS2FeSHFeS2NH2C6H6CHCNHC11H6C6H4NCNC4H5C2HFeHSFeH3CHCH3C3H2C2HC2SH2CHC2HC2SCHSH2CH2CHCH3CH2SHFeS2FeS2CSFe3CFeSFeSCFeSHFeS2HSH2CHFeS2HCH2C6H5CHC4H4C3H2C6H4NSHCHC3NC6H3SH5C5H5C2SH2FeHCNC2HC2FeC3SHSHCFeSCSHNCH3FeS2FeSFeHS4HCFeSHSCFeS2HCH2CNFeS2FeCFeHS2CHFeHCH2C6H4C5H3CHCFeCSHC5FeHC6H4C2HFeCFeH5CHCHSCHNC2HCNH3CHC2H2CHSCFeH4CNC5H2SCSC3H2C3SH2SH2SNCHC2FeSHCFeS2FeS2FeSFeS3FeS2H3CHCNHC2NH5NC6H4CSHCHC6H5NC6H4SHC3SNH2CH2CHSCH2C5H2CH5CH2C4HCH2CH3CHC2HCH3SFeS2FeS2FeSFeS3FeS2H3C4HC6H4CFeC2HC6H4C6H5C3HCH5SC2HCH3NHCHCHNC5H9NH4FeCNSCH2NCSC3HC3H2CHSCHSFeCHFeSHSFeS2FeS2FeSFeS3CH2FeH2FeS2C3HCNHC6H5C2SHC6H4CH2C7H4CH2CHSHCNHCSNC6H5CH3NC6H8CH6C2H2SCHC3SH2CFe2SCFeS2FeS2FeS2FeSFeS3H3C7H5S2CHCHC6H5CHC6H5NC3H6C2H3CHNC6H3CH2SHNC5HCH4FeCSHCH2C2HCNH2SCHCHCHS
_chemical_formula_sum              "S288 Fe144 C864 H864 N72"
_cell_length_a       55.661
_cell_length_b       55.6992
_cell_length_c       55.3955
_cell_angle_alpha    89.5941
_cell_angle_beta     89.6416
_cell_angle_gamma    89.7052

_space_group_name_H-M_alt    "P 1"
_space_group_IT_number       1

loop_
  _space_group_symop_operation_xyz
  'x, y, z'

loop_
  _atom_site_type_symbol
  _atom_site_label
  _atom_site_symmetry_multiplicity
  _atom_site_fract_x
  _atom_site_fract_y
  _atom_site_fract_z
  _atom_site_occupancy
  S   S1        1.0  0.22111  0.34354  0.17160  1.0000
  Fe  Fe1       1.0  0.12292  0.29064  0.26313  1.0000
  S   S2        1.0  0.11684  0.25287  0.27668  1.0000
  S   S3        1.0  0.13430  0.29154  0.22354  1.0000
  Fe  Fe2       1.0  0.11021  0.31233  0.31264  1.0000
  S   S4        1.0  0.10456  0.27596  0.32898  1.0000
  S   S5        1.0  0.09781  0.34322  0.33643  1.0000
  Fe  Fe3       1.0  0.13795  0.26475  0.30877  1.0000
  S   S6        1.0  0.17108  0.24756  0.32577  1.0000
  Fe  Fe4       1.0  0.08384  0.26805  0.29524  1.0000
  S   S7        1.0  0.04718  0.25062  0.30133  1.0000
  S   S8        1.0  0.14522  0.30204  0.29468  1.0000
  S   S9        1.0  0.08832  0.30481  0.27937  1.0000
  C   C1        1.0  0.14448  0.30926  0.41658  1.0000
  H   H1        1.0  0.10033  0.28082  0.39892  1.0000
  C   C2        1.0  0.16350  0.35355  0.14992  1.0000
  H   H2        1.0  0.99438  0.30385  0.25302  1.0000
  H   H3        1.0  0.20366  0.36172  0.12500  1.0000
  H   H4        1.0  0.16995  0.49127  0.46790  1.0000
  Fe  Fe5       1.0  0.12673  0.39319  0.46505  1.0000
  S   S10       1.0  0.14789  0.37736  0.43346  1.0000
  S   S11       1.0  0.11027  0.43014  0.46543  1.0000
  C   C3        1.0  0.10820  0.29850  0.39411  1.0000
  H   H5        1.0  0.03851  0.29035  0.34369  1.0000
  C   C4        1.0  0.11217  0.35267  0.36319  1.0000
  C   C5        1.0  0.13691  0.34984  0.36656  1.0000
  C   C6        1.0  0.14770  0.35819  0.38785  1.0000
  C   C7        1.0  0.13378  0.36864  0.40631  1.0000
  C   C8        1.0  0.10903  0.37132  0.40300  1.0000
  C   C9        1.0  0.09836  0.36365  0.38140  1.0000
  H   H6        1.0  0.14778  0.34167  0.35256  1.0000
  H   H7        1.0  0.16690  0.35624  0.39014  1.0000
  H   H8        1.0  0.09810  0.37941  0.41701  1.0000
  H   H9        1.0  0.07923  0.36607  0.37889  1.0000
  C   C10       1.0  0.18570  0.22153  0.31436  1.0000
  C   C11       1.0  0.21095  0.22021  0.31446  1.0000
  C   C12       1.0  0.22310  0.19925  0.30687  1.0000
  C   C13       1.0  0.21007  0.17910  0.29976  1.0000
  C   C14       1.0  0.18482  0.18041  0.29975  1.0000
  C   C15       1.0  0.17269  0.20160  0.30667  1.0000
  H   H10       1.0  0.22120  0.23543  0.32059  1.0000
  S   S12       1.0  0.23092  0.29786  0.11660  1.0000
  C   C16       1.0  0.16942  0.30914  0.41956  1.0000
  H   H11       1.0  0.15325  0.20220  0.30684  1.0000
  H   H12       1.0  0.21596  0.27353  0.22804  1.0000
  C   C17       1.0  0.14601  0.46272  0.41992  1.0000
  C   C18       1.0  0.16638  0.47683  0.45539  1.0000
  N   N1        1.0  0.17598  0.45444  0.45914  1.0000
  H   H13       1.0  0.17454  0.16492  0.29438  1.0000
  C   C19       1.0  0.01780  0.28067  0.27376  1.0000
  C   C20       1.0  0.01921  0.26158  0.29026  1.0000
  H   H14       1.0  0.21396  0.02013  0.29557  1.0000
  H   H15       1.0  0.03412  0.28878  0.26693  1.0000
  H   H16       1.0  0.14023  0.35225  0.18132  1.0000
  C   C21       1.0  0.20028  0.32652  0.18874  1.0000
  C   C22       1.0  0.19257  0.30395  0.18114  1.0000
  C   C23       1.0  0.17321  0.29263  0.19301  1.0000
  C   C24       1.0  0.16168  0.30358  0.21275  1.0000
  C   C25       1.0  0.17044  0.32536  0.22133  1.0000
  C   C26       1.0  0.18953  0.33688  0.20922  1.0000
  H   H17       1.0  0.20069  0.29579  0.16540  1.0000
  H   H18       1.0  0.16648  0.27581  0.18621  1.0000
  H   H19       1.0  0.16161  0.33403  0.23642  1.0000
  H   H20       1.0  0.19542  0.35432  0.21523  1.0000
  H   H21       1.0  0.18072  0.36730  0.10263  1.0000
  H   H22       1.0  0.09953  0.31268  0.40527  1.0000
  H   H23       1.0  0.13345  0.31931  0.42925  1.0000
  H   H24       1.0  0.20329  0.29673  0.40502  1.0000
  N   N2        1.0  0.20018  0.24284  0.24504  1.0000
  N   N3        1.0  0.13431  0.29786  0.39739  1.0000
  C   C27       1.0  0.18391  0.29684  0.40305  1.0000
  H   H25       1.0  0.18071  0.27533  0.25232  1.0000
  C   C28       1.0  0.23596  0.31830  0.02095  1.0000
  C   C29       1.0  0.03098  0.32019  0.31998  1.0000
  C   C30       1.0  0.15123  0.48130  0.43579  1.0000
  C   C31       1.0  0.14579  0.34340  0.16480  1.0000
  C   C32       1.0  0.13613  0.32116  0.15887  1.0000
  S   S13       1.0  0.22439  0.15197  0.29076  1.0000
  C   C33       1.0  0.15599  0.44000  0.42379  1.0000
  H   H26       1.0  0.16824  0.31074  0.10769  1.0000
  H   H27       1.0  0.17291  0.25031  0.27101  1.0000
  H   H28       1.0  0.13717  0.29185  0.13373  1.0000
  Fe  Fe6       1.0  0.08008  0.41280  0.48593  1.0000
  C   C34       1.0  0.14425  0.30937  0.13820  1.0000
  H   H29       1.0  0.18232  0.43701  0.49262  1.0000
  H   H30       1.0  0.14039  0.27596  0.36640  1.0000
  H   H31       1.0  0.18431  0.27503  0.37089  1.0000
  C   C35       1.0  0.23000  0.09229  0.25730  1.0000
  C   C36       1.0  0.17824  0.25554  0.25234  1.0000
  H   H32       1.0  0.23945  0.06249  0.22108  1.0000
  H   H33       1.0  0.22603  0.35096  0.00235  1.0000
  H   H34       1.0  0.17811  0.41823  0.44690  1.0000
  H   H35       1.0  0.22437  0.99673  0.25895  1.0000
  H   H36       1.0  0.11075  0.48389  0.47538  1.0000
  C   C37       1.0  0.18937  0.35328  0.11401  1.0000
  N   N4        1.0  0.17141  0.34183  0.12972  1.0000
  C   C38       1.0  0.21799  0.25466  0.23272  1.0000
  H   H37       1.0  0.17738  0.31896  0.43435  1.0000
  H   H38       1.0  0.13397  0.46579  0.40487  1.0000
  C   C39       1.0  0.14836  0.28540  0.38138  1.0000
  C   C40       1.0  0.23913  0.24259  0.22609  1.0000
  H   H39       1.0  0.10381  0.30291  0.37503  1.0000
  H   H40       1.0  0.24253  0.19850  0.30706  1.0000
  C   C41       1.0  0.23321  0.05332  0.23729  1.0000
  S   S14       1.0  0.09497  0.37546  0.48253  1.0000
  C   C42       1.0  0.21905  0.02939  0.27903  1.0000
  H   H41       1.0  0.21657  0.06458  0.29454  1.0000
  H   H42       1.0  0.01785  0.34776  0.29596  1.0000
  C   C43       1.0  0.17333  0.28477  0.38389  1.0000
  H   H43       1.0  0.99862  0.23623  0.31132  1.0000
  H   H44       1.0  0.20885  0.44191  0.47413  1.0000
  S   S15       1.0  0.23084  0.33090  0.05000  1.0000
  H   H45       1.0  0.17149  0.37047  0.15509  1.0000
  C   C44       1.0  0.16193  0.32007  0.12367  1.0000
  H   H46       1.0  0.19840  0.34012  0.10192  1.0000
  C   C45       1.0  0.17093  0.43612  0.44368  1.0000
  C   C46       1.0  0.22075  0.05447  0.27836  1.0000
  H   H47       1.0  0.12302  0.31273  0.17080  1.0000
  C   C47       1.0  0.22467  0.01624  0.25839  1.0000
  H   H48       1.0  0.15171  0.42527  0.41183  1.0000
  H   H49       1.0  0.03075  0.47852  0.48555  1.0000
  C   C48       1.0  0.23166  0.02825  0.23733  1.0000
  H   H50       1.0  0.18785  0.20937  0.25901  1.0000
  H   H51       1.0  0.16338  0.25115  0.23984  1.0000
  N   N5        1.0  0.22814  0.06605  0.25776  1.0000
  H   H52       1.0  0.99560  0.28072  0.35035  1.0000
  C   C49       1.0  0.99522  0.28917  0.26589  1.0000
  H   H53       1.0  0.04980  0.32444  0.31696  1.0000
  C   C50       1.0  0.02463  0.30122  0.33525  1.0000
  C   C51       1.0  0.99619  0.41573  0.48567  1.0000
  H   H54       1.0  0.19501  0.46629  0.49043  1.0000
  C   C52       1.0  0.01304  0.33330  0.30825  1.0000
  C   C53       1.0  0.20232  0.21885  0.25000  1.0000
  H   H55       1.0  0.23260  0.09972  0.27569  1.0000
  S   S16       1.0  0.04320  0.42681  0.47770  1.0000
  C   C54       1.0  0.01998  0.40762  0.48697  1.0000
  C   C55       1.0  0.99774  0.25113  0.29873  1.0000
  C   C56       1.0  0.22325  0.20629  0.24385  1.0000
  H   H56       1.0  0.23672  0.01814  0.22140  1.0000
  H   H57       1.0  0.21345  0.10040  0.24959  1.0000
  H   H58       1.0  0.22515  0.18739  0.24847  1.0000
  C   C57       1.0  0.19140  0.44970  0.48002  1.0000
  C   C58       1.0  0.00032  0.29575  0.33876  1.0000
  C   C59       1.0  0.23186  0.33253  0.00025  1.0000
  C   C60       1.0  0.24183  0.21832  0.23202  1.0000
  Fe  Fe7       1.0  0.24287  0.32757  0.14085  1.0000
  C   C61       1.0  0.02489  0.38441  0.49551  1.0000
  C   C62       1.0  0.24333  0.29444  0.01796  1.0000
  S   S17       1.0  0.20420  0.34370  0.84127  1.0000
  Fe  Fe8       1.0  0.13277  0.28675  0.72891  1.0000
  S   S18       1.0  0.11238  0.25432  0.71610  1.0000
  S   S19       1.0  0.14773  0.27959  0.76655  1.0000
  Fe  Fe9       1.0  0.13246  0.30911  0.67804  1.0000
  S   S20       1.0  0.11352  0.27768  0.66242  1.0000
  S   S21       1.0  0.14330  0.34092  0.65451  1.0000
  Fe  Fe10      1.0  0.08916  0.28006  0.69500  1.0000
  S   S22       1.0  0.05001  0.27699  0.68275  1.0000
  Fe  Fe11      1.0  0.13834  0.25520  0.68513  1.0000
  S   S23       1.0  0.15607  0.22079  0.67260  1.0000
  S   S24       1.0  0.10736  0.31277  0.71006  1.0000
  S   S25       1.0  0.15937  0.28648  0.69827  1.0000
  Fe  Fe12      1.0  0.11313  0.38295  0.51806  1.0000
  S   S26       1.0  0.11219  0.35116  0.54437  1.0000
  S   S27       1.0  0.09526  0.41898  0.52271  1.0000
  C   C63       1.0  0.16451  0.28223  0.87088  1.0000
  H   H59       1.0  0.21935  0.17701  0.73924  1.0000
  C   C64       1.0  0.18633  0.21445  0.67982  1.0000
  C   C65       1.0  0.20216  0.23260  0.68663  1.0000
  C   C66       1.0  0.22683  0.22757  0.68903  1.0000
  H   H60       1.0  0.12859  0.32172  0.86603  1.0000
  C   C67       1.0  0.21979  0.18592  0.67953  1.0000
  C   C68       1.0  0.19518  0.19103  0.67671  1.0000
  H   H61       1.0  0.19566  0.25071  0.68895  1.0000
  C   C69       1.0  0.14672  0.32048  0.85769  1.0000
  H   H62       1.0  0.22657  0.16800  0.67609  1.0000
  H   H63       1.0  0.18308  0.17690  0.67138  1.0000
  C   C70       1.0  0.13607  0.34323  0.62343  1.0000
  C   C71       1.0  0.12716  0.32366  0.61068  1.0000
  C   C72       1.0  0.12079  0.32630  0.58625  1.0000
  C   C73       1.0  0.12287  0.34859  0.57436  1.0000
  C   C74       1.0  0.13207  0.36813  0.58699  1.0000
  C   C75       1.0  0.13878  0.36539  0.61138  1.0000
  H   H64       1.0  0.12500  0.30652  0.61960  1.0000
  H   H65       1.0  0.11369  0.31110  0.57662  1.0000
  H   H66       1.0  0.13381  0.38537  0.57803  1.0000
  H   H67       1.0  0.14581  0.38061  0.62105  1.0000
  S   S28       1.0  0.14345  0.46933  0.51393  1.0000
  N   N6        1.0  0.16286  0.30661  0.87340  1.0000
  H   H68       1.0  0.16912  0.23588  0.74280  1.0000
  C   C76       1.0  0.02034  0.28673  0.72234  1.0000
  C   C77       1.0  0.02200  0.28131  0.69777  1.0000
  C   C78       1.0  0.19586  0.23634  0.62555  1.0000
  H   H69       1.0  0.03654  0.28858  0.73284  1.0000
  C   C79       1.0  0.06025  0.32168  0.60461  1.0000
  C   C80       1.0  0.19157  0.32603  0.81819  1.0000
  C   C81       1.0  0.19360  0.30100  0.81866  1.0000
  C   C82       1.0  0.18040  0.28711  0.80235  1.0000
  C   C83       1.0  0.16578  0.29808  0.78480  1.0000
  C   C84       1.0  0.16450  0.32314  0.78367  1.0000
  C   C85       1.0  0.17708  0.33703  0.80056  1.0000
  H   H70       1.0  0.20454  0.29230  0.83222  1.0000
  H   H71       1.0  0.18126  0.26773  0.80356  1.0000
  H   H72       1.0  0.15310  0.33178  0.77042  1.0000
  H   H73       1.0  0.17527  0.35639  0.80018  1.0000
  N   N7        1.0  0.07810  0.35116  0.64053  1.0000
  C   C86       1.0  0.07056  0.32847  0.64625  1.0000
  C   C87       1.0  0.07632  0.35965  0.61736  1.0000
  C   C88       1.0  0.06169  0.31333  0.62838  1.0000
  C   C89       1.0  0.06741  0.34505  0.59905  1.0000
  C   C90       1.0  0.08724  0.36686  0.65948  1.0000
  C   C91       1.0  0.18691  0.22843  0.74598  1.0000
  H   H74       1.0  0.21831  0.20462  0.62337  1.0000
  H   H75       1.0  0.08249  0.37755  0.61274  1.0000
  H   H76       1.0  0.23916  0.24193  0.69308  1.0000
  H   H77       1.0  0.15373  0.33891  0.85451  1.0000
  H   H78       1.0  0.06697  0.35154  0.58050  1.0000
  H   H79       1.0  0.09515  0.35622  0.67456  1.0000
  C   C92       1.0  0.19084  0.27985  0.90531  1.0000
  H   H80       1.0  0.19895  0.31365  0.92190  1.0000
  H   H81       1.0  0.20204  0.26949  0.91762  1.0000
  H   H82       1.0  0.20069  0.26109  0.76059  1.0000
  H   H83       1.0  0.16860  0.27987  0.61109  1.0000
  H   H84       1.0  0.21453  0.29156  0.64034  1.0000
  C   C93       1.0  0.00593  0.36917  0.50225  1.0000
  H   H85       1.0  0.05618  0.29519  0.63303  1.0000
  H   H86       1.0  0.15678  0.26103  0.63508  1.0000
  H   H87       1.0  0.17838  0.19358  0.73182  1.0000
  C   C94       1.0  0.21773  0.22385  0.62636  1.0000
  H   H88       1.0  0.00972  0.35112  0.50852  1.0000
  C   C95       1.0  0.23752  0.26060  0.63726  1.0000
  C   C96       1.0  0.20492  0.24265  0.75594  1.0000
  C   C97       1.0  0.18912  0.30471  0.90769  1.0000
  H   H89       1.0  0.07159  0.32180  0.66468  1.0000
  C   C98       1.0  0.21505  0.19540  0.74401  1.0000
  N   N8        1.0  0.19484  0.26030  0.63083  1.0000
  C   C99       1.0  0.99760  0.28969  0.73340  1.0000
  C   C100      1.0  0.21533  0.27254  0.63629  1.0000
  C   C101      1.0  0.17502  0.31791  0.89144  1.0000
  H   H90       1.0  0.10202  0.37835  0.65238  1.0000
  H   H91       1.0  0.06037  0.46054  0.51359  1.0000
  C   C102      1.0  0.17178  0.27309  0.62971  1.0000
  H   H92       1.0  0.18025  0.24923  0.88443  1.0000
  H   H93       1.0  0.17410  0.33730  0.89312  1.0000
  H   H94       1.0  0.17129  0.28859  0.64229  1.0000
  H   H95       1.0  0.23171  0.33425  0.96117  1.0000
  C   C103      1.0  0.05915  0.47992  0.51168  1.0000
  C   C104      1.0  0.17864  0.26851  0.88668  1.0000
  H   H96       1.0  0.05389  0.31000  0.59046  1.0000
  H   H97       1.0  0.15506  0.27330  0.85644  1.0000
  H   H98       1.0  0.14519  0.31208  0.83960  1.0000
  C   C105      1.0  0.19207  0.20466  0.73997  1.0000
  H   H99       1.0  0.17955  0.22651  0.62168  1.0000
  H   H100      1.0  0.07253  0.37833  0.66664  1.0000
  H   H101      1.0  0.99653  0.29382  0.75244  1.0000
  C   C106      1.0  0.23511  0.32310  0.97686  1.0000
  C   C107      1.0  0.00068  0.27892  0.68445  1.0000
  H   H102      1.0  0.00175  0.27466  0.66545  1.0000
  C   C108      1.0  0.23865  0.23608  0.63234  1.0000
  C   C109      1.0  0.23263  0.21011  0.75400  1.0000
  H   H103      1.0  0.08774  0.48696  0.53667  1.0000
  C   C110      1.0  0.23579  0.20432  0.68504  1.0000
  S   S29       1.0  0.24092  0.29042  0.87252  1.0000
  Fe  Fe13      1.0  0.12654  0.43426  0.50197  1.0000
  N   N9        1.0  0.22748  0.23347  0.75965  1.0000
  Fe  Fe14      1.0  0.23548  0.32934  0.86308  1.0000
  S   S30       1.0  0.14606  0.39859  0.50028  1.0000
  H   H104      1.0  0.24337  0.24812  0.79087  1.0000
  C   C111      1.0  0.24195  0.29908  0.97388  1.0000
  H   H105      1.0  0.04322  0.37809  0.49666  1.0000
  C   C112      1.0  0.04250  0.49007  0.49586  1.0000
  S   S31       1.0  0.20595  0.75708  0.14221  1.0000
  Fe  Fe15      1.0  0.13965  0.74723  0.26987  1.0000
  S   S32       1.0  0.12484  0.78468  0.26668  1.0000
  S   S33       1.0  0.16214  0.72500  0.24384  1.0000
  Fe  Fe16      1.0  0.12324  0.74152  0.32255  1.0000
  S   S34       1.0  0.10826  0.77906  0.32368  1.0000
  S   S35       1.0  0.11585  0.71093  0.34910  1.0000
  Fe  Fe17      1.0  0.09241  0.77104  0.28742  1.0000
  S   S36       1.0  0.05447  0.78609  0.28153  1.0000
  Fe  Fe18      1.0  0.14167  0.78999  0.30302  1.0000
  S   S37       1.0  0.16006  0.82591  0.30842  1.0000
  S   S38       1.0  0.10579  0.73296  0.28708  1.0000
  S   S39       1.0  0.15810  0.75313  0.30533  1.0000
  C   C113      1.0  0.21407  0.74881  0.01100  1.0000
  C   C114      1.0  0.00037  0.66177  0.49329  1.0000
  C   C115      1.0  0.02915  0.63561  0.47355  1.0000
  C   C116      1.0  0.22152  0.78744  0.22048  1.0000
  H   H106      1.0  0.05648  0.67441  0.45077  1.0000
  H   H107      1.0  0.15014  0.68744  0.27796  1.0000
  Fe  Fe19      1.0  0.13270  0.65976  0.47778  1.0000
  S   S40       1.0  0.15322  0.68692  0.45497  1.0000
  S   S41       1.0  0.10024  0.63916  0.46662  1.0000
  C   C117      1.0  0.22806  0.78925  0.06281  1.0000
  H   H108      1.0  0.13448  0.68267  0.30572  1.0000
  H   H109      1.0  0.05098  0.82085  0.23868  1.0000
  H   H110      1.0  0.15528  0.65996  0.29479  1.0000
  C   C118      1.0  0.01023  0.62337  0.46248  1.0000
  H   H111      1.0  0.23909  0.80482  0.06638  1.0000
  C   C119      1.0  0.19115  0.83176  0.30467  1.0000
  C   C120      1.0  0.19880  0.85566  0.30197  1.0000
  C   C121      1.0  0.22339  0.86118  0.29944  1.0000
  C   C122      1.0  0.02419  0.65501  0.48876  1.0000
  H   H112      1.0  0.04751  0.63017  0.47014  1.0000
  C   C123      1.0  0.20835  0.81334  0.30476  1.0000
  H   H113      1.0  0.18564  0.87002  0.30197  1.0000
  H   H114      1.0  0.21560  0.76919  0.21753  1.0000
  H   H115      1.0  0.22185  0.72230  0.34516  1.0000
  H   H116      1.0  0.20271  0.79491  0.30698  1.0000
  C   C124      1.0  0.12705  0.70491  0.37834  1.0000
  C   C125      1.0  0.14272  0.72039  0.39017  1.0000
  C   C126      1.0  0.15086  0.71462  0.41359  1.0000
  C   C127      1.0  0.14313  0.69356  0.42541  1.0000
  C   C128      1.0  0.12749  0.67816  0.41350  1.0000
  C   C129      1.0  0.11970  0.68371  0.39003  1.0000
  H   H117      1.0  0.14853  0.73677  0.38133  1.0000
  H   H118      1.0  0.16301  0.72662  0.42267  1.0000
  H   H119      1.0  0.12166  0.66176  0.42221  1.0000
  H   H120      1.0  0.10770  0.67155  0.38095  1.0000
  H   H121      1.0  0.18872  0.70134  0.36710  1.0000
  C   C130      1.0  0.04130  0.51507  0.49330  1.0000
  H   H122      1.0  0.07399  0.70835  0.47370  1.0000
  C   C131      1.0  0.00552  0.78523  0.28845  1.0000
  C   C132      1.0  0.02609  0.77154  0.28275  1.0000
  C   C133      1.0  0.02310  0.74801  0.27466  1.0000
  C   C134      1.0  0.21482  0.77853  0.08139  1.0000
  H   H123      1.0  0.03871  0.73733  0.26996  1.0000
  C   C135      1.0  0.19451  0.74863  0.17093  1.0000
  C   C136      1.0  0.17601  0.76229  0.18159  1.0000
  C   C137      1.0  0.16629  0.75572  0.20426  1.0000
  C   C138      1.0  0.17469  0.73512  0.21616  1.0000
  C   C139      1.0  0.19330  0.72161  0.20555  1.0000
  C   C140      1.0  0.20336  0.72846  0.18319  1.0000
  H   H124      1.0  0.16907  0.77794  0.17224  1.0000
  H   H125      1.0  0.15191  0.76622  0.21220  1.0000
  H   H126      1.0  0.19984  0.70558  0.21456  1.0000
  H   H127      1.0  0.21748  0.71771  0.17513  1.0000
  N   N10       1.0  0.07406  0.70486  0.43543  1.0000
  C   C141      1.0  0.07827  0.71820  0.41501  1.0000
  C   C142      1.0  0.05941  0.68524  0.43470  1.0000
  C   C143      1.0  0.06726  0.71228  0.39322  1.0000
  C   C144      1.0  0.04819  0.67873  0.41321  1.0000
  C   C145      1.0  0.05220  0.69236  0.39234  1.0000
  H   H128      1.0  0.09066  0.73317  0.41527  1.0000
  H   H129      1.0  0.07103  0.72263  0.37693  1.0000
  H   H130      1.0  0.03667  0.66306  0.41281  1.0000
  H   H131      1.0  0.04395  0.68736  0.37541  1.0000
  N   N11       1.0  0.01736  0.80374  0.23129  1.0000
  N   N12       1.0  0.24025  0.79672  0.20734  1.0000
  C   C146      1.0  0.02875  0.78325  0.22376  1.0000
  C   C147      1.0  0.99981  0.73892  0.27086  1.0000
  C   C148      1.0  0.01546  0.76337  0.21639  1.0000
  H   H132      1.0  0.24110  0.76725  0.18274  1.0000
  C   C149      1.0  0.03129  0.82430  0.23972  1.0000
  H   H133      1.0  0.02836  0.52286  0.48090  1.0000
  H   H134      1.0  0.04819  0.78180  0.22443  1.0000
  Fe  Fe20      1.0  0.24266  0.74411  0.12952  1.0000
  C   C150      1.0  0.23704  0.83380  0.22912  1.0000
  H   H135      1.0  0.02452  0.74685  0.21134  1.0000
  H   H136      1.0  0.02711  0.84055  0.22881  1.0000
  C   C151      1.0  0.20181  0.74822  0.05353  1.0000
  H   H137      1.0  0.99772  0.72119  0.26334  1.0000
  N   N13       1.0  0.17158  0.69079  0.30967  1.0000
  C   C152      1.0  0.17145  0.69000  0.33435  1.0000
  C   C153      1.0  0.19023  0.70135  0.29745  1.0000
  C   C154      1.0  0.18943  0.70137  0.34751  1.0000
  C   C155      1.0  0.20858  0.71285  0.31000  1.0000
  C   C156      1.0  0.20799  0.71306  0.33520  1.0000
  C   C157      1.0  0.15197  0.67955  0.29637  1.0000
  H   H138      1.0  0.15708  0.68093  0.34401  1.0000
  H   H139      1.0  0.19071  0.70144  0.27787  1.0000
  C   C158      1.0  0.21747  0.82473  0.24204  1.0000
  H   H140      1.0  0.05673  0.56046  0.48346  1.0000
  H   H141      1.0  0.20848  0.83573  0.25544  1.0000
  C   C159      1.0  0.20162  0.75787  0.07679  1.0000
  H   H142      1.0  0.01404  0.60854  0.45051  1.0000
  H   H143      1.0  0.19165  0.73205  0.05013  1.0000
  H   H144      1.0  0.21508  0.78599  0.09944  1.0000
  C   C160      1.0  0.08633  0.71062  0.45797  1.0000
  H   H145      1.0  0.21658  0.72901  0.01166  1.0000
  C   C161      1.0  0.22767  0.77926  0.03972  1.0000
  H   H146      1.0  0.10197  0.69842  0.46035  1.0000
  H   H147      1.0  0.19163  0.74924  0.09133  1.0000
  H   H148      1.0  0.00759  0.80344  0.29475  1.0000
  C   C162      1.0  0.23298  0.81892  0.30286  1.0000
  H   H149      1.0  0.02709  0.82772  0.25906  1.0000
  H   H150      1.0  0.09285  0.72943  0.45803  1.0000
  C   C163      1.0  0.11733  0.49985  0.48410  1.0000
  H   H151      1.0  0.22289  0.72189  0.30020  1.0000
  H   H152      1.0  0.09834  0.52413  0.46034  1.0000
  S   S42       1.0  0.10862  0.57187  0.47545  1.0000
  H   H153      1.0  0.14326  0.49897  0.43326  1.0000
  C   C164      1.0  0.11032  0.52270  0.47560  1.0000
  H   H154      1.0  0.22903  0.87967  0.29763  1.0000
  H   H155      1.0  0.19465  0.79409  0.24809  1.0000
  H   H156      1.0  0.19661  0.75312  0.00237  1.0000
  C   C165      1.0  0.24063  0.84285  0.30023  1.0000
  C   C166      1.0  0.20968  0.80137  0.23784  1.0000
  N   N14       1.0  0.21480  0.75889  0.03537  1.0000
  Fe  Fe21      1.0  0.11412  0.60937  0.49088  1.0000
  C   C167      1.0  0.11844  0.54369  0.48683  1.0000
  H   H157      1.0  0.22871  0.75602  0.99930  1.0000
  H   H158      1.0  0.23846  0.78746  0.02554  1.0000
  H   H159      1.0  0.22611  0.87478  0.73067  1.0000
  S   S43       1.0  0.20190  0.74243  0.84470  1.0000
  Fe  Fe22      1.0  0.12716  0.64463  0.53090  1.0000
  S   S44       1.0  0.14307  0.64975  0.56822  1.0000
  S   S45       1.0  0.09424  0.62249  0.52385  1.0000
  Fe  Fe23      1.0  0.12336  0.74967  0.66990  1.0000
  S   S46       1.0  0.10735  0.78508  0.68195  1.0000
  S   S47       1.0  0.11811  0.74257  0.62978  1.0000
  Fe  Fe24      1.0  0.13635  0.73568  0.72137  1.0000
  S   S48       1.0  0.12019  0.76906  0.73649  1.0000
  S   S49       1.0  0.15416  0.70885  0.74663  1.0000
  Fe  Fe25      1.0  0.08953  0.76322  0.71109  1.0000
  S   S50       1.0  0.05166  0.77232  0.72442  1.0000
  Fe  Fe26      1.0  0.13952  0.78783  0.70615  1.0000
  S   S51       1.0  0.15786  0.82130  0.72017  1.0000
  S   S52       1.0  0.10400  0.72783  0.69819  1.0000
  S   S53       1.0  0.15717  0.75439  0.69186  1.0000
  C   C168      1.0  0.05579  0.75748  0.64595  1.0000
  C   C169      1.0  0.14117  0.51871  0.51487  1.0000
  C   C170      1.0  0.18529  0.83414  0.71049  1.0000
  C   C171      1.0  0.19612  0.85116  0.72544  1.0000
  C   C172      1.0  0.21806  0.86179  0.71891  1.0000
  C   C173      1.0  0.22037  0.96659  0.74445  1.0000
  C   C174      1.0  0.21809  0.83937  0.68172  1.0000
  C   C175      1.0  0.19651  0.82799  0.68871  1.0000
  H   H160      1.0  0.18744  0.85611  0.74223  1.0000
  H   H161      1.0  0.17260  0.67930  0.50557  1.0000
  C   C176      1.0  0.99955  0.72780  0.69887  1.0000
  H   H162      1.0  0.18831  0.81493  0.67703  1.0000
  C   C177      1.0  0.03740  0.77094  0.65652  1.0000
  C   C178      1.0  0.13296  0.49773  0.50368  1.0000
  H   H163      1.0  0.08927  0.78014  0.80538  1.0000
  C   C179      1.0  0.13342  0.67394  0.58664  1.0000
  C   C180      1.0  0.14305  0.67650  0.60989  1.0000
  C   C181      1.0  0.13761  0.69687  0.62397  1.0000
  C   C182      1.0  0.12268  0.71496  0.61471  1.0000
  C   C183      1.0  0.11249  0.71202  0.59179  1.0000
  C   C184      1.0  0.11770  0.69158  0.57789  1.0000
  H   H164      1.0  0.15517  0.66292  0.61687  1.0000
  H   H165      1.0  0.14560  0.69893  0.64158  1.0000
  H   H166      1.0  0.10091  0.72590  0.58448  1.0000
  H   H167      1.0  0.10994  0.68978  0.56019  1.0000
  C   C185      1.0  0.02217  0.73711  0.70520  1.0000
  C   C186      1.0  0.02371  0.75970  0.71593  1.0000
  H   H168      1.0  0.99647  0.67667  0.50515  1.0000
  H   H169      1.0  0.03835  0.72681  0.70180  1.0000
  H   H170      1.0  0.07437  0.76271  0.64817  1.0000
  H   H171      1.0  0.23389  0.82947  0.79708  1.0000
  H   H172      1.0  0.22438  0.73098  0.76316  1.0000
  C   C187      1.0  0.19105  0.73336  0.81627  1.0000
  C   C188      1.0  0.17741  0.74968  0.80253  1.0000
  C   C189      1.0  0.16703  0.74270  0.78058  1.0000
  C   C190      1.0  0.16946  0.71904  0.77256  1.0000
  C   C191      1.0  0.18334  0.70278  0.78616  1.0000
  C   C192      1.0  0.19438  0.70998  0.80776  1.0000
  H   H173      1.0  0.17481  0.76783  0.80893  1.0000
  H   H174      1.0  0.15660  0.75549  0.77030  1.0000
  H   H175      1.0  0.18536  0.68444  0.78011  1.0000
  H   H176      1.0  0.20474  0.69720  0.81826  1.0000
  N   N15       1.0  0.00818  0.74385  0.64038  1.0000
  C   C193      1.0  0.23301  0.92747  0.68006  1.0000
  C   C194      1.0  0.21508  0.92025  0.69620  1.0000
  S   S54       1.0  0.14831  0.62911  0.49959  1.0000
  C   C195      1.0  0.18267  0.67948  0.52285  1.0000
  C   C196      1.0  0.11297  0.75088  0.81509  1.0000
  H   H177      1.0  0.15559  0.71752  0.51075  1.0000
  C   C197      1.0  0.07431  0.49476  0.52479  1.0000
  H   H178      1.0  0.17960  0.66185  0.53189  1.0000
  H   H179      1.0  0.19763  0.92723  0.73008  1.0000
  N   N16       1.0  0.05632  0.52952  0.50611  1.0000
  C   C198      1.0  0.16111  0.71753  0.52952  1.0000
  H   H180      1.0  0.20208  0.68135  0.51858  1.0000
  H   H181      1.0  0.13461  0.71898  0.81977  1.0000
  C   C199      1.0  0.23082  0.82524  0.77776  1.0000
  H   H182      1.0  0.23033  0.95736  0.75922  1.0000
  H   H183      1.0  0.15461  0.75067  0.58059  1.0000
  Fe  Fe27      1.0  0.08328  0.65345  0.50026  1.0000
  H   H184      1.0  0.12165  0.76052  0.82957  1.0000
  C   C200      1.0  0.17495  0.71784  0.57752  1.0000
  C   C201      1.0  0.02618  0.73045  0.63012  1.0000
  N   N17       1.0  0.17474  0.69907  0.53858  1.0000
  H   H185      1.0  0.07212  0.72611  0.74401  1.0000
  C   C202      1.0  0.18174  0.69908  0.56221  1.0000
  H   H186      1.0  0.14244  0.75073  0.53740  1.0000
  C   C203      1.0  0.05024  0.73709  0.63268  1.0000
  C   C204      1.0  0.16075  0.73654  0.56857  1.0000
  H   H187      1.0  0.06759  0.70086  0.76404  1.0000
  H   H188      1.0  0.04166  0.78637  0.66757  1.0000
  C   C205      1.0  0.12019  0.72751  0.80967  1.0000
  Fe  Fe28      1.0  0.23600  0.72738  0.86162  1.0000
  C   C206      1.0  0.21104  0.93345  0.71724  1.0000
  H   H189      1.0  0.17983  0.71739  0.59646  1.0000
  C   C207      1.0  0.21381  0.76627  0.75087  1.0000
  H   H190      1.0  0.03706  0.56240  0.50958  1.0000
  N   N18       1.0  0.09217  0.72667  0.77686  1.0000
  C   C208      1.0  0.08443  0.74933  0.78249  1.0000
  C   C209      1.0  0.10965  0.71566  0.79028  1.0000
  C   C210      1.0  0.09492  0.76189  0.80149  1.0000
  C   C211      1.0  0.22592  0.75018  0.76596  1.0000
  S   S55       1.0  0.11452  0.67643  0.50973  1.0000
  C   C212      1.0  0.08115  0.71365  0.75691  1.0000
  H   H191      1.0  0.07051  0.75808  0.77189  1.0000
  H   H192      1.0  0.21412  0.83479  0.77236  1.0000
  C   C213      1.0  0.13378  0.54160  0.50664  1.0000
  H   H193      1.0  0.00339  0.79014  0.72881  1.0000
  H   H194      1.0  0.15332  0.51729  0.53000  1.0000
  H   H195      1.0  0.06461  0.72648  0.62464  1.0000
  C   C214      1.0  0.21546  0.79092  0.75516  1.0000
  H   H196      1.0  0.09509  0.70357  0.74657  1.0000
  N   N19       1.0  0.22867  0.79930  0.77406  1.0000
  H   H197      1.0  0.19196  0.68410  0.56955  1.0000
  H   H198      1.0  0.22637  0.83504  0.66456  1.0000
  C   C215      1.0  0.15376  0.73643  0.54442  1.0000
  C   C216      1.0  0.01352  0.76388  0.65346  1.0000
  C   C217      1.0  0.22897  0.85630  0.69681  1.0000
  C   C218      1.0  0.07259  0.51970  0.52183  1.0000
  H   H199      1.0  0.06916  0.56521  0.51260  1.0000
  H   H200      1.0  0.11609  0.69785  0.78556  1.0000
  H   H201      1.0  0.99856  0.71027  0.69066  1.0000
  N   N20       1.0  0.22415  0.95364  0.72177  1.0000
  H   H202      1.0  0.20285  0.75968  0.73620  1.0000
  S   S56       1.0  0.04744  0.67171  0.50149  1.0000
  H   H203      1.0  0.02198  0.71443  0.61997  1.0000
  H   H204      1.0  0.20592  0.80325  0.74339  1.0000
  C   C219      1.0  0.00241  0.77272  0.72035  1.0000
  H   H205      1.0  0.14018  0.55761  0.51545  1.0000
  C   C220      1.0  0.24075  0.78364  0.78883  1.0000
  H   H206      1.0  0.20099  0.96756  0.74923  1.0000
  H   H207      1.0  0.08483  0.53106  0.53170  1.0000
  H   H208      1.0  0.99938  0.77410  0.66230  1.0000
  H   H209      1.0  0.20490  0.90407  0.69270  1.0000
  C   C221      1.0  0.23943  0.75888  0.78510  1.0000
  H   H210      1.0  0.22721  0.98531  0.74322  1.0000
  S   S57       1.0  0.24187  0.69575  0.88636  1.0000
  C   C222      1.0  0.05467  0.55564  0.50289  1.0000
  H   H211      1.0  0.23687  0.91680  0.66414  1.0000
  C   C223      1.0  0.24170  0.96090  0.70596  1.0000
  H   H212      1.0  0.45605  0.15242  0.41829  1.0000
  S   S58       1.0  0.28380  0.30252  0.09002  1.0000
  H   H213      1.0  0.33695  0.06753  0.32191  1.0000
  H   H214      1.0  0.29003  0.34972  0.05113  1.0000
  S   S59       1.0  0.27959  0.31240  0.14843  1.0000
  Fe  Fe29      1.0  0.29140  0.33295  0.11535  1.0000
  S   S60       1.0  0.32685  0.35191  0.10894  1.0000
  Fe  Fe30      1.0  0.26842  0.28363  0.12277  1.0000
  S   S61       1.0  0.27412  0.24386  0.12992  1.0000
  C   C224      1.0  0.38482  0.47410  0.11839  1.0000
  H   H215      1.0  0.29963  0.02893  0.21248  1.0000
  H   H216      1.0  0.33348  0.32734  0.15861  1.0000
  S   S62       1.0  0.34765  0.45884  0.14360  1.0000
  S   S63       1.0  0.47980  0.11367  0.44308  1.0000
  Fe  Fe31      1.0  0.30347  0.16717  0.24839  1.0000
  S   S64       1.0  0.29579  0.17150  0.28822  1.0000
  S   S65       1.0  0.31301  0.20240  0.22956  1.0000
  Fe  Fe32      1.0  0.29390  0.11260  0.25069  1.0000
  S   S66       1.0  0.28479  0.11407  0.28990  1.0000
  S   S67       1.0  0.29401  0.07674  0.23093  1.0000
  Fe  Fe33      1.0  0.26406  0.14786  0.28101  1.0000
  Fe  Fe34      1.0  0.31760  0.13744  0.29287  1.0000
  S   S68       1.0  0.34489  0.12415  0.32057  1.0000
  S   S69       1.0  0.27092  0.14483  0.24112  1.0000
  S   S70       1.0  0.32748  0.13475  0.25368  1.0000
  H   H217      1.0  0.33373  0.02310  0.32550  1.0000
  S   S71       1.0  0.44912  0.16551  0.34085  1.0000
  S   S72       1.0  0.46954  0.10743  0.37678  1.0000
  C   C225      1.0  0.37471  0.13508  0.32231  1.0000
  C   C226      1.0  0.39275  0.11995  0.33160  1.0000
  C   C227      1.0  0.41589  0.12880  0.33637  1.0000
  C   C228      1.0  0.42117  0.15302  0.33223  1.0000
  C   C229      1.0  0.40333  0.16802  0.32228  1.0000
  C   C230      1.0  0.38025  0.15907  0.31719  1.0000
  H   H218      1.0  0.38868  0.10137  0.33564  1.0000
  H   H219      1.0  0.42942  0.11696  0.34380  1.0000
  H   H220      1.0  0.40721  0.18676  0.31892  1.0000
  H   H221      1.0  0.36649  0.17096  0.31016  1.0000
  H   H222      1.0  0.40511  0.17836  0.38333  1.0000
  H   H223      1.0  0.39909  0.46234  0.11214  1.0000
  H   H224      1.0  0.36914  0.15524  0.37180  1.0000
  H   H225      1.0  0.36152  0.31993  0.17313  1.0000
  H   H226      1.0  0.25334  0.25199  0.21652  1.0000
  H   H227      1.0  0.48388  0.02467  0.41746  1.0000
  C   C231      1.0  0.29441  0.02730  0.23128  1.0000
  C   C232      1.0  0.29099  0.04817  0.24508  1.0000
  C   C233      1.0  0.28423  0.04577  0.26934  1.0000
  C   C234      1.0  0.27998  0.02284  0.27934  1.0000
  H   H228      1.0  0.28157  0.06159  0.28023  1.0000
  H   H229      1.0  0.27391  0.02125  0.29788  1.0000
  C   C235      1.0  0.33124  0.38226  0.11728  1.0000
  C   C236      1.0  0.35095  0.39482  0.10766  1.0000
  C   C237      1.0  0.35575  0.41856  0.11473  1.0000
  C   C238      1.0  0.34107  0.42990  0.13190  1.0000
  C   C239      1.0  0.32134  0.41726  0.14150  1.0000
  C   C240      1.0  0.31625  0.39369  0.13403  1.0000
  H   H230      1.0  0.36275  0.38606  0.09483  1.0000
  H   H231      1.0  0.37132  0.42755  0.10746  1.0000
  H   H232      1.0  0.30999  0.42569  0.15495  1.0000
  H   H233      1.0  0.30108  0.38419  0.14171  1.0000
  C   C241      1.0  0.28244  0.23269  0.15871  1.0000
  C   C242      1.0  0.28264  0.20778  0.16293  1.0000
  C   C243      1.0  0.29116  0.19819  0.18490  1.0000
  C   C244      1.0  0.30015  0.21348  0.20256  1.0000
  C   C245      1.0  0.29964  0.23839  0.19848  1.0000
  C   C246      1.0  0.29047  0.24799  0.17684  1.0000
  H   H234      1.0  0.27650  0.19580  0.14899  1.0000
  H   H235      1.0  0.29152  0.17896  0.18782  1.0000
  H   H236      1.0  0.30649  0.25032  0.21212  1.0000
  H   H237      1.0  0.29048  0.26716  0.17384  1.0000
  H   H238      1.0  0.29771  0.30973  0.03299  1.0000
  H   H239      1.0  0.43609  0.17709  0.42444  1.0000
  H   H240      1.0  0.36132  0.47007  0.08553  1.0000
  C   C247      1.0  0.29088  0.34780  0.03163  1.0000
  N   N21       1.0  0.33998  0.01709  0.28801  1.0000
  N   N22       1.0  0.34682  0.29255  0.15050  1.0000
  C   C248      1.0  0.35122  0.27490  0.16726  1.0000
  C   C249      1.0  0.33762  0.28690  0.12842  1.0000
  C   C250      1.0  0.34680  0.25080  0.16188  1.0000
  C   C251      1.0  0.33267  0.26304  0.12260  1.0000
  C   C252      1.0  0.33738  0.24491  0.13943  1.0000
  C   C253      1.0  0.35096  0.31783  0.15634  1.0000
  H   H241      1.0  0.35787  0.27933  0.18502  1.0000
  H   H242      1.0  0.33373  0.30094  0.11532  1.0000
  H   H243      1.0  0.34971  0.23684  0.17538  1.0000
  H   H244      1.0  0.32446  0.25866  0.10547  1.0000
  H   H245      1.0  0.33277  0.22644  0.13544  1.0000
  H   H246      1.0  0.36102  0.32688  0.14145  1.0000
  H   H247      1.0  0.34986  0.06037  0.24586  1.0000
  H   H248      1.0  0.28359  0.38515  0.02440  1.0000
  C   C254      1.0  0.38065  0.12313  0.39040  1.0000
  H   H249      1.0  0.34695  0.01618  0.25009  1.0000
  H   H250      1.0  0.40097  0.48081  0.15480  1.0000
  H   H251      1.0  0.24632  0.28318  0.03366  1.0000
  C   C255      1.0  0.39867  0.11255  0.40438  1.0000
  C   C256      1.0  0.38276  0.14707  0.38322  1.0000
  H   H252      1.0  0.44915  0.17336  0.39460  1.0000
  C   C257      1.0  0.36293  0.47863  0.10295  1.0000
  C   C258      1.0  0.29527  0.32535  0.02146  1.0000
  C   C259      1.0  0.48696  0.99721  0.39039  1.0000
  C   C260      1.0  0.38596  0.48506  0.14317  1.0000
  H   H253      1.0  0.36529  0.11272  0.38465  1.0000
  C   C261      1.0  0.40314  0.16003  0.38978  1.0000
  C   C262      1.0  0.33922  0.05623  0.30615  1.0000
  C   C263      1.0  0.34682  0.05225  0.26348  1.0000
  C   C264      1.0  0.49318  0.12058  0.47120  1.0000
  Fe  Fe35      1.0  0.47795  0.14174  0.35759  1.0000
  C   C265      1.0  0.28282  0.00200  0.26539  1.0000
  C   C266      1.0  0.41861  0.12616  0.41098  1.0000
  C   C267      1.0  0.29059  0.00431  0.24143  1.0000
  H   H254      1.0  0.34499  0.08618  0.28199  1.0000
  C   C268      1.0  0.48067  0.11491  0.49263  1.0000
  C   C269      1.0  0.34385  0.06676  0.28371  1.0000
  C   C270      1.0  0.33741  0.03119  0.30801  1.0000
  C   C271      1.0  0.44151  0.16382  0.41057  1.0000
  C   C272      1.0  0.34498  0.02728  0.26599  1.0000
  H   H255      1.0  0.43253  0.11780  0.42188  1.0000
  N   N23       1.0  0.42073  0.14952  0.40345  1.0000
  H   H256      1.0  0.39738  0.09386  0.40988  1.0000
  S   S73       1.0  0.25576  0.35062  0.10983  1.0000
  H   H257      1.0  0.25824  0.20877  0.22746  1.0000
  H   H258      1.0  0.39546  0.47952  0.00650  1.0000
  C   C273      1.0  0.28712  0.36766  0.01661  1.0000
  H   H259      1.0  0.46329  0.10640  0.49163  1.0000
  H   H260      1.0  0.24573  0.09799  0.24626  1.0000
  C   C274      1.0  0.48647  0.02095  0.39847  1.0000
  Fe  Fe36      1.0  0.24737  0.31925  0.08590  1.0000
  H   H261      1.0  0.48666  0.17403  0.30360  1.0000
  H   H262      1.0  0.49073  0.05813  0.38867  1.0000
  C   C275      1.0  0.49028  0.03989  0.38217  1.0000
  H   H263      1.0  0.46884  0.49076  0.00252  1.0000
  C   C276      1.0  0.29553  0.32303  0.99631  1.0000
  Fe  Fe37      1.0  0.27882  0.29679  0.86015  1.0000
  C   C277      1.0  0.46872  0.03638  0.62115  1.0000
  S   S74       1.0  0.30148  0.27501  0.83396  1.0000
  Fe  Fe38      1.0  0.28211  0.34510  0.88687  1.0000
  H   H264      1.0  0.28475  0.38025  0.97993  1.0000
  S   S75       1.0  0.30919  0.37159  0.90143  1.0000
  H   H265      1.0  0.44583  0.01069  0.60393  1.0000
  H   H266      1.0  0.30029  0.03125  0.68642  1.0000
  C   C278      1.0  0.29203  0.33980  0.95542  1.0000
  S   S76       1.0  0.29132  0.30707  0.89713  1.0000
  S   S77       1.0  0.27287  0.33523  0.84888  1.0000
  H   H267      1.0  0.29836  0.30540  0.98854  1.0000
  S   S78       1.0  0.33737  0.47186  0.85385  1.0000
  C   C279      1.0  0.45974  0.01337  0.61719  1.0000
  Fe  Fe39      1.0  0.29254  0.11695  0.71942  1.0000
  S   S79       1.0  0.31055  0.14142  0.69216  1.0000
  S   S80       1.0  0.29102  0.07875  0.70411  1.0000
  Fe  Fe40      1.0  0.29015  0.15816  0.75685  1.0000
  S   S81       1.0  0.30965  0.18381  0.73259  1.0000
  S   S82       1.0  0.27396  0.17232  0.79190  1.0000
  Fe  Fe41      1.0  0.28461  0.17010  0.70429  1.0000
  Fe  Fe42      1.0  0.33352  0.15260  0.72300  1.0000
  S   S83       1.0  0.37415  0.14992  0.72136  1.0000
  S   S84       1.0  0.26430  0.14503  0.72861  1.0000
  S   S85       1.0  0.31633  0.12769  0.75009  1.0000
  Fe  Fe43      1.0  0.47093  0.14567  0.62034  1.0000
  S   S86       1.0  0.44082  0.17107  0.63108  1.0000
  S   S87       1.0  0.46815  0.12488  0.58595  1.0000
  N   N24       1.0  0.47415  0.17476  0.69223  1.0000
  S   S88       1.0  0.24465  0.28577  0.94486  1.0000
  C   C280      1.0  0.42047  0.16272  0.65422  1.0000
  C   C281      1.0  0.39914  0.17593  0.65743  1.0000
  C   C282      1.0  0.38376  0.17109  0.67713  1.0000
  C   C283      1.0  0.38993  0.15329  0.69394  1.0000
  C   C284      1.0  0.41080  0.13959  0.69028  1.0000
  C   C285      1.0  0.42593  0.14420  0.67046  1.0000
  H   H268      1.0  0.39480  0.19036  0.64499  1.0000
  H   H269      1.0  0.36779  0.18191  0.67997  1.0000
  H   H270      1.0  0.41573  0.12589  0.70332  1.0000
  H   H271      1.0  0.44232  0.13408  0.66849  1.0000
  N   N25       1.0  0.29143  0.34254  0.98172  1.0000
  C   C286      1.0  0.48745  0.99700  0.64671  1.0000
  H   H272      1.0  0.25043  0.20271  0.75710  1.0000
  S   S89       1.0  0.45819  0.06030  0.60358  1.0000
  C   C287      1.0  0.29505  0.02938  0.70517  1.0000
  C   C288      1.0  0.28986  0.05014  0.71870  1.0000
  C   C289      1.0  0.28298  0.04742  0.74289  1.0000
  C   C290      1.0  0.28074  0.02425  0.75318  1.0000
  H   H273      1.0  0.27883  0.06314  0.75353  1.0000
  H   H274      1.0  0.48781  0.14538  0.71300  1.0000
  C   C291      1.0  0.29306  0.24667  0.82233  1.0000
  C   C292      1.0  0.27328  0.23394  0.83135  1.0000
  C   C293      1.0  0.26765  0.21118  0.82191  1.0000
  C   C294      1.0  0.28156  0.20103  0.80327  1.0000
  C   C295      1.0  0.30113  0.21393  0.79411  1.0000
  C   C296      1.0  0.30687  0.23655  0.80364  1.0000
  C   C297      1.0  0.45656  0.19189  0.68998  1.0000
  H   H275      1.0  0.48044  0.11613  0.53166  1.0000
  H   H276      1.0  0.31224  0.20626  0.78006  1.0000
  H   H277      1.0  0.32228  0.24615  0.79664  1.0000
  H   H278      1.0  0.25255  0.20129  0.82922  1.0000
  Fe  Fe44      1.0  0.25278  0.30437  0.90890  1.0000
  C   C298      1.0  0.28582  0.00351  0.73964  1.0000
  H   H279      1.0  0.31059  0.34252  0.94847  1.0000
  Fe  Fe45      1.0  0.47968  0.09367  0.60867  1.0000
  C   C299      1.0  0.31490  0.40041  0.88908  1.0000
  C   C300      1.0  0.33269  0.41461  0.89968  1.0000
  C   C301      1.0  0.33916  0.43688  0.88946  1.0000
  C   C302      1.0  0.32789  0.44514  0.86848  1.0000
  C   C303      1.0  0.30962  0.43124  0.85821  1.0000
  C   C304      1.0  0.30315  0.40891  0.86844  1.0000
  H   H280      1.0  0.34182  0.40823  0.91569  1.0000
  H   H281      1.0  0.35316  0.44746  0.89761  1.0000
  H   H282      1.0  0.30073  0.43758  0.84204  1.0000
  H   H283      1.0  0.28937  0.39816  0.86015  1.0000
  N   N26       1.0  0.37251  0.09476  0.66732  1.0000
  C   C305      1.0  0.39172  0.07937  0.66585  1.0000
  C   C306      1.0  0.37049  0.11366  0.65152  1.0000
  C   C307      1.0  0.40922  0.08233  0.64778  1.0000
  C   C308      1.0  0.38765  0.11714  0.63324  1.0000
  C   C309      1.0  0.40709  0.10132  0.63138  1.0000
  C   C310      1.0  0.35446  0.09177  0.68651  1.0000
  H   H284      1.0  0.39365  0.06473  0.67869  1.0000
  H   H285      1.0  0.35577  0.12640  0.65331  1.0000
  H   H286      1.0  0.42444  0.07010  0.64650  1.0000
  H   H287      1.0  0.38629  0.13241  0.62103  1.0000
  H   H288      1.0  0.42072  0.10396  0.61748  1.0000
  H   H289      1.0  0.35760  0.10491  0.70115  1.0000
  H   H290      1.0  0.33603  0.09465  0.67935  1.0000
  H   H291      1.0  0.35473  0.07341  0.69449  1.0000
  H   H292      1.0  0.25555  0.22635  0.63403  1.0000
  H   H293      1.0  0.45657  0.20413  0.67464  1.0000
  S   S90       1.0  0.26707  0.19979  0.68230  1.0000
  C   C311      1.0  0.43761  0.19303  0.70667  1.0000
  N   N27       1.0  0.34304  0.35534  0.84696  1.0000
  C   C312      1.0  0.33095  0.36184  0.82647  1.0000
  C   C313      1.0  0.35797  0.37126  0.85799  1.0000
  C   C314      1.0  0.33359  0.38491  0.81660  1.0000
  C   C315      1.0  0.36121  0.39437  0.84847  1.0000
  C   C316      1.0  0.34888  0.40121  0.82768  1.0000
  C   C317      1.0  0.34049  0.33109  0.85712  1.0000
  H   H294      1.0  0.31896  0.34930  0.81780  1.0000
  H   H295      1.0  0.36694  0.36636  0.87465  1.0000
  H   H296      1.0  0.32352  0.39025  0.80073  1.0000
  H   H297      1.0  0.37241  0.40726  0.85770  1.0000
  H   H298      1.0  0.35053  0.41944  0.82075  1.0000
  H   H299      1.0  0.32615  0.32070  0.84805  1.0000
  H   H300      1.0  0.35758  0.32093  0.85508  1.0000
  H   H301      1.0  0.33567  0.33211  0.87659  1.0000
  H   H302      1.0  0.42171  0.17677  0.73834  1.0000
  H   H303      1.0  0.47807  0.06663  0.55450  1.0000
  H   H304      1.0  0.26258  0.24141  0.84585  1.0000
  C   C318      1.0  0.49259  0.01587  0.54331  1.0000
  C   C319      1.0  0.28765  0.36473  0.99153  1.0000
  C   C320      1.0  0.29332  0.00623  0.71561  1.0000
  H   H305      1.0  0.28000  0.35305  0.94638  1.0000
  H   H306      1.0  0.48386  0.01826  0.52600  1.0000
  H   H307      1.0  0.28574  0.32169  0.95008  1.0000
  H   H308      1.0  0.25109  0.26619  0.99250  1.0000
  H   H309      1.0  0.42307  0.20585  0.70420  1.0000
  S   S91       1.0  0.47975  0.11377  0.64327  1.0000
  C   C321      1.0  0.47380  0.15891  0.71122  1.0000
  C   C322      1.0  0.43687  0.17669  0.72587  1.0000
  H   H310      1.0  0.27490  0.02242  0.77176  1.0000
  H   H311      1.0  0.45443  0.14654  0.74289  1.0000
  S   S92       1.0  0.39916  0.48563  0.95532  1.0000
  H   H312      1.0  0.45364  0.48881  0.95995  1.0000
  S   S93       1.0  0.40020  0.48153  0.88513  1.0000
  C   C323      1.0  0.49037  0.12039  0.51537  1.0000
  C   C324      1.0  0.45511  0.15956  0.72825  1.0000
  H   H313      1.0  0.48760  0.17942  0.65642  1.0000
  H   H314      1.0  0.25365  0.27012  0.64233  1.0000
  H   H315      1.0  0.26425  0.24186  0.76674  1.0000
  C   C325      1.0  0.48670  0.03987  0.63827  1.0000
  S   S94       1.0  0.24404  0.34282  0.90047  1.0000
  C   C326      1.0  0.46918  0.99369  0.62986  1.0000
  C   C327      1.0  0.24600  0.28485  0.99457  1.0000
  C   C328      1.0  0.24579  0.24844  0.77095  1.0000
  H   H316      1.0  0.24456  0.26731  0.76443  1.0000
  Fe  Fe46      1.0  0.27851  0.74918  0.08700  1.0000
  S   S95       1.0  0.30872  0.73269  0.10848  1.0000
  S   S96       1.0  0.25136  0.72133  0.09715  1.0000
  C   C329      1.0  0.45307  0.51604  0.02711  1.0000
  S   S97       1.0  0.26972  0.72592  0.15322  1.0000
  Fe  Fe47      1.0  0.29475  0.75480  0.13976  1.0000
  S   S98       1.0  0.31569  0.77364  0.16916  1.0000
  Fe  Fe48      1.0  0.28109  0.70557  0.12000  1.0000
  S   S99       1.0  0.28590  0.66542  0.11458  1.0000
  H   H317      1.0  0.35537  0.98309  0.29690  1.0000
  H   H318      1.0  0.38304  0.62097  0.08655  1.0000
  Fe  Fe49      1.0  0.42497  0.53588  0.10263  1.0000
  S   S100      1.0  0.40384  0.53407  0.13733  1.0000
  S   S101      1.0  0.46355  0.53051  0.09006  1.0000
  Fe  Fe50      1.0  0.38003  0.54560  0.07333  1.0000
  S   S102      1.0  0.35565  0.54468  0.10531  1.0000
  S   S103      1.0  0.36582  0.55650  0.03705  1.0000
  Fe  Fe51      1.0  0.38390  0.56645  0.12297  1.0000
  S   S104      1.0  0.37542  0.60011  0.14420  1.0000
  S   S105      1.0  0.40696  0.56977  0.08995  1.0000
  Fe  Fe52      1.0  0.30636  0.89719  0.23429  1.0000
  S   S106      1.0  0.32336  0.87550  0.26378  1.0000
  S   S107      1.0  0.30585  0.88430  0.19547  1.0000
  Fe  Fe53      1.0  0.28942  0.93682  0.26903  1.0000
  S   S108      1.0  0.30340  0.91621  0.30126  1.0000
  S   S109      1.0  0.27393  0.97397  0.27789  1.0000
  Fe  Fe54      1.0  0.33653  0.91049  0.27869  1.0000
  S   S110      1.0  0.37278  0.92438  0.29130  1.0000
  Fe  Fe55      1.0  0.28851  0.88310  0.28349  1.0000
  S   S111      1.0  0.32279  0.93184  0.24688  1.0000
  S   S112      1.0  0.27131  0.90409  0.25345  1.0000
  H   H319      1.0  0.28897  0.77816  0.99898  1.0000
  S   S113      1.0  0.45674  0.87225  0.34967  1.0000
  S   S114      1.0  0.47432  0.90635  0.40701  1.0000
  H   H320      1.0  0.25863  0.69479  0.99874  1.0000
  H   H321      1.0  0.45989  0.50707  0.04315  1.0000
  C   C330      1.0  0.39482  0.90963  0.30912  1.0000
  C   C331      1.0  0.39414  0.88492  0.31387  1.0000
  C   C332      1.0  0.41315  0.87372  0.32645  1.0000
  C   C333      1.0  0.43274  0.88715  0.33478  1.0000
  C   C334      1.0  0.43306  0.91193  0.33061  1.0000
  C   C335      1.0  0.41432  0.92303  0.31764  1.0000
  H   H322      1.0  0.37922  0.87440  0.30747  1.0000
  H   H323      1.0  0.41275  0.85454  0.32960  1.0000
  H   H324      1.0  0.44802  0.92247  0.33689  1.0000
  H   H325      1.0  0.41506  0.94213  0.31402  1.0000
  H   H326      1.0  0.32661  0.49667  0.10194  1.0000
  S   S115      1.0  0.39930  0.51181  0.08358  1.0000
  C   C336      1.0  0.31061  0.80411  0.17654  1.0000
  C   C337      1.0  0.31462  0.81169  0.20030  1.0000
  C   C338      1.0  0.31233  0.83607  0.20653  1.0000
  C   C339      1.0  0.30641  0.85320  0.18892  1.0000
  C   C340      1.0  0.30200  0.84556  0.16524  1.0000
  C   C341      1.0  0.30382  0.82109  0.15912  1.0000
  H   H327      1.0  0.31966  0.79864  0.21394  1.0000
  H   H328      1.0  0.31558  0.84160  0.22486  1.0000
  H   H329      1.0  0.29747  0.85867  0.15147  1.0000
  H   H330      1.0  0.30084  0.81551  0.14071  1.0000
  C   C342      1.0  0.31045  0.64751  0.12418  1.0000
  C   C343      1.0  0.32841  0.65629  0.13927  1.0000
  C   C344      1.0  0.34800  0.64143  0.14573  1.0000
  C   C345      1.0  0.34998  0.61791  0.13681  1.0000
  C   C346      1.0  0.33194  0.60921  0.12181  1.0000
  C   C347      1.0  0.31223  0.62387  0.11569  1.0000
  H   H331      1.0  0.32717  0.67443  0.14604  1.0000
  H   H332      1.0  0.36180  0.64828  0.15746  1.0000
  H   H333      1.0  0.33310  0.59117  0.11491  1.0000
  H   H334      1.0  0.29836  0.61692  0.10410  1.0000
  H   H335      1.0  0.44209  0.83008  0.38090  1.0000
  N   N28       1.0  0.44305  0.85122  0.41304  1.0000
  C   C348      1.0  0.38862  0.49717  0.00189  1.0000
  S   S116      1.0  0.28384  0.76347  0.04855  1.0000
  H   H336      1.0  0.47566  0.52720  0.14172  1.0000
  C   C349      1.0  0.38088  0.51274  0.02011  1.0000
  C   C350      1.0  0.37257  0.53578  0.01429  1.0000
  H   H337      1.0  0.38130  0.50683  0.03858  1.0000
  S   S117      1.0  0.27184  0.84903  0.29902  1.0000
  H   H338      1.0  0.47135  0.83934  0.39040  1.0000
  C   C351      1.0  0.27871  0.74787  0.02115  1.0000
  C   C352      1.0  0.34488  0.50479  0.13745  1.0000
  C   C353      1.0  0.26537  0.71298  0.99872  1.0000
  H   H339      1.0  0.26720  0.71482  0.03775  1.0000
  H   H340      1.0  0.43503  0.54394  0.04707  1.0000
  S   S118      1.0  0.26723  0.77376  0.11735  1.0000
  H   H341      1.0  0.46610  0.84165  0.44223  1.0000
  C   C354      1.0  0.45352  0.83311  0.39699  1.0000
  Fe  Fe56      1.0  0.48514  0.89261  0.37061  1.0000
  C   C355      1.0  0.27024  0.72427  0.02089  1.0000
  C   C356      1.0  0.43921  0.53684  0.02934  1.0000
  H   H342      1.0  0.45573  0.81568  0.40658  1.0000
  H   H343      1.0  0.35904  0.52705  0.17774  1.0000
  C   C357      1.0  0.42575  0.86672  0.40475  1.0000
  C   C358      1.0  0.41659  0.88483  0.41964  1.0000
  C   C359      1.0  0.28238  0.75991  0.99901  1.0000
  H   H344      1.0  0.45099  0.87356  0.46905  1.0000
  C   C360      1.0  0.42548  0.88719  0.44303  1.0000
  H   H345      1.0  0.29265  0.98845  0.23041  1.0000
  S   S119      1.0  0.48550  0.97386  0.41157  1.0000
  H   H346      1.0  0.41937  0.86556  0.38631  1.0000
  Fe  Fe57      1.0  0.37545  0.50956  0.11833  1.0000
  H   H347      1.0  0.49002  0.97424  0.35945  1.0000
  C   C361      1.0  0.45182  0.85341  0.43592  1.0000
  C   C362      1.0  0.43061  0.54836  0.00867  1.0000
  C   C363      1.0  0.36633  0.50846  0.17672  1.0000
  H   H348      1.0  0.29198  0.66451  0.05986  1.0000
  H   H349      1.0  0.31136  0.68106  0.03913  1.0000
  N   N29       1.0  0.36613  0.49994  0.15177  1.0000
  H   H350      1.0  0.32995  0.51489  0.14494  1.0000
  H   H351      1.0  0.30642  0.69106  0.06967  1.0000
  H   H352      1.0  0.38484  0.50868  0.18408  1.0000
  C   C364      1.0  0.44323  0.87142  0.45124  1.0000
  C   C365      1.0  0.45806  0.50695  0.00412  1.0000
  N   N30       1.0  0.37563  0.85280  0.21695  1.0000
  C   C366      1.0  0.36518  0.87078  0.20363  1.0000
  C   C367      1.0  0.38748  0.85798  0.23784  1.0000
  C   C368      1.0  0.36626  0.89463  0.21126  1.0000
  C   C369      1.0  0.38924  0.88170  0.24576  1.0000
  C   C370      1.0  0.37846  0.90009  0.23243  1.0000
  C   C371      1.0  0.37389  0.82774  0.20925  1.0000
  H   H353      1.0  0.35550  0.86677  0.18722  1.0000
  H   H354      1.0  0.39551  0.84375  0.24859  1.0000
  H   H355      1.0  0.35720  0.90866  0.20103  1.0000
  H   H356      1.0  0.39858  0.88583  0.26235  1.0000
  H   H357      1.0  0.37925  0.91848  0.23875  1.0000
  H   H358      1.0  0.39207  0.81960  0.20754  1.0000
  H   H359      1.0  0.36319  0.81729  0.22264  1.0000
  H   H360      1.0  0.36484  0.82607  0.19147  1.0000
  N   N31       1.0  0.32944  0.66031  0.06585  1.0000
  C   C372      1.0  0.33213  0.63755  0.05703  1.0000
  C   C373      1.0  0.34600  0.66945  0.08143  1.0000
  C   C374      1.0  0.35159  0.62314  0.06406  1.0000
  C   C375      1.0  0.36565  0.65553  0.08887  1.0000
  C   C376      1.0  0.36837  0.63222  0.08018  1.0000
  C   C377      1.0  0.30888  0.67497  0.05811  1.0000
  H   H361      1.0  0.31894  0.63023  0.04483  1.0000
  H   H362      1.0  0.34363  0.68728  0.08886  1.0000
  H   H363      1.0  0.35338  0.60487  0.05750  1.0000
  H   H364      1.0  0.37817  0.66242  0.10202  1.0000
  H   H365      1.0  0.40327  0.89738  0.41279  1.0000
  H   H366      1.0  0.32347  0.98587  0.30321  1.0000
  H   H367      1.0  0.35515  0.49632  0.18809  1.0000
  C   C378      1.0  0.49076  0.52592  0.10589  1.0000
  H   H368      1.0  0.25819  0.79271  0.17346  1.0000
  H   H369      1.0  0.41910  0.90159  0.45453  1.0000
  H   H370      1.0  0.33354  0.98235  0.27296  1.0000
  H   H371      1.0  0.41932  0.56422  0.01030  1.0000
  H   H372      1.0  0.26325  0.82672  0.20151  1.0000
  C   C379      1.0  0.34282  0.49413  0.11241  1.0000
  C   C380      1.0  0.49190  0.52515  0.13111  1.0000
  C   C381      1.0  0.25276  0.78184  0.18947  1.0000
  H   H373      1.0  0.26911  0.77366  0.19756  1.0000
  C   C382      1.0  0.24821  0.81949  0.21164  1.0000
  C   C383      1.0  0.33812  0.99089  0.29041  1.0000
  H   H374      1.0  0.24622  0.80466  0.30360  1.0000
  C   C384      1.0  0.49012  0.99246  0.36583  1.0000
  H   H375      1.0  0.24362  0.85174  0.23275  1.0000
  Fe  Fe58      1.0  0.28792  0.74216  0.86340  1.0000
  H   H376      1.0  0.35758  0.80753  0.84358  1.0000
  S   S120      1.0  0.31268  0.76823  0.84384  1.0000
  Fe  Fe59      1.0  0.27567  0.68876  0.86511  1.0000
  H   H377      1.0  0.37224  0.82428  0.80466  1.0000
  S   S121      1.0  0.28378  0.65047  0.85332  1.0000
  Fe  Fe60      1.0  0.26493  0.71997  0.90906  1.0000
  C   C385      1.0  0.40900  0.94380  0.64301  1.0000
  S   S122      1.0  0.26767  0.71827  0.83840  1.0000
  S   S123      1.0  0.29901  0.71168  0.88829  1.0000
  H   H378      1.0  0.39568  0.56495  0.79595  1.0000
  S   S124      1.0  0.37959  0.52942  0.85658  1.0000
  S   S125      1.0  0.25514  0.87159  0.68698  1.0000
  H   H379      1.0  0.36005  0.62192  0.83443  1.0000
  S   S126      1.0  0.35452  0.51331  0.90818  1.0000
  C   C386      1.0  0.35210  0.82541  0.83780  1.0000
  Fe  Fe61      1.0  0.37281  0.54601  0.89284  1.0000
  S   S127      1.0  0.36406  0.58491  0.90157  1.0000
  S   S128      1.0  0.40913  0.53558  0.90712  1.0000
  Fe  Fe62      1.0  0.27807  0.89004  0.71495  1.0000
  S   S129      1.0  0.26173  0.90758  0.74741  1.0000
  Fe  Fe63      1.0  0.32907  0.89876  0.73183  1.0000
  S   S130      1.0  0.31601  0.91597  0.76620  1.0000
  S   S131      1.0  0.36982  0.89604  0.72989  1.0000
  Fe  Fe64      1.0  0.28910  0.88614  0.76801  1.0000
  S   S132      1.0  0.27610  0.86800  0.80246  1.0000
  Fe  Fe65      1.0  0.28999  0.93610  0.74258  1.0000
  S   S133      1.0  0.28078  0.97480  0.75316  1.0000
  S   S134      1.0  0.30419  0.86717  0.73582  1.0000
  S   S135      1.0  0.30432  0.92040  0.70792  1.0000
  C   C387      1.0  0.27551  0.65402  0.92541  1.0000
  H   H380      1.0  0.34664  0.86042  0.77017  1.0000
  S   S136      1.0  0.43050  0.88189  0.63320  1.0000
  S   S137      1.0  0.25592  0.75253  0.88609  1.0000
  H   H381      1.0  0.42557  0.56190  0.82860  1.0000
  N   N32       1.0  0.27939  0.62829  0.92153  1.0000
  S   S138      1.0  0.26125  0.71017  0.94935  1.0000
  H   H382      1.0  0.29734  0.99052  0.70493  1.0000
  C   C388      1.0  0.38622  0.89052  0.70300  1.0000
  C   C389      1.0  0.37483  0.88737  0.68083  1.0000
  C   C390      1.0  0.38863  0.88419  0.65967  1.0000
  C   C391      1.0  0.41387  0.88466  0.66040  1.0000
  C   C392      1.0  0.42523  0.88776  0.68260  1.0000
  C   C393      1.0  0.41145  0.89038  0.70382  1.0000
  H   H383      1.0  0.35541  0.88731  0.67997  1.0000
  H   H384      1.0  0.37971  0.88159  0.64259  1.0000
  H   H385      1.0  0.44463  0.88788  0.68346  1.0000
  H   H386      1.0  0.42042  0.89269  0.72091  1.0000
  C   C394      1.0  0.38761  0.50445  0.97773  1.0000
  H   H387      1.0  0.39297  0.94795  0.72467  1.0000
  C   C395      1.0  0.37845  0.52716  0.97176  1.0000
  H   H388      1.0  0.37761  0.53290  0.95312  1.0000
  C   C396      1.0  0.29936  0.79372  0.83014  1.0000
  C   C397      1.0  0.30832  0.80236  0.80796  1.0000
  C   C398      1.0  0.30047  0.82459  0.79852  1.0000
  C   C399      1.0  0.28390  0.83849  0.81147  1.0000
  C   C400      1.0  0.27419  0.82935  0.83309  1.0000
  C   C401      1.0  0.28176  0.80700  0.84232  1.0000
  H   H389      1.0  0.32191  0.79213  0.79841  1.0000
  H   H390      1.0  0.30790  0.83135  0.78173  1.0000
  H   H391      1.0  0.26130  0.83996  0.84318  1.0000
  H   H392      1.0  0.27481  0.80060  0.85947  1.0000
  C   C402      1.0  0.26886  0.72508  0.97656  1.0000
  C   C403      1.0  0.27751  0.74861  0.97683  1.0000
  N   N33       1.0  0.35221  0.85690  0.80787  1.0000
  C   C404      1.0  0.26964  0.59236  0.89999  1.0000
  H   H393      1.0  0.31646  0.58267  0.93796  1.0000
  C   C405      1.0  0.30758  0.63304  0.86524  1.0000
  C   C406      1.0  0.31005  0.60893  0.85823  1.0000
  C   C407      1.0  0.32754  0.59394  0.86888  1.0000
  C   C408      1.0  0.34269  0.60306  0.88659  1.0000
  C   C409      1.0  0.34075  0.62735  0.89299  1.0000
  C   C410      1.0  0.32331  0.64230  0.88235  1.0000
  H   H394      1.0  0.29799  0.60167  0.84492  1.0000
  H   H395      1.0  0.32899  0.57529  0.86371  1.0000
  H   H396      1.0  0.35259  0.63458  0.90653  1.0000
  H   H397      1.0  0.32183  0.66090  0.88763  1.0000
  C   C411      1.0  0.30169  0.59195  0.92910  1.0000
  H   H398      1.0  0.28546  0.66082  0.94128  1.0000
  C   C412      1.0  0.28774  0.57994  0.91224  1.0000
  C   C413      1.0  0.40641  0.94860  0.71039  1.0000
  N   N34       1.0  0.44937  0.51823  0.98394  1.0000
  H   H399      1.0  0.45374  0.94781  0.65935  1.0000
  H   H400      1.0  0.44295  0.51554  0.94599  1.0000
  C   C414      1.0  0.36014  0.83491  0.81574  1.0000
  C   C415      1.0  0.37096  0.54284  0.99005  1.0000
  H   H401      1.0  0.31392  0.87055  0.85348  1.0000
  C   C416      1.0  0.35972  0.86597  0.78410  1.0000
  C   C417      1.0  0.29727  0.61629  0.93353  1.0000
  H   H402      1.0  0.46685  0.95216  0.70140  1.0000
  C   C418      1.0  0.39161  0.60656  0.85117  1.0000
  S   S139      1.0  0.47331  0.93030  0.61177  1.0000
  C   C419      1.0  0.33567  0.83844  0.85167  1.0000
  Fe  Fe66      1.0  0.39148  0.50156  0.91903  1.0000
  N   N35       1.0  0.41647  0.94580  0.66824  1.0000
  C   C420      1.0  0.37453  0.60884  0.83286  1.0000
  H   H403      1.0  0.26075  0.95341  0.67274  1.0000
  H   H404      1.0  0.39016  0.61804  0.86687  1.0000
  C   C421      1.0  0.32756  0.86076  0.84343  1.0000
  H   H405      1.0  0.42882  0.54761  0.96999  1.0000
  H   H406      1.0  0.32862  0.88653  0.81448  1.0000
  H   H407      1.0  0.40678  0.96194  0.63489  1.0000
  H   H408      1.0  0.28029  0.75817  0.95998  1.0000
  H   H409      1.0  0.28156  0.66427  0.90926  1.0000
  H   H410      1.0  0.36080  0.88591  0.78389  1.0000
  N   N36       1.0  0.40937  0.58956  0.84977  1.0000
  H   H411      1.0  0.42252  0.93356  0.63233  1.0000
  C   C422      1.0  0.44031  0.94812  0.67355  1.0000
  H   H412      1.0  0.43635  0.95205  0.73461  1.0000
  C   C423      1.0  0.37588  0.59373  0.81292  1.0000
  H   H413      1.0  0.38065  0.94414  0.68217  1.0000
  C   C424      1.0  0.47852  0.51108  0.89037  1.0000
  H   H414      1.0  0.43631  0.56982  0.86908  1.0000
  C   C425      1.0  0.44783  0.95054  0.69743  1.0000
  H   H415      1.0  0.46217  0.97608  0.62660  1.0000
  C   C426      1.0  0.39445  0.57687  0.81132  1.0000
  Fe  Fe67      1.0  0.41490  0.51684  0.87206  1.0000
  C   C427      1.0  0.47749  0.51985  0.86668  1.0000
  H   H416      1.0  0.32846  0.83074  0.86824  1.0000
  H   H417      1.0  0.25133  0.79020  0.80375  1.0000
  H   H418      1.0  0.29150  0.56126  0.90812  1.0000
  C   C428      1.0  0.41128  0.57517  0.82993  1.0000
  C   C429      1.0  0.39954  0.94633  0.68626  1.0000
  H   H419      1.0  0.41761  0.58872  0.88720  1.0000
  H   H420      1.0  0.44042  0.60190  0.86774  1.0000
  H   H421      1.0  0.36444  0.56061  0.98543  1.0000
  C   C430      1.0  0.33593  0.86970  0.82127  1.0000
  C   C431      1.0  0.42684  0.58745  0.86938  1.0000
  C   C432      1.0  0.43074  0.95065  0.71596  1.0000
  C   C433      1.0  0.26577  0.61672  0.90480  1.0000
  S   S140      1.0  0.44972  0.52319  0.85150  1.0000
  C   C434      1.0  0.24645  0.94790  0.68493  1.0000
  C   C435      1.0  0.43598  0.53881  0.98595  1.0000
  H   H422      1.0  0.25615  0.65798  0.92856  1.0000
  H   H423      1.0  0.46213  0.50607  0.89967  1.0000
  H   H424      1.0  0.30871  0.62565  0.94608  1.0000
  Fe  Fe68      1.0  0.46914  0.89443  0.63002  1.0000
  H   H425      1.0  0.25242  0.62658  0.89443  1.0000
  H   H426      1.0  0.36247  0.59504  0.79882  1.0000
  H   H427      1.0  0.37778  0.85913  0.77882  1.0000
  H   H428      1.0  0.39192  0.93367  0.64152  1.0000
  H   H429      1.0  0.25235  0.97664  0.70971  1.0000
  C   C436      1.0  0.45545  0.50869  0.96005  1.0000
  H   H430      1.0  0.49044  0.97701  0.54208  1.0000
  H   H431      1.0  0.47408  0.51375  0.95495  1.0000
  H   H432      1.0  0.25925  0.58346  0.88621  1.0000
  Fe  Fe69      1.0  0.36422  0.49548  0.87311  1.0000
  H   H433      1.0  0.24611  0.83241  0.76695  1.0000
  S   S141      1.0  0.49321  0.90296  0.66116  1.0000
  H   H434      1.0  0.24853  0.74652  0.79722  1.0000
  H   H435      1.0  0.68231  0.20009  0.10630  1.0000
  S   S142      1.0  0.69836  0.31375  0.10377  1.0000
  C   C437      1.0  0.54642  0.18378  0.29475  1.0000
  C   C438      1.0  0.50494  0.17980  0.30708  1.0000
  Fe  Fe70      1.0  0.71611  0.28599  0.12748  1.0000
  S   S143      1.0  0.69504  0.25290  0.13833  1.0000
  Fe  Fe71      1.0  0.71151  0.34044  0.13067  1.0000
  S   S144      1.0  0.68385  0.36786  0.14269  1.0000
  H   H436      1.0  0.56327  0.99789  0.42160  1.0000
  H   H437      1.0  0.73151  0.35002  0.99807  1.0000
  H   H438      1.0  0.69456  0.45994  0.06703  1.0000
  Fe  Fe72      1.0  0.71891  0.15064  0.23433  1.0000
  S   S145      1.0  0.69780  0.17386  0.25960  1.0000
  C   C439      1.0  0.55179  0.01860  0.34915  1.0000
  Fe  Fe73      1.0  0.72110  0.10846  0.27097  1.0000
  S   S146      1.0  0.70160  0.13010  0.29935  1.0000
  H   H439      1.0  0.61225  0.09819  0.33831  1.0000
  Fe  Fe74      1.0  0.67690  0.14057  0.26920  1.0000
  S   S147      1.0  0.63626  0.13587  0.27123  1.0000
  S   S148      1.0  0.69572  0.11799  0.24098  1.0000
  C   C440      1.0  0.51561  0.13166  0.47273  1.0000
  N   N37       1.0  0.54888  0.99624  0.38630  1.0000
  S   S149      1.0  0.50879  0.12649  0.33617  1.0000
  H   H440      1.0  0.65047  0.46647  0.06485  1.0000
  C   C441      1.0  0.71253  0.03979  0.24997  1.0000
  C   C442      1.0  0.55549  0.99731  0.33651  1.0000
  Fe  Fe75      1.0  0.53203  0.13653  0.36735  1.0000
  S   S150      1.0  0.56904  0.15322  0.36297  1.0000
  S   S151      1.0  0.52735  0.10172  0.38775  1.0000
  C   C443      1.0  0.61813  0.14065  0.29714  1.0000
  C   C444      1.0  0.59395  0.13351  0.29666  1.0000
  C   C445      1.0  0.57896  0.13644  0.31700  1.0000
  C   C446      1.0  0.58791  0.14696  0.33792  1.0000
  C   C447      1.0  0.61210  0.15409  0.33843  1.0000
  C   C448      1.0  0.62722  0.15082  0.31819  1.0000
  H   H441      1.0  0.58679  0.12554  0.28047  1.0000
  H   H442      1.0  0.56037  0.13093  0.31632  1.0000
  H   H443      1.0  0.61916  0.16236  0.35451  1.0000
  H   H444      1.0  0.64583  0.15633  0.31881  1.0000
  C   C449      1.0  0.69144  0.42153  0.07223  1.0000
  H   H445      1.0  0.68928  0.36983  0.06061  1.0000
  H   H446      1.0  0.51877  0.16808  0.27269  1.0000
  H   H447      1.0  0.70767  0.05559  0.23959  1.0000
  C   C450      1.0  0.54853  0.01774  0.37421  1.0000
  H   H448      1.0  0.71824  0.24999  0.08395  1.0000
  S   S152      1.0  0.73302  0.07090  0.28321  1.0000
  Fe  Fe76      1.0  0.72461  0.16121  0.28712  1.0000
  H   H449      1.0  0.74135  0.16542  0.14195  1.0000
  C   C451      1.0  0.73162  0.33068  0.99645  1.0000
  C   C452      1.0  0.53432  0.19696  0.33367  1.0000
  C   C453      1.0  0.70645  0.23221  0.15976  1.0000
  C   C454      1.0  0.69074  0.21552  0.17044  1.0000
  C   C455      1.0  0.69961  0.19655  0.18479  1.0000
  C   C456      1.0  0.72435  0.19380  0.18804  1.0000
  H   H450      1.0  0.70864  0.22683  0.06334  1.0000
  H   H451      1.0  0.52544  0.13612  0.45642  1.0000
  H   H452      1.0  0.67166  0.21687  0.16701  1.0000
  H   H453      1.0  0.68740  0.18333  0.19222  1.0000
  C   C457      1.0  0.68451  0.39904  0.13681  1.0000
  C   C458      1.0  0.70600  0.41122  0.13226  1.0000
  C   C459      1.0  0.70574  0.43633  0.12896  1.0000
  C   C460      1.0  0.68397  0.44927  0.12955  1.0000
  C   C461      1.0  0.66248  0.43694  0.13345  1.0000
  C   C462      1.0  0.66281  0.41198  0.13737  1.0000
  H   H454      1.0  0.72281  0.40142  0.13189  1.0000
  H   H455      1.0  0.72242  0.44581  0.12599  1.0000
  H   H456      1.0  0.64567  0.44673  0.13415  1.0000
  H   H457      1.0  0.64615  0.40268  0.14105  1.0000
  H   H458      1.0  0.58119  0.20010  0.34013  1.0000
  C   C463      1.0  0.65179  0.40611  0.07451  1.0000
  S   S153      1.0  0.61529  0.48402  0.10538  1.0000
  C   C464      1.0  0.70151  0.19845  0.10915  1.0000
  C   C465      1.0  0.73109  0.23038  0.16434  1.0000
  N   N38       1.0  0.65829  0.07877  0.30322  1.0000
  C   C466      1.0  0.67598  0.07725  0.32021  1.0000
  C   C467      1.0  0.63551  0.08558  0.30965  1.0000
  C   C468      1.0  0.67137  0.08388  0.34411  1.0000
  C   C469      1.0  0.63018  0.09208  0.33345  1.0000
  C   C470      1.0  0.64833  0.09151  0.35069  1.0000
  C   C471      1.0  0.66355  0.07219  0.27817  1.0000
  H   H459      1.0  0.69394  0.07137  0.31522  1.0000
  H   H460      1.0  0.62148  0.08676  0.29617  1.0000
  Fe  Fe77      1.0  0.50204  0.09309  0.35773  1.0000
  C   C472      1.0  0.73327  0.29133  0.01497  1.0000
  H   H461      1.0  0.68889  0.23806  0.08691  1.0000
  H   H462      1.0  0.68239  0.07665  0.27334  1.0000
  H   H463      1.0  0.66094  0.05262  0.27564  1.0000
  H   H464      1.0  0.65199  0.08245  0.26537  1.0000
  C   C473      1.0  0.74003  0.21104  0.17819  1.0000
  C   C474      1.0  0.73144  0.02145  0.28468  1.0000
  C   C475      1.0  0.64221  0.42912  0.07069  1.0000
  H   H465      1.0  0.58974  0.19296  0.30993  1.0000
  C   C476      1.0  0.54570  0.99567  0.41259  1.0000
  H   H466      1.0  0.64455  0.09712  0.36906  1.0000
  C   C477      1.0  0.73315  0.31632  0.01743  1.0000
  C   C478      1.0  0.70689  0.01673  0.24134  1.0000
  H   H467      1.0  0.67351  0.36675  0.08921  1.0000
  S   S154      1.0  0.73635  0.16734  0.20106  1.0000
  C   C479      1.0  0.74114  0.21293  0.10296  1.0000
  H   H468      1.0  0.74116  0.02315  0.30143  1.0000
  S   S155      1.0  0.68432  0.48076  0.12560  1.0000
  H   H469      1.0  0.62291  0.43203  0.07020  1.0000
  H   H470      1.0  0.69768  0.16834  0.13373  1.0000
  H   H471      1.0  0.53871  0.20450  0.35110  1.0000
  H   H472      1.0  0.63965  0.39112  0.07702  1.0000
  H   H473      1.0  0.73453  0.28004  0.03087  1.0000
  S   S156      1.0  0.72631  0.31229  0.15595  1.0000
  H   H474      1.0  0.55041  0.03561  0.33953  1.0000
  C   C480      1.0  0.57614  0.20282  0.32089  1.0000
  H   H475      1.0  0.71071  0.41879  0.07305  1.0000
  C   C481      1.0  0.68593  0.37826  0.07846  1.0000
  C   C482      1.0  0.51063  0.19004  0.32920  1.0000
  C   C483      1.0  0.72498  0.04229  0.27167  1.0000
  N   N39       1.0  0.71698  0.21454  0.09872  1.0000
  C   C484      1.0  0.65769  0.44853  0.06770  1.0000
  N   N40       1.0  0.67614  0.40259  0.07534  1.0000
  C   C485      1.0  0.68245  0.44480  0.06861  1.0000
  H   H476      1.0  0.56034  0.18112  0.28121  1.0000
  H   H477      1.0  0.54483  0.03431  0.38376  1.0000
  H   H478      1.0  0.70311  0.37854  0.08859  1.0000
  N   N41       1.0  0.55182  0.19388  0.31649  1.0000
  C   C486      1.0  0.70777  0.23315  0.08228  1.0000
  H   H479      1.0  0.53311  0.01003  0.41858  1.0000
  S   S157      1.0  0.50180  0.15529  0.38723  1.0000
  C   C487      1.0  0.52295  0.17644  0.28978  1.0000
  C   C488      1.0  0.71007  0.18040  0.12461  1.0000
  H   H480      1.0  0.69756  0.01505  0.22438  1.0000
  H   H481      1.0  0.57712  0.22223  0.31637  1.0000
  H   H482      1.0  0.68569  0.08334  0.35731  1.0000
  H   H483      1.0  0.55738  0.99767  0.31701  1.0000
  S   S158      1.0  0.73581  0.33070  0.04594  1.0000
  H   H484      1.0  0.49647  0.00772  0.33050  1.0000
  C   C489      1.0  0.73463  0.17876  0.12921  1.0000
  Fe  Fe78      1.0  0.73417  0.31797  0.08540  1.0000
  Fe  Fe79      1.0  0.49537  0.11957  0.40535  1.0000
  S   S159      1.0  0.74195  0.19100  0.30847  1.0000
  C   C490      1.0  0.52529  0.13715  0.49551  1.0000
  H   H485      1.0  0.73740  0.22360  0.26508  1.0000
  H   H486      1.0  0.73471  0.23971  0.23654  1.0000
  S   S160      1.0  0.50241  0.05824  0.33799  1.0000
  C   C491      1.0  0.72567  0.99837  0.27611  1.0000
  H   H487      1.0  0.73518  0.20767  0.23705  1.0000
  S   S161      1.0  0.60899  0.48907  0.03678  1.0000
  C   C492      1.0  0.71348  0.99588  0.25427  1.0000
  H   H488      1.0  0.49676  0.19229  0.34289  1.0000
  H   H489      1.0  0.74335  0.24312  0.15617  1.0000
  C   C493      1.0  0.74280  0.22385  0.24572  1.0000
  C   C494      1.0  0.49419  0.03509  0.35773  1.0000
  C   C495      1.0  0.49357  0.01143  0.34945  1.0000
  Fe  Fe80      1.0  0.71793  0.34736  0.87805  1.0000
  S   S162      1.0  0.70906  0.38554  0.88986  1.0000
  Fe  Fe81      1.0  0.70997  0.29905  0.85328  1.0000
  S   S163      1.0  0.69052  0.28019  0.82279  1.0000
  H   H490      1.0  0.70041  0.23813  0.85269  1.0000
  C   C496      1.0  0.51414  0.00924  0.58786  1.0000
  S   S164      1.0  0.69521  0.31524  0.88777  1.0000
  H   H491      1.0  0.50158  0.15558  0.67303  1.0000
  Fe  Fe82      1.0  0.72874  0.30082  0.90546  1.0000
  H   H492      1.0  0.68914  0.48616  0.84367  1.0000
  S   S165      1.0  0.63826  0.46382  0.84505  1.0000
  S   S166      1.0  0.74129  0.28175  0.87174  1.0000
  H   H493      1.0  0.63742  0.17030  0.73795  1.0000
  S   S167      1.0  0.50970  0.15569  0.61384  1.0000
  C   C497      1.0  0.49589  0.02018  0.65123  1.0000
  H   H494      1.0  0.66277  0.04568  0.69162  1.0000
  S   S168      1.0  0.52553  0.13911  0.54518  1.0000
  Fe  Fe83      1.0  0.51849  0.12208  0.63488  1.0000
  S   S169      1.0  0.54216  0.11824  0.66816  1.0000
  S   S170      1.0  0.51916  0.09831  0.60209  1.0000
  Fe  Fe84      1.0  0.69960  0.15398  0.76005  1.0000
  S   S171      1.0  0.70084  0.17663  0.72658  1.0000
  S   S172      1.0  0.69799  0.16956  0.79783  1.0000
  Fe  Fe85      1.0  0.70108  0.10643  0.73191  1.0000
  S   S173      1.0  0.70343  0.12630  0.69644  1.0000
  H   H495      1.0  0.72090  0.01401  0.77704  1.0000
  Fe  Fe86      1.0  0.67458  0.15036  0.71110  1.0000
  S   S174      1.0  0.64530  0.16399  0.68589  1.0000
  S   S175      1.0  0.67076  0.12977  0.74578  1.0000
  N   N42       1.0  0.58621  0.44479  0.89882  1.0000
  H   H496      1.0  0.56189  0.46222  0.92309  1.0000
  H   H497      1.0  0.71133  0.07429  0.68545  1.0000
  C   C498      1.0  0.57086  0.13107  0.67264  1.0000
  C   C499      1.0  0.58375  0.12501  0.69362  1.0000
  C   C500      1.0  0.60672  0.13464  0.69782  1.0000
  C   C501      1.0  0.61683  0.15077  0.68121  1.0000
  C   C502      1.0  0.60384  0.15699  0.66038  1.0000
  C   C503      1.0  0.58106  0.14706  0.65598  1.0000
  H   H498      1.0  0.57598  0.11265  0.70661  1.0000
  H   H499      1.0  0.61650  0.12969  0.71393  1.0000
  H   H500      1.0  0.61147  0.16954  0.64748  1.0000
  H   H501      1.0  0.57133  0.15192  0.63979  1.0000
  H   H502      1.0  0.72910  0.33162  0.95742  1.0000
  H   H503      1.0  0.70266  0.04494  0.67563  1.0000
  C   C504      1.0  0.70614  0.03877  0.72999  1.0000
  H   H504      1.0  0.68442  0.47176  0.81528  1.0000
  C   C505      1.0  0.63853  0.18696  0.74790  1.0000
  N   N43       1.0  0.67721  0.07310  0.66874  1.0000
  H   H505      1.0  0.74182  0.05337  0.72814  1.0000
  C   C506      1.0  0.59284  0.44824  0.94150  1.0000
  C   C507      1.0  0.51271  0.13165  0.51693  1.0000
  C   C508      1.0  0.62195  0.42787  0.91637  1.0000
  C   C509      1.0  0.63933  0.20876  0.73544  1.0000
  C   C510      1.0  0.69669  0.24987  0.81580  1.0000
  C   C511      1.0  0.69996  0.23264  0.83399  1.0000
  C   C512      1.0  0.70122  0.20811  0.82809  1.0000
  C   C513      1.0  0.69964  0.20062  0.80399  1.0000
  C   C514      1.0  0.69756  0.21794  0.78570  1.0000
  C   C515      1.0  0.69581  0.24243  0.79164  1.0000
  C   C516      1.0  0.51033  0.03227  0.57834  1.0000
  H   H506      1.0  0.70279  0.19483  0.84237  1.0000
  H   H507      1.0  0.69631  0.21244  0.76708  1.0000
  H   H508      1.0  0.69330  0.25568  0.77748  1.0000
  H   H509      1.0  0.63946  0.16968  0.78266  1.0000
  H   H510      1.0  0.61331  0.42629  0.87870  1.0000
  H   H511      1.0  0.64547  0.11901  0.64391  1.0000
  C   C517      1.0  0.68909  0.40675  0.87690  1.0000
  C   C518      1.0  0.67665  0.40231  0.85554  1.0000
  C   C519      1.0  0.66116  0.41998  0.84587  1.0000
  C   C520      1.0  0.65790  0.44208  0.85756  1.0000
  C   C521      1.0  0.67019  0.44645  0.87898  1.0000
  C   C522      1.0  0.68576  0.42888  0.88853  1.0000
  H   H512      1.0  0.67910  0.38533  0.84644  1.0000
  H   H513      1.0  0.65168  0.41643  0.82929  1.0000
  H   H514      1.0  0.66779  0.46337  0.88820  1.0000
  H   H515      1.0  0.69535  0.43244  0.90505  1.0000
  N   N44       1.0  0.49991  0.03536  0.55622  1.0000
  C   C523      1.0  0.70202  0.06439  0.67093  1.0000
  N   N45       1.0  0.64052  0.20784  0.78564  1.0000
  C   C524      1.0  0.63027  0.08994  0.66473  1.0000
  C   C525      1.0  0.64076  0.22939  0.77359  1.0000
  C   C526      1.0  0.69261  0.01750  0.72962  1.0000
  C   C527      1.0  0.64028  0.20732  0.81211  1.0000
  H   H516      1.0  0.63915  0.20895  0.71581  1.0000
  H   H517      1.0  0.58722  0.45500  0.95900  1.0000
  H   H518      1.0  0.64924  0.22342  0.81963  1.0000
  H   H519      1.0  0.55879  0.46495  0.88061  1.0000
  H   H520      1.0  0.61194  0.09642  0.66296  1.0000
  C   C528      1.0  0.64049  0.23017  0.74832  1.0000
  C   C529      1.0  0.60733  0.43232  0.89635  1.0000
  H   H521      1.0  0.65036  0.19142  0.81906  1.0000
  Fe  Fe87      1.0  0.50760  0.13130  0.58136  1.0000
  H   H522      1.0  0.56165  0.43382  0.87200  1.0000
  S   S176      1.0  0.69069  0.06657  0.73344  1.0000
  Fe  Fe88      1.0  0.72963  0.15087  0.71475  1.0000
  H   H523      1.0  0.68713  0.10363  0.64746  1.0000
  H   H524      1.0  0.67324  0.01846  0.73121  1.0000
  H   H525      1.0  0.50994  0.02283  0.66435  1.0000
  C   C530      1.0  0.65897  0.06132  0.68045  1.0000
  H   H526      1.0  0.62151  0.20664  0.81892  1.0000
  C   C531      1.0  0.63522  0.06944  0.67846  1.0000
  H   H527      1.0  0.71209  0.06688  0.65373  1.0000
  H   H528      1.0  0.52201  0.00690  0.60561  1.0000
  H   H529      1.0  0.64179  0.24611  0.78352  1.0000
  C   C532      1.0  0.57177  0.45003  0.87735  1.0000
  C   C533      1.0  0.63939  0.18678  0.77314  1.0000
  C   C534      1.0  0.61472  0.43611  0.93903  1.0000
  H   H530      1.0  0.64127  0.24724  0.73880  1.0000
  H   H531      1.0  0.62616  0.43330  0.95461  1.0000
  C   C535      1.0  0.57859  0.45224  0.92111  1.0000
  C   C536      1.0  0.73115  0.03719  0.72792  1.0000
  H   H532      1.0  0.63897  0.41846  0.91419  1.0000
  C   C537      1.0  0.67257  0.09366  0.65586  1.0000
  C   C538      1.0  0.73023  0.32028  0.97333  1.0000
  S   S177      1.0  0.72990  0.33259  0.84209  1.0000
  H   H533      1.0  0.58354  0.45586  0.86210  1.0000
  H   H534      1.0  0.70847  0.01017  0.80693  1.0000
  C   C539      1.0  0.70966  0.00214  0.78869  1.0000
  H   H535      1.0  0.64817  0.48902  0.80176  1.0000
  C   C540      1.0  0.49395  0.17401  0.67468  1.0000
  C   C541      1.0  0.64907  0.10242  0.65370  1.0000
  H   H536      1.0  0.62079  0.06007  0.68775  1.0000
  C   C542      1.0  0.69095  0.48853  0.82378  1.0000
  C   C543      1.0  0.73059  0.29531  0.97084  1.0000
  S   S178      1.0  0.72986  0.12907  0.74924  1.0000
  C   C544      1.0  0.49533  0.05974  0.54701  1.0000
  H   H537      1.0  0.51523  0.04767  0.58905  1.0000
  S   S179      1.0  0.73070  0.28133  0.94198  1.0000
  H   H538      1.0  0.71023  0.49053  0.81897  1.0000
  H   H539      1.0  0.69149  0.00186  0.78047  1.0000
  C   C545      1.0  0.74245  0.01451  0.72594  1.0000
  H   H540      1.0  0.50851  0.18629  0.68024  1.0000
  H   H541      1.0  0.49441  0.06022  0.52697  1.0000
  C   C546      1.0  0.70388  0.99487  0.72752  1.0000
  H   H542      1.0  0.73244  0.26159  0.99010  1.0000
  C   C547      1.0  0.73210  0.28092  0.99181  1.0000
  H   H543      1.0  0.50990  0.07224  0.55225  1.0000
  H   H544      1.0  0.54260  0.14584  0.49654  1.0000
  H   H545      1.0  0.49370  0.05766  0.64140  1.0000
  C   C548      1.0  0.72891  0.99322  0.72583  1.0000
  H   H546      1.0  0.59417  0.49252  0.98761  1.0000
  H   H547      1.0  0.64947  0.93282  0.17978  1.0000
  S   S180      1.0  0.65481  0.52140  0.08071  1.0000
  H   H548      1.0  0.55039  0.51757  0.09312  1.0000
  Fe  Fe89      1.0  0.59770  0.51690  0.12111  1.0000
  S   S181      1.0  0.63262  0.53215  0.13482  1.0000
  S   S182      1.0  0.56356  0.51660  0.14389  1.0000
  Fe  Fe90      1.0  0.63458  0.55114  0.09898  1.0000
  S   S183      1.0  0.64132  0.59085  0.09232  1.0000
  S   S184      1.0  0.59863  0.53794  0.08659  1.0000
  C   C549      1.0  0.70605  0.66082  0.05267  1.0000
  S   S185      1.0  0.70902  0.71191  0.10337  1.0000
  Fe  Fe91      1.0  0.61877  0.50638  0.07180  1.0000
  Fe  Fe92      1.0  0.65028  0.50095  0.11554  1.0000
  Fe  Fe93      1.0  0.72996  0.88466  0.28275  1.0000
  C   C550      1.0  0.68787  0.64528  0.04556  1.0000
  Fe  Fe94      1.0  0.71994  0.74255  0.12764  1.0000
  S   S186      1.0  0.69389  0.76921  0.14432  1.0000
  Fe  Fe95      1.0  0.71629  0.87918  0.23042  1.0000
  S   S187      1.0  0.70592  0.85891  0.26376  1.0000
  C   C551      1.0  0.55639  0.97554  0.34906  1.0000
  Fe  Fe96      1.0  0.70998  0.92848  0.25535  1.0000
  S   S188      1.0  0.70009  0.91126  0.29117  1.0000
  H   H549      1.0  0.62603  0.82971  0.30439  1.0000
  Fe  Fe97      1.0  0.67702  0.88679  0.26922  1.0000
  S   S189      1.0  0.63903  0.87454  0.27806  1.0000
  S   S190      1.0  0.68531  0.90487  0.23382  1.0000
  H   H550      1.0  0.54639  0.59266  0.08292  1.0000
  S   S191      1.0  0.51794  0.87305  0.38486  1.0000
  H   H551      1.0  0.62257  0.86115  0.36011  1.0000
  H   H552      1.0  0.72336  0.75132  0.02911  1.0000
  C   C552      1.0  0.62671  0.82897  0.32447  1.0000
  H   H553      1.0  0.74023  0.62120  0.08420  1.0000
  Fe  Fe98      1.0  0.53766  0.90752  0.37673  1.0000
  S   S192      1.0  0.57634  0.91521  0.36517  1.0000
  S   S193      1.0  0.53037  0.92222  0.41388  1.0000
  H   H554      1.0  0.67129  0.83315  0.30766  1.0000
  C   C553      1.0  0.72558  0.62773  0.07308  1.0000
  H   H555      1.0  0.73918  0.66402  0.07213  1.0000
  H   H556      1.0  0.60853  0.83417  0.33109  1.0000
  C   C554      1.0  0.62076  0.88794  0.30060  1.0000
  C   C555      1.0  0.59751  0.87899  0.30479  1.0000
  C   C556      1.0  0.58335  0.88751  0.32413  1.0000
  C   C557      1.0  0.59235  0.90516  0.33940  1.0000
  C   C558      1.0  0.61535  0.91454  0.33482  1.0000
  C   C559      1.0  0.62948  0.90604  0.31548  1.0000
  H   H557      1.0  0.59054  0.86511  0.29324  1.0000
  H   H558      1.0  0.56563  0.88022  0.32741  1.0000
  H   H559      1.0  0.62242  0.92826  0.34650  1.0000
  H   H560      1.0  0.64730  0.91314  0.31242  1.0000
  H   H561      1.0  0.53752  0.97843  0.41862  1.0000
  C   C560      1.0  0.72504  0.65201  0.06649  1.0000
  H   H562      1.0  0.55935  0.95880  0.33950  1.0000
  C   C561      1.0  0.70521  0.79454  0.15951  1.0000
  C   C562      1.0  0.69121  0.80566  0.17749  1.0000
  C   C563      1.0  0.69958  0.82618  0.18950  1.0000
  C   C564      1.0  0.72178  0.83607  0.18312  1.0000
  H   H563      1.0  0.72144  0.95614  0.19311  1.0000
  H   H564      1.0  0.70958  0.88869  0.15949  1.0000
  H   H565      1.0  0.67382  0.79830  0.18216  1.0000
  H   H566      1.0  0.68869  0.83448  0.20341  1.0000
  C   C565      1.0  0.53552  0.51909  0.12902  1.0000
  C   C566      1.0  0.70931  0.94302  0.18553  1.0000
  C   C567      1.0  0.53425  0.51977  0.10384  1.0000
  H   H567      1.0  0.67776  0.96333  0.19566  1.0000
  H   H568      1.0  0.67464  0.60910  0.04709  1.0000
  C   C568      1.0  0.66272  0.60750  0.10846  1.0000
  C   C569      1.0  0.66446  0.63226  0.10400  1.0000
  C   C570      1.0  0.68301  0.64575  0.11426  1.0000
  C   C571      1.0  0.69988  0.63460  0.12924  1.0000
  C   C572      1.0  0.69762  0.60998  0.13444  1.0000
  C   C573      1.0  0.67906  0.59644  0.12412  1.0000
  H   H569      1.0  0.65178  0.64099  0.09204  1.0000
  H   H570      1.0  0.68440  0.66473  0.11031  1.0000
  H   H571      1.0  0.71051  0.60125  0.14616  1.0000
  H   H572      1.0  0.67784  0.57736  0.12773  1.0000
  N   N46       1.0  0.64526  0.84527  0.33329  1.0000
  S   S194      1.0  0.72456  0.65061  0.14078  1.0000
  H   H573      1.0  0.63067  0.81030  0.33040  1.0000
  C   C574      1.0  0.51202  0.52319  0.09238  1.0000
  H   H574      1.0  0.71991  0.57733  0.05846  1.0000
  C   C575      1.0  0.72760  0.80425  0.15347  1.0000
  C   C576      1.0  0.64546  0.51292  0.01319  1.0000
  C   C577      1.0  0.68904  0.62103  0.05232  1.0000
  N   N47       1.0  0.57406  0.57849  0.14525  1.0000
  C   C578      1.0  0.58793  0.58871  0.12753  1.0000
  C   C579      1.0  0.55015  0.57451  0.14147  1.0000
  C   C580      1.0  0.57816  0.59417  0.10493  1.0000
  C   C581      1.0  0.53982  0.57952  0.11902  1.0000
  C   C582      1.0  0.55402  0.58923  0.10059  1.0000
  C   C583      1.0  0.58462  0.57253  0.16874  1.0000
  H   H575      1.0  0.60680  0.59227  0.13063  1.0000
  H   H576      1.0  0.53917  0.56635  0.15551  1.0000
  H   H577      1.0  0.58947  0.60158  0.09071  1.0000
  S   S195      1.0  0.74180  0.90394  0.24908  1.0000
  H   H578      1.0  0.70548  0.67970  0.04759  1.0000
  H   H579      1.0  0.57655  0.55581  0.17627  1.0000
  H   H580      1.0  0.60423  0.56896  0.16706  1.0000
  H   H581      1.0  0.58158  0.58749  0.18154  1.0000
  H   H582      1.0  0.66573  0.89519  0.16173  1.0000
  C   C584      1.0  0.66759  0.84487  0.32281  1.0000
  C   C585      1.0  0.64039  0.86045  0.35205  1.0000
  C   C586      1.0  0.68565  0.86020  0.33081  1.0000
  C   C587      1.0  0.65799  0.87616  0.36039  1.0000
  C   C588      1.0  0.68073  0.87605  0.34961  1.0000
  H   H583      1.0  0.51502  0.91956  0.46637  1.0000
  H   H584      1.0  0.69092  0.57881  0.07328  1.0000
  H   H585      1.0  0.70323  0.86008  0.32220  1.0000
  H   H586      1.0  0.65376  0.88873  0.37469  1.0000
  H   H587      1.0  0.69446  0.88839  0.35556  1.0000
  C   C589      1.0  0.72872  0.74149  0.01317  1.0000
  C   C590      1.0  0.51249  0.91016  0.48332  1.0000
  S   S196      1.0  0.73879  0.71859  0.15430  1.0000
  H   H588      1.0  0.67288  0.65205  0.03508  1.0000
  H   H589      1.0  0.52113  0.57516  0.11576  1.0000
  Fe  Fe99      1.0  0.50823  0.88959  0.42069  1.0000
  H   H590      1.0  0.71740  0.58429  0.09028  1.0000
  C   C591      1.0  0.67782  0.90896  0.16808  1.0000
  N   N48       1.0  0.70767  0.61260  0.06606  1.0000
  C   C592      1.0  0.62300  0.50192  0.01140  1.0000
  C   C593      1.0  0.51423  0.52167  0.14262  1.0000
  H   H591      1.0  0.73095  0.98255  0.28623  1.0000
  C   C594      1.0  0.55322  0.97537  0.37412  1.0000
  C   C595      1.0  0.70270  0.90539  0.16688  1.0000
  Fe  Fe100     1.0  0.73107  0.68893  0.12827  1.0000
  C   C596      1.0  0.68454  0.94723  0.18694  1.0000
  C   C597      1.0  0.73564  0.82515  0.16495  1.0000
  C   C598      1.0  0.50804  0.88548  0.48346  1.0000
  S   S197      1.0  0.73303  0.86196  0.19730  1.0000
  H   H592      1.0  0.51133  0.52366  0.07286  1.0000
  S   S198      1.0  0.70647  0.96735  0.24188  1.0000
  H   H593      1.0  0.51503  0.52112  0.16212  1.0000
  C   C599      1.0  0.66872  0.93005  0.17818  1.0000
  Fe  Fe101     1.0  0.49711  0.93792  0.39768  1.0000
  S   S199      1.0  0.50561  0.92591  0.35990  1.0000
  C   C600      1.0  0.70911  0.58699  0.07225  1.0000
  S   S200      1.0  0.50693  0.86903  0.45622  1.0000
  H   H594      1.0  0.55404  0.95838  0.38371  1.0000
  N   N49       1.0  0.71808  0.92238  0.17549  1.0000
  C   C601      1.0  0.74174  0.72006  0.01562  1.0000
  H   H595      1.0  0.73841  0.79600  0.13948  1.0000
  H   H596      1.0  0.65447  0.51358  0.03032  1.0000
  H   H597      1.0  0.73982  0.82060  0.23675  1.0000
  Fe  Fe102     1.0  0.62425  0.55246  0.86556  1.0000
  S   S201      1.0  0.60785  0.55283  0.90268  1.0000
  S   S202      1.0  0.62998  0.58838  0.84683  1.0000
  Fe  Fe103     1.0  0.63747  0.52702  0.91130  1.0000
  S   S203      1.0  0.65959  0.53301  0.94430  1.0000
  Fe  Fe104     1.0  0.58691  0.52054  0.89103  1.0000
  H   H598      1.0  0.69188  0.77050  0.89962  1.0000
  S   S204      1.0  0.65508  0.52808  0.87484  1.0000
  S   S205      1.0  0.60046  0.52230  0.85277  1.0000
  S   S206      1.0  0.54988  0.51065  0.90545  1.0000
  S   S207      1.0  0.69936  0.71900  0.88182  1.0000
  H   H599      1.0  0.53773  0.52835  0.85700  1.0000
  C   C602      1.0  0.67208  0.55249  0.81457  1.0000
  Fe  Fe105     1.0  0.71378  0.74132  0.85075  1.0000
  S   S208      1.0  0.69097  0.76289  0.82445  1.0000
  H   H600      1.0  0.67417  0.53067  0.99389  1.0000
  S   S209      1.0  0.72243  0.65016  0.87167  1.0000
  C   C603      1.0  0.71837  0.80435  0.82543  1.0000
  Fe  Fe106     1.0  0.52319  0.88912  0.63750  1.0000
  S   S210      1.0  0.53101  0.92482  0.62053  1.0000
  S   S211      1.0  0.55413  0.86544  0.64975  1.0000
  H   H601      1.0  0.73283  0.80427  0.76054  1.0000
  C   C604      1.0  0.71481  0.93624  0.80141  1.0000
  H   H602      1.0  0.61991  0.93552  0.61720  1.0000
  H   H603      1.0  0.51784  0.94175  0.50484  1.0000
  C   C605      1.0  0.64973  0.54979  0.80372  1.0000
  N   N50       1.0  0.67704  0.50960  0.81597  1.0000
  Fe  Fe107     1.0  0.67909  0.90188  0.71345  1.0000
  S   S212      1.0  0.69192  0.92088  0.74681  1.0000
  S   S213      1.0  0.64286  0.91577  0.70041  1.0000
  Fe  Fe108     1.0  0.70937  0.88563  0.75684  1.0000
  C   C606      1.0  0.65724  0.80997  0.85026  1.0000
  Fe  Fe109     1.0  0.72508  0.92868  0.72511  1.0000
  H   H604      1.0  0.56755  0.86214  0.56502  1.0000
  S   S214      1.0  0.69361  0.86588  0.72564  1.0000
  S   S215      1.0  0.71193  0.91100  0.69133  1.0000
  C   C607      1.0  0.50579  0.88626  0.52762  1.0000
  H   H605      1.0  0.71657  0.61135  0.94208  1.0000
  Fe  Fe110     1.0  0.63015  0.49786  0.86579  1.0000
  H   H606      1.0  0.64713  0.58205  0.92727  1.0000
  C   C608      1.0  0.65665  0.52251  0.99252  1.0000
  H   H607      1.0  0.66253  0.65459  0.90788  1.0000
  H   H608      1.0  0.71334  0.79312  0.90599  1.0000
  C   C609      1.0  0.57830  0.87909  0.66501  1.0000
  C   C610      1.0  0.57813  0.90371  0.66971  1.0000
  C   C611      1.0  0.59804  0.91447  0.68066  1.0000
  C   C612      1.0  0.61834  0.90082  0.68709  1.0000
  C   C613      1.0  0.61857  0.87615  0.68244  1.0000
  C   C614      1.0  0.59857  0.86533  0.67144  1.0000
  H   H609      1.0  0.56264  0.91450  0.66494  1.0000
  H   H610      1.0  0.59768  0.93354  0.68427  1.0000
  H   H611      1.0  0.63409  0.86545  0.68732  1.0000
  H   H612      1.0  0.59885  0.84627  0.66785  1.0000
  C   C615      1.0  0.70011  0.79162  0.81402  1.0000
  C   C616      1.0  0.68741  0.80276  0.79513  1.0000
  C   C617      1.0  0.69242  0.82662  0.78819  1.0000
  C   C618      1.0  0.70991  0.83967  0.80040  1.0000
  C   C619      1.0  0.55868  0.87324  0.57907  1.0000
  H   H613      1.0  0.69090  0.85991  0.85829  1.0000
  H   H614      1.0  0.67320  0.79310  0.78622  1.0000
  H   H615      1.0  0.68202  0.83519  0.77407  1.0000
  C   C620      1.0  0.64116  0.52683  0.79899  1.0000
  H   H616      1.0  0.62739  0.63546  0.89260  1.0000
  C   C621      1.0  0.52133  0.52352  0.86636  1.0000
  Fe  Fe111     1.0  0.73020  0.73397  0.90312  1.0000
  C   C622      1.0  0.49898  0.52604  0.85473  1.0000
  S   S216      1.0  0.72205  0.75006  0.94017  1.0000
  H   H617      1.0  0.70359  0.92172  0.80808  1.0000
  C   C623      1.0  0.64528  0.52132  0.97010  1.0000
  C   C624      1.0  0.51073  0.91087  0.52742  1.0000
  C   C625      1.0  0.66586  0.83317  0.84648  1.0000
  C   C626      1.0  0.52233  0.51466  0.89003  1.0000
  C   C627      1.0  0.50460  0.87360  0.50570  1.0000
  Fe  Fe112     1.0  0.72779  0.87673  0.70649  1.0000
  H   H618      1.0  0.56357  0.91959  0.56720  1.0000
  C   C628      1.0  0.65575  0.60551  0.85363  1.0000
  C   C629      1.0  0.67549  0.59515  0.86530  1.0000
  C   C630      1.0  0.69593  0.60898  0.87012  1.0000
  C   C631      1.0  0.69664  0.63349  0.86400  1.0000
  C   C632      1.0  0.67680  0.64399  0.85261  1.0000
  C   C633      1.0  0.65655  0.62994  0.84717  1.0000
  H   H619      1.0  0.67513  0.57643  0.87048  1.0000
  H   H620      1.0  0.71116  0.60075  0.87903  1.0000
  H   H621      1.0  0.67715  0.66284  0.84774  1.0000
  H   H622      1.0  0.64139  0.63811  0.83806  1.0000
  C   C634      1.0  0.59195  0.93025  0.59090  1.0000
  C   C635      1.0  0.60791  0.92278  0.60883  1.0000
  H   H623      1.0  0.63883  0.56550  0.79953  1.0000
  Fe  Fe113     1.0  0.72581  0.69081  0.86971  1.0000
  C   C636      1.0  0.69270  0.82760  0.88015  1.0000
  Fe  Fe114     1.0  0.49910  0.93775  0.64150  1.0000
  H   H624      1.0  0.54296  0.88259  0.57090  1.0000
  H   H625      1.0  0.62031  0.89287  0.63035  1.0000
  H   H626      1.0  0.68722  0.96311  0.80479  1.0000
  H   H627      1.0  0.67857  0.57033  0.81875  1.0000
  H   H628      1.0  0.50937  0.97135  0.58215  1.0000
  C   C637      1.0  0.50085  0.50840  0.90192  1.0000
  H   H629      1.0  0.61531  0.62555  0.92146  1.0000
  C   C638      1.0  0.62817  0.62120  0.90672  1.0000
  H   H630      1.0  0.64412  0.80246  0.83807  1.0000
  S   S217      1.0  0.51387  0.92752  0.55433  1.0000
  C   C639      1.0  0.74264  0.71642  0.97145  1.0000
  H   H631      1.0  0.70673  0.83453  0.89163  1.0000
  N   N51       1.0  0.57586  0.89035  0.58903  1.0000
  C   C640      1.0  0.59199  0.88271  0.60600  1.0000
  C   C641      1.0  0.57612  0.91362  0.58094  1.0000
  H   H632      1.0  0.70351  0.65033  0.92419  1.0000
  C   C642      1.0  0.60819  0.89881  0.61620  1.0000
  N   N52       1.0  0.68439  0.80472  0.88346  1.0000
  H   H633      1.0  0.59180  0.86426  0.61245  1.0000
  H   H634      1.0  0.59153  0.94885  0.58502  1.0000
  H   H635      1.0  0.70257  0.53432  0.82984  1.0000
  C   C643      1.0  0.69844  0.61346  0.93526  1.0000
  H   H636      1.0  0.68794  0.57704  0.94366  1.0000
  C   C644      1.0  0.61167  0.50073  0.98897  1.0000
  C   C645      1.0  0.66673  0.79592  0.86898  1.0000
  H   H637      1.0  0.72830  0.79609  0.83997  1.0000
  H   H638      1.0  0.62239  0.60439  0.89780  1.0000
  C   C646      1.0  0.69382  0.78997  0.90331  1.0000
  H   H639      1.0  0.55154  0.86130  0.59362  1.0000
  S   S218      1.0  0.71414  0.87069  0.79481  1.0000
  C   C647      1.0  0.65516  0.50681  0.80520  1.0000
  Fe  Fe115     1.0  0.50464  0.91416  0.59206  1.0000
  H   H640      1.0  0.69320  0.97868  0.72742  1.0000
  H   H641      1.0  0.71290  0.76702  0.98832  1.0000
  H   H642      1.0  0.68417  0.79406  0.92040  1.0000
  H   H643      1.0  0.66050  0.77760  0.87120  1.0000
  C   C648      1.0  0.68554  0.53208  0.82073  1.0000
  N   N53       1.0  0.65249  0.61853  0.91643  1.0000
  C   C649      1.0  0.65938  0.59714  0.92662  1.0000
  C   C650      1.0  0.66785  0.63765  0.91608  1.0000
  C   C651      1.0  0.68248  0.59423  0.93603  1.0000
  C   C652      1.0  0.69107  0.63538  0.92538  1.0000
  C   C653      1.0  0.62265  0.51069  0.96841  1.0000
  H   H644      1.0  0.61344  0.51031  0.95137  1.0000
  H   H645      1.0  0.49834  0.53279  0.83638  1.0000
  S   S219      1.0  0.49859  0.87729  0.60756  1.0000
  C   C654      1.0  0.72980  0.73794  0.96897  1.0000
  S   S220      1.0  0.61557  0.49465  0.90319  1.0000
  C   C655      1.0  0.73829  0.93144  0.79385  1.0000
  C   C656      1.0  0.72283  0.75036  0.98998  1.0000
  C   C657      1.0  0.72308  0.82833  0.81880  1.0000
  H   H646      1.0  0.62357  0.52453  0.79102  1.0000
  H   H647      1.0  0.65938  0.84389  0.83139  1.0000
  C   C658      1.0  0.70567  0.95962  0.79938  1.0000
  C   C659      1.0  0.68364  0.84213  0.86155  1.0000
  C   C660      1.0  0.51403  0.92272  0.50519  1.0000
  S   S221      1.0  0.73711  0.71149  0.83658  1.0000
  H   H648      1.0  0.50153  0.50133  0.92013  1.0000
  H   H649      1.0  0.73667  0.83827  0.82833  1.0000
  S   S222      1.0  0.50033  0.97244  0.66185  1.0000
  H   H650      1.0  0.50308  0.87694  0.54461  1.0000
  H   H651      1.0  0.50107  0.85451  0.50598  1.0000
  S   S223      1.0  0.74246  0.75836  0.87279  1.0000
  N   N54       1.0  0.71961  0.97774  0.79024  1.0000
  C   C661      1.0  0.50690  0.98929  0.57477  1.0000
  H   H652      1.0  0.74111  0.81999  0.73300  1.0000
  C   C662      1.0  0.74281  0.97327  0.78323  1.0000
  C   C663      1.0  0.49612  0.99254  0.55231  1.0000
  Fe  Fe116     1.0  0.76038  0.31570  0.13442  1.0000
  S   S224      1.0  0.79763  0.31593  0.15103  1.0000
  H   H653      1.0  0.97507  0.33714  0.30241  1.0000
  C   C664      1.0  0.92897  0.43152  0.41855  1.0000
  Fe  Fe117     1.0  0.85563  0.30018  0.28031  1.0000
  S   S225      1.0  0.87552  0.26963  0.26310  1.0000
  S   S226      1.0  0.82287  0.31715  0.26241  1.0000
  Fe  Fe118     1.0  0.88252  0.29435  0.32869  1.0000
  S   S227      1.0  0.90281  0.26216  0.31482  1.0000
  S   S228      1.0  0.89675  0.30411  0.36580  1.0000
  Fe  Fe119     1.0  0.90869  0.28409  0.28138  1.0000
  S   S229      1.0  0.94579  0.29122  0.26499  1.0000
  Fe  Fe120     1.0  0.86782  0.25082  0.29828  1.0000
  S   S230      1.0  0.85370  0.21268  0.29833  1.0000
  S   S231      1.0  0.88928  0.31678  0.29551  1.0000
  S   S232      1.0  0.84705  0.28081  0.31522  1.0000
  Fe  Fe121     1.0  0.87550  0.38195  0.48019  1.0000
  S   S233      1.0  0.91135  0.39834  0.47263  1.0000
  S   S234      1.0  0.85251  0.36995  0.44876  1.0000
  H   H654      1.0  0.88360  0.25236  0.37305  1.0000
  H   H655      1.0  0.80885  0.27071  0.37857  1.0000
  H   H656      1.0  0.87101  0.19150  0.34786  1.0000
  C   C665      1.0  0.80465  0.37047  0.18143  1.0000
  H   H657      1.0  0.75824  0.35390  0.16590  1.0000
  C   C666      1.0  0.82313  0.36918  0.19840  1.0000
  N   N55       1.0  0.76906  0.22420  0.24369  1.0000
  H   H658      1.0  0.85177  0.28118  0.38464  1.0000
  C   C667      1.0  0.88291  0.41310  0.41579  1.0000
  C   C668      1.0  0.76211  0.37281  0.17067  1.0000
  N   N56       1.0  0.98284  0.30861  0.32707  1.0000
  H   H659      1.0  0.86495  0.40571  0.41471  1.0000
  H   H660      1.0  0.88922  0.21658  0.33981  1.0000
  H   H661      1.0  0.81643  0.18642  0.23730  1.0000
  H   H662      1.0  0.95053  0.31294  0.34734  1.0000
  H   H663      1.0  0.75920  0.20898  0.18058  1.0000
  N   N57       1.0  0.78126  0.37323  0.18870  1.0000
  C   C669      1.0  0.82241  0.20723  0.29977  1.0000
  C   C670      1.0  0.80593  0.22562  0.30475  1.0000
  C   C671      1.0  0.78132  0.22044  0.30727  1.0000
  C   C672      1.0  0.77285  0.19698  0.30413  1.0000
  C   C673      1.0  0.78925  0.17869  0.29855  1.0000
  C   C674      1.0  0.81395  0.18376  0.29669  1.0000
  H   H664      1.0  0.81211  0.24378  0.30704  1.0000
  H   H665      1.0  0.76876  0.23469  0.31161  1.0000
  H   H666      1.0  0.78299  0.16047  0.29642  1.0000
  H   H667      1.0  0.82655  0.16938  0.29291  1.0000
  C   C675      1.0  0.97376  0.27899  0.27466  1.0000
  S   S235      1.0  0.74651  0.34634  0.11147  1.0000
  H   H668      1.0  0.87252  0.45922  0.45322  1.0000
  C   C676      1.0  0.78106  0.24536  0.24664  1.0000
  H   H669      1.0  0.95883  0.25160  0.29777  1.0000
  C   C677      1.0  0.88417  0.32315  0.38811  1.0000
  C   C678      1.0  0.89746  0.32752  0.40911  1.0000
  C   C679      1.0  0.88800  0.34187  0.42774  1.0000
  C   C680      1.0  0.86499  0.35183  0.42565  1.0000
  C   C681      1.0  0.85173  0.34762  0.40458  1.0000
  C   C682      1.0  0.86130  0.33342  0.38581  1.0000
  H   H670      1.0  0.91514  0.31962  0.41109  1.0000
  H   H671      1.0  0.89841  0.34500  0.44384  1.0000
  H   H672      1.0  0.83394  0.35534  0.40280  1.0000
  H   H673      1.0  0.85090  0.33026  0.36971  1.0000
  H   H674      1.0  0.83069  0.20239  0.35043  1.0000
  N   N58       1.0  0.85901  0.22554  0.36146  1.0000
  C   C683      1.0  0.80365  0.31173  0.18218  1.0000
  C   C684      1.0  0.82759  0.30882  0.18962  1.0000
  C   C685      1.0  0.83357  0.30876  0.21430  1.0000
  C   C686      1.0  0.81565  0.31211  0.23176  1.0000
  C   C687      1.0  0.79158  0.31402  0.22440  1.0000
  C   C688      1.0  0.78555  0.31361  0.19973  1.0000
  H   H675      1.0  0.84171  0.30734  0.17618  1.0000
  H   H676      1.0  0.85218  0.30737  0.21970  1.0000
  H   H677      1.0  0.77760  0.31662  0.23780  1.0000
  H   H678      1.0  0.76705  0.31581  0.19430  1.0000
  S   S236      1.0  0.75111  0.28761  0.10683  1.0000
  H   H679      1.0  0.89903  0.38323  0.39692  1.0000
  C   C689      1.0  0.79365  0.37319  0.23021  1.0000
  C   C690      1.0  0.80663  0.20316  0.23946  1.0000
  C   C691      1.0  0.86641  0.44670  0.43895  1.0000
  S   S237      1.0  0.74627  0.13883  0.26170  1.0000
  N   N59       1.0  0.88675  0.43422  0.42759  1.0000
  H   H680      1.0  0.83156  0.36834  0.23635  1.0000
  H   H681      1.0  0.94048  0.39945  0.40011  1.0000
  C   C692      1.0  0.84696  0.26383  0.37735  1.0000
  H   H682      1.0  0.94693  0.43878  0.42017  1.0000
  H   H683      1.0  0.94626  0.30777  0.31549  1.0000
  C   C693      1.0  0.81704  0.23564  0.36434  1.0000
  H   H684      1.0  0.78913  0.37326  0.24930  1.0000
  S   S238      1.0  0.91207  0.46461  0.48656  1.0000
  C   C694      1.0  0.81901  0.22466  0.24238  1.0000
  H   H685      1.0  0.80900  0.36813  0.16245  1.0000
  H   H686      1.0  0.84152  0.36599  0.19260  1.0000
  C   C695      1.0  0.80619  0.24593  0.24595  1.0000
  C   C696      1.0  0.81754  0.37051  0.22294  1.0000
  C   C697      1.0  0.86491  0.24739  0.37081  1.0000
  C   C698      1.0  0.82289  0.25793  0.37397  1.0000
  C   C699      1.0  0.90212  0.40034  0.40561  1.0000
  H   H687      1.0  0.77200  0.18634  0.23852  1.0000
  H   H688      1.0  0.83852  0.22473  0.24257  1.0000
  C   C700      1.0  0.83543  0.21953  0.35824  1.0000
  H   H689      1.0  0.75699  0.37568  0.21858  1.0000
  H   H690      1.0  0.79840  0.23093  0.36123  1.0000
  H   H691      1.0  0.81568  0.26267  0.24869  1.0000
  H   H692      1.0  0.95488  0.28344  0.33457  1.0000
  H   H693      1.0  0.76937  0.19429  0.12225  1.0000
  C   C701      1.0  0.95743  0.30298  0.33141  1.0000
  H   H694      1.0  0.85423  0.43359  0.44800  1.0000
  H   H695      1.0  0.88992  0.20481  0.37040  1.0000
  C   C702      1.0  0.77560  0.37442  0.21275  1.0000
  C   C703      1.0  0.87824  0.20875  0.35468  1.0000
  C   C704      1.0  0.97515  0.25985  0.29111  1.0000
  C   C705      1.0  0.78150  0.20322  0.24028  1.0000
  H   H696      1.0  0.77126  0.26192  0.24984  1.0000
  C   C706      1.0  0.90928  0.44389  0.42831  1.0000
  H   H697      1.0  0.91228  0.46099  0.43701  1.0000
  H   H698      1.0  0.85624  0.45706  0.42519  1.0000
  C   C707      1.0  0.92534  0.40949  0.40733  1.0000
  H   H699      1.0  0.75337  0.22584  0.09488  1.0000
  H   H700      1.0  0.74526  0.38133  0.17741  1.0000
  H   H701      1.0  0.95905  0.40720  0.49186  1.0000
  C   C708      1.0  0.97731  0.40065  0.49272  1.0000
  H   H702      1.0  0.76759  0.38258  0.15398  1.0000
  C   C709      1.0  0.98890  0.32725  0.31203  1.0000
  C   C710      1.0  0.75032  0.19507  0.11829  1.0000
  H   H703      1.0  0.99233  0.43373  0.47927  1.0000
  C   C711      1.0  0.89915  0.49279  0.49397  1.0000
  H   H704      1.0  0.81132  0.32000  0.68457  1.0000
  H   H705      1.0  0.93153  0.29877  0.55689  1.0000
  H   H706      1.0  0.80873  0.26494  0.91713  1.0000
  S   S239      1.0  0.79901  0.31101  0.84869  1.0000
  Fe  Fe122     1.0  0.85849  0.30256  0.72180  1.0000
  S   S240      1.0  0.88032  0.27574  0.74238  1.0000
  S   S241      1.0  0.82800  0.32452  0.73784  1.0000
  Fe  Fe123     1.0  0.87985  0.28695  0.67359  1.0000
  S   S242      1.0  0.90262  0.25791  0.69072  1.0000
  S   S243      1.0  0.88057  0.29024  0.63276  1.0000
  Fe  Fe124     1.0  0.86989  0.24995  0.71345  1.0000
  S   S244      1.0  0.85769  0.21386  0.72798  1.0000
  Fe  Fe125     1.0  0.91123  0.28611  0.71799  1.0000
  S   S245      1.0  0.94814  0.29009  0.73514  1.0000
  S   S246      1.0  0.84642  0.27622  0.69391  1.0000
  S   S247      1.0  0.89013  0.31575  0.69970  1.0000
  Fe  Fe126     1.0  0.87952  0.39052  0.53455  1.0000
  S   S248      1.0  0.91548  0.40830  0.53066  1.0000
  S   S249      1.0  0.86562  0.38682  0.57311  1.0000
  H   H707      1.0  0.82173  0.24944  0.74586  1.0000
  H   H708      1.0  0.99159  0.23225  0.71513  1.0000
  H   H709      1.0  0.95588  0.31746  0.54569  1.0000
  C   C712      1.0  0.93715  0.31747  0.55280  1.0000
  C   C713      1.0  0.82012  0.33598  0.67634  1.0000
  C   C714      1.0  0.78834  0.30016  0.94949  1.0000
  C   C715      1.0  0.80633  0.31973  0.91577  1.0000
  H   H710      1.0  0.93711  0.30358  0.59926  1.0000
  C   C716      1.0  0.82969  0.20208  0.71889  1.0000
  C   C717      1.0  0.81904  0.20936  0.69724  1.0000
  C   C718      1.0  0.79748  0.19876  0.68970  1.0000
  C   C719      1.0  0.78601  0.18122  0.70395  1.0000
  C   C720      1.0  0.79625  0.17445  0.72601  1.0000
  C   C721      1.0  0.81814  0.18470  0.73332  1.0000
  H   H711      1.0  0.82784  0.22252  0.68584  1.0000
  H   H712      1.0  0.78980  0.20390  0.67251  1.0000
  H   H713      1.0  0.78774  0.16075  0.73700  1.0000
  H   H714      1.0  0.82629  0.17890  0.75007  1.0000
  C   C722      1.0  0.97631  0.28735  0.72007  1.0000
  Fe  Fe127     1.0  0.76060  0.31573  0.86203  1.0000
  C   C723      1.0  0.97797  0.28195  0.69549  1.0000
  C   C724      1.0  0.97340  0.22539  0.71685  1.0000
  H   H715      1.0  0.96176  0.27995  0.68503  1.0000
  C   C725      1.0  0.87773  0.31757  0.61673  1.0000
  C   C726      1.0  0.87766  0.31703  0.59140  1.0000
  C   C727      1.0  0.87475  0.33827  0.57785  1.0000
  C   C728      1.0  0.87162  0.36022  0.58955  1.0000
  C   C729      1.0  0.87193  0.36082  0.61491  1.0000
  C   C730      1.0  0.87512  0.33958  0.62850  1.0000
  H   H716      1.0  0.87958  0.30005  0.58219  1.0000
  H   H717      1.0  0.87421  0.33753  0.55838  1.0000
  H   H718      1.0  0.86951  0.37777  0.62406  1.0000
  H   H719      1.0  0.87528  0.34020  0.64800  1.0000
  C   C731      1.0  0.80673  0.31519  0.81786  1.0000
  C   C732      1.0  0.82942  0.30752  0.80963  1.0000
  C   C733      1.0  0.83609  0.31018  0.78518  1.0000
  C   C734      1.0  0.82025  0.32091  0.76875  1.0000
  C   C735      1.0  0.79762  0.32874  0.77701  1.0000
  C   C736      1.0  0.79079  0.32571  0.80139  1.0000
  H   H720      1.0  0.84192  0.29945  0.82221  1.0000
  H   H721      1.0  0.85366  0.30435  0.77919  1.0000
  H   H722      1.0  0.78525  0.33711  0.76449  1.0000
  H   H723      1.0  0.77331  0.33178  0.80748  1.0000
  H   H724      1.0  0.77056  0.26451  0.81833  1.0000
  C   C737      1.0  0.77438  0.22721  0.75991  1.0000
  C   C738      1.0  0.92189  0.22984  0.76029  1.0000
  C   C739      1.0  0.93232  0.37228  0.59115  1.0000
  H   H725      1.0  0.78266  0.32160  0.98137  1.0000
  C   C740      1.0  0.92657  0.20914  0.72147  1.0000
  H   H726      1.0  0.92522  0.32437  0.53824  1.0000
  H   H727      1.0  0.96696  0.24252  0.75087  1.0000
  H   H728      1.0  0.90822  0.20274  0.72306  1.0000
  H   H729      1.0  0.82326  0.29824  0.64718  1.0000
  H   H730      1.0  0.93217  0.19225  0.68691  1.0000
  S   S250      1.0  0.86301  0.41231  0.50415  1.0000
  C   C741      1.0  0.75854  0.23257  0.80019  1.0000
  C   C742      1.0  0.75989  0.21915  0.77903  1.0000
  H   H731      1.0  0.81277  0.31940  0.89724  1.0000
  C   C743      1.0  0.96359  0.21141  0.69863  1.0000
  H   H732      1.0  0.81500  0.35717  0.92017  1.0000
  H   H733      1.0  0.79643  0.27737  0.78434  1.0000
  H   H734      1.0  0.79734  0.24858  0.72458  1.0000
  N   N60       1.0  0.93616  0.22337  0.73896  1.0000
  H   H735      1.0  0.81159  0.35200  0.68471  1.0000
  C   C744      1.0  0.79911  0.34192  0.95240  1.0000
  H   H736      1.0  0.90236  0.22684  0.75739  1.0000
  C   C745      1.0  0.77158  0.25379  0.80202  1.0000
  H   H737      1.0  0.76184  0.01346  0.72460  1.0000
  N   N61       1.0  0.81765  0.33608  0.65000  1.0000
  C   C746      1.0  0.81479  0.35735  0.63778  1.0000
  C   C747      1.0  0.81982  0.31498  0.63764  1.0000
  C   C748      1.0  0.81359  0.35779  0.61254  1.0000
  C   C749      1.0  0.81861  0.31476  0.61241  1.0000
  C   C750      1.0  0.81553  0.33633  0.59983  1.0000
  H   H738      1.0  0.81399  0.37419  0.64746  1.0000
  H   H739      1.0  0.81223  0.37474  0.60279  1.0000
  H   H740      1.0  0.82111  0.29808  0.60269  1.0000
  H   H741      1.0  0.81555  0.33658  0.58023  1.0000
  H   H742      1.0  0.92418  0.24923  0.76441  1.0000
  H   H743      1.0  0.92771  0.21895  0.77607  1.0000
  H   H744      1.0  0.79961  0.35853  0.96251  1.0000
  H   H745      1.0  0.93382  0.36498  0.55323  1.0000
  H   H746      1.0  0.93440  0.32948  0.63517  1.0000
  N   N62       1.0  0.93550  0.33282  0.57414  1.0000
  H   H747      1.0  0.79499  0.28115  0.89238  1.0000
  H   H748      1.0  0.97418  0.20717  0.68270  1.0000
  H   H749      1.0  0.80332  0.27574  0.74060  1.0000
  H   H750      1.0  0.77641  0.26891  0.91576  1.0000
  Fe  Fe128     1.0  0.90003  0.42740  0.49848  1.0000
  C   C751      1.0  0.80314  0.25582  0.74224  1.0000
  N   N63       1.0  0.79613  0.29977  0.92603  1.0000
  S   S251      1.0  0.88862  0.35901  0.51109  1.0000
  C   C752      1.0  0.79408  0.27757  0.91215  1.0000
  H   H751      1.0  0.77534  0.21671  0.74352  1.0000
  H   H752      1.0  0.83943  0.33570  0.68130  1.0000
  N   N64       1.0  0.78714  0.24805  0.76188  1.0000
  C   C753      1.0  0.94006  0.20309  0.70097  1.0000
  S   S252      1.0  0.75996  0.16722  0.69261  1.0000
  C   C754      1.0  0.80772  0.34117  0.92870  1.0000
  C   C755      1.0  0.78960  0.32123  0.96300  1.0000
  C   C756      1.0  0.93617  0.32290  0.59681  1.0000
  H   H753      1.0  0.78043  0.28428  0.95768  1.0000
  C   C757      1.0  0.78606  0.26113  0.78266  1.0000
  C   C758      1.0  0.95938  0.23114  0.73705  1.0000
  C   C759      1.0  0.93404  0.35717  0.57117  1.0000
  H   H754      1.0  0.93079  0.37380  0.62998  1.0000
  H   H755      1.0  0.93025  0.39152  0.58856  1.0000
  C   C760      1.0  0.93471  0.33749  0.61724  1.0000
  H   H756      1.0  0.87008  0.47887  0.51561  1.0000
  S   S253      1.0  0.95838  0.35815  0.50884  1.0000
  C   C761      1.0  0.93263  0.36233  0.61433  1.0000
  H   H757      1.0  0.74975  0.20262  0.77744  1.0000
  S   S254      1.0  0.75083  0.33331  0.89720  1.0000
  Fe  Fe129     1.0  0.92352  0.37816  0.50539  1.0000
  C   C762      1.0  0.98211  0.37726  0.50075  1.0000
  H   H758      1.0  0.74742  0.22656  0.81516  1.0000
  Fe  Fe130     1.0  0.77123  0.72632  0.13171  1.0000
  S   S255      1.0  0.80771  0.73403  0.14794  1.0000
  H   H759      1.0  0.80872  0.66763  0.23523  1.0000
  S   S256      1.0  0.91359  0.66121  0.47466  1.0000
  Fe  Fe131     1.0  0.86062  0.73826  0.27711  1.0000
  S   S257      1.0  0.88232  0.76571  0.25699  1.0000
  S   S258      1.0  0.83071  0.71772  0.25892  1.0000
  Fe  Fe132     1.0  0.88309  0.75095  0.32578  1.0000
  S   S259      1.0  0.90558  0.78021  0.30879  1.0000
  S   S260      1.0  0.88904  0.74704  0.36621  1.0000
  Fe  Fe133     1.0  0.87213  0.78976  0.28791  1.0000
  S   S261      1.0  0.85850  0.82761  0.28006  1.0000
  Fe  Fe134     1.0  0.91359  0.75332  0.27992  1.0000
  S   S262      1.0  0.95080  0.74288  0.26539  1.0000
  S   S263      1.0  0.84923  0.76284  0.30723  1.0000
  S   S264      1.0  0.89242  0.72353  0.29769  1.0000
  C   C763      1.0  0.77645  0.66289  0.21438  1.0000
  H   H760      1.0  0.81128  0.68163  0.13774  1.0000
  H   H761      1.0  0.95952  0.78601  0.22615  1.0000
  Fe  Fe135     1.0  0.92767  0.62362  0.47139  1.0000
  H   H762      1.0  0.75025  0.91370  0.19378  1.0000
  H   H763      1.0  0.75282  0.83273  0.15985  1.0000
  Fe  Fe136     1.0  0.87856  0.64522  0.46329  1.0000
  S   S265      1.0  0.85579  0.65927  0.43230  1.0000
  S   S266      1.0  0.89348  0.60809  0.45743  1.0000
  C   C764      1.0  0.76676  0.66249  0.19121  1.0000
  C   C765      1.0  0.78156  0.78632  0.18957  1.0000
  C   C766      1.0  0.76611  0.79663  0.20666  1.0000
  H   H764      1.0  0.83462  0.80334  0.21406  1.0000
  C   C767      1.0  0.80632  0.78909  0.19199  1.0000
  N   N65       1.0  0.80584  0.67017  0.17424  1.0000
  H   H765      1.0  0.77411  0.66562  0.15331  1.0000
  C   C768      1.0  0.82838  0.83631  0.28601  1.0000
  C   C769      1.0  0.82007  0.85860  0.27735  1.0000
  C   C770      1.0  0.79674  0.86682  0.28297  1.0000
  C   C771      1.0  0.78168  0.85306  0.29782  1.0000
  C   C772      1.0  0.78974  0.83051  0.30600  1.0000
  C   C773      1.0  0.81289  0.82207  0.29994  1.0000
  H   H766      1.0  0.83189  0.86976  0.26653  1.0000
  H   H767      1.0  0.79086  0.88434  0.27675  1.0000
  H   H768      1.0  0.77824  0.81974  0.31753  1.0000
  H   H769      1.0  0.81897  0.80490  0.30676  1.0000
  H   H770      1.0  0.77441  0.77620  0.17455  1.0000
  C   C774      1.0  0.97924  0.75300  0.27559  1.0000
  C   C775      1.0  0.80104  0.66658  0.21728  1.0000
  S   S267      1.0  0.75427  0.86492  0.30902  1.0000
  H   H771      1.0  0.74764  0.65963  0.18862  1.0000
  C   C776      1.0  0.87907  0.72278  0.38435  1.0000
  C   C777      1.0  0.86202  0.70640  0.37622  1.0000
  C   C778      1.0  0.85469  0.68729  0.39132  1.0000
  C   C779      1.0  0.86482  0.68403  0.41431  1.0000
  C   C780      1.0  0.88198  0.70033  0.42232  1.0000
  C   C781      1.0  0.88876  0.71983  0.40755  1.0000
  H   H772      1.0  0.85428  0.70861  0.35847  1.0000
  H   H773      1.0  0.84123  0.67487  0.38509  1.0000
  H   H774      1.0  0.88973  0.69814  0.44006  1.0000
  H   H775      1.0  0.90187  0.73250  0.41402  1.0000
  C   C782      1.0  0.82143  0.67362  0.15309  1.0000
  H   H776      1.0  0.82930  0.65620  0.14743  1.0000
  H   H777      1.0  0.96663  0.78705  0.28879  1.0000
  C   C783      1.0  0.99281  0.80504  0.23172  1.0000
  C   C784      1.0  0.81332  0.73099  0.17917  1.0000
  C   C785      1.0  0.79492  0.72629  0.19582  1.0000
  C   C786      1.0  0.80028  0.72335  0.22046  1.0000
  C   C787      1.0  0.82403  0.72510  0.22864  1.0000
  C   C788      1.0  0.84230  0.73055  0.21209  1.0000
  C   C789      1.0  0.83696  0.73340  0.18745  1.0000
  H   H778      1.0  0.77661  0.72465  0.18976  1.0000
  H   H779      1.0  0.78604  0.71920  0.23319  1.0000
  H   H780      1.0  0.86070  0.73173  0.21815  1.0000
  H   H781      1.0  0.85129  0.73721  0.17472  1.0000
  C   C790      1.0  0.90030  0.53656  0.48991  1.0000
  H   H782      1.0  0.92587  0.51232  0.47357  1.0000
  H   H783      1.0  0.97983  0.74881  0.21257  1.0000
  C   C791      1.0  0.79938  0.81200  0.22816  1.0000
  H   H784      1.0  0.83454  0.67377  0.19935  1.0000
  S   S268      1.0  0.96277  0.61496  0.45316  1.0000
  H   H785      1.0  0.76339  0.84079  0.24421  1.0000
  C   C792      1.0  0.78184  0.66601  0.17122  1.0000
  N   N66       1.0  0.77510  0.80979  0.22530  1.0000
  H   H786      1.0  0.74689  0.79429  0.20467  1.0000
  C   C793      1.0  0.90991  0.51373  0.48473  1.0000
  S   S269      1.0  0.76531  0.69472  0.10775  1.0000
  N   N67       1.0  0.91125  0.65182  0.39150  1.0000
  C   C794      1.0  0.92658  0.64917  0.41054  1.0000
  C   C795      1.0  0.91332  0.67109  0.37618  1.0000
  C   C796      1.0  0.94385  0.66661  0.41532  1.0000
  C   C797      1.0  0.93041  0.68890  0.38038  1.0000
  C   C798      1.0  0.94559  0.68671  0.40025  1.0000
  C   C799      1.0  0.89318  0.63337  0.38696  1.0000
  H   H787      1.0  0.92536  0.63360  0.42231  1.0000
  H   H788      1.0  0.90122  0.67323  0.36103  1.0000
  H   H789      1.0  0.95560  0.66453  0.43080  1.0000
  H   H790      1.0  0.93126  0.70467  0.36874  1.0000
  H   H791      1.0  0.95853  0.70066  0.40405  1.0000
  C   C800      1.0  0.81537  0.80163  0.21162  1.0000
  H   H792      1.0  0.90100  0.61891  0.37566  1.0000
  H   H793      1.0  0.88648  0.62548  0.40423  1.0000
  H   H794      1.0  0.76489  0.66060  0.23006  1.0000
  N   N68       1.0  0.83555  0.84090  0.35224  1.0000
  C   C801      1.0  0.83380  0.82074  0.36643  1.0000
  C   C802      1.0  0.85619  0.84547  0.33950  1.0000
  C   C803      1.0  0.85306  0.80455  0.36812  1.0000
  C   C804      1.0  0.87576  0.82969  0.34079  1.0000
  C   C805      1.0  0.87422  0.80927  0.35540  1.0000
  C   C806      1.0  0.81575  0.85838  0.35181  1.0000
  H   H795      1.0  0.81745  0.81704  0.37650  1.0000
  H   H796      1.0  0.85747  0.86111  0.32777  1.0000
  H   H797      1.0  0.85171  0.78836  0.37910  1.0000
  H   H798      1.0  0.89184  0.83306  0.33013  1.0000
  H   H799      1.0  0.88933  0.79697  0.35673  1.0000
  H   H800      1.0  0.79805  0.84928  0.35313  1.0000
  H   H801      1.0  0.81752  0.87109  0.36702  1.0000
  H   H802      1.0  0.81561  0.86877  0.33458  1.0000
  C   C807      1.0  0.81557  0.67016  0.19687  1.0000
  H   H803      1.0  0.81846  0.78129  0.17875  1.0000
  H   H804      1.0  0.80652  0.82192  0.24324  1.0000
  H   H805      1.0  0.87714  0.64117  0.37791  1.0000
  H   H806      1.0  0.74910  0.90277  0.16343  1.0000
  H   H807      1.0  0.75377  0.93427  0.16854  1.0000
  H   H808      1.0  0.90883  0.55252  0.48274  1.0000
  C   C808      1.0  0.98223  0.77595  0.28518  1.0000
  C   C809      1.0  0.98149  0.64910  0.48281  1.0000
  H   H809      1.0  0.83607  0.68650  0.15707  1.0000
  H   H810      1.0  0.96317  0.65420  0.48682  1.0000
  S   S270      1.0  0.75300  0.75183  0.10585  1.0000
  C   C810      1.0  0.98638  0.63008  0.46718  1.0000
  H   H811      1.0  0.76047  0.81274  0.26066  1.0000
  C   C811      1.0  0.75886  0.82143  0.24263  1.0000
  C   C812      1.0  0.99042  0.76449  0.21696  1.0000
  C   C813      1.0  0.97897  0.78545  0.22460  1.0000
  S   S271      1.0  0.74995  0.70788  0.04425  1.0000
  H   H812      1.0  0.75870  0.69104  0.99627  1.0000
  H   H813      1.0  0.98379  0.82097  0.23844  1.0000
  C   C814      1.0  0.74410  0.91812  0.17521  1.0000
  Fe  Fe137     1.0  0.74375  0.71924  0.08353  1.0000
  Fe  Fe138     1.0  0.76528  0.72752  0.86012  1.0000
  S   S272      1.0  0.80319  0.73448  0.84653  1.0000
  C   C815      1.0  0.81295  0.80110  0.75266  1.0000
  Fe  Fe139     1.0  0.90280  0.65010  0.51244  1.0000
  S   S273      1.0  0.91525  0.66993  0.54581  1.0000
  S   S274      1.0  0.91996  0.61355  0.50973  1.0000
  Fe  Fe140     1.0  0.91109  0.74097  0.69506  1.0000
  S   S275      1.0  0.88586  0.70998  0.68840  1.0000
  S   S276      1.0  0.95057  0.72891  0.69289  1.0000
  Fe  Fe141     1.0  0.86891  0.77688  0.69592  1.0000
  S   S277      1.0  0.84188  0.74851  0.68860  1.0000
  S   S278      1.0  0.85589  0.81525  0.70163  1.0000
  Fe  Fe142     1.0  0.86175  0.72699  0.71628  1.0000
  S   S279      1.0  0.83737  0.70595  0.74156  1.0000
  Fe  Fe143     1.0  0.86826  0.73429  0.66138  1.0000
  S   S280      1.0  0.85235  0.72328  0.62544  1.0000
  S   S281      1.0  0.88800  0.75604  0.72531  1.0000
  S   S282      1.0  0.89424  0.76459  0.66640  1.0000
  H   H814      1.0  0.85298  0.51921  0.52480  1.0000
  H   H815      1.0  0.82187  0.62787  0.57097  1.0000
  H   H816      1.0  0.84476  0.59854  0.54600  1.0000
  C   C816      1.0  0.84109  0.62574  0.57337  1.0000
  C   C817      1.0  0.82502  0.82296  0.69993  1.0000
  C   C818      1.0  0.81740  0.84596  0.70704  1.0000
  C   C819      1.0  0.79329  0.85327  0.70409  1.0000
  C   C820      1.0  0.77673  0.83768  0.69370  1.0000
  C   C821      1.0  0.78418  0.81447  0.68733  1.0000
  C   C822      1.0  0.80813  0.80710  0.69054  1.0000
  H   H817      1.0  0.83030  0.85839  0.71435  1.0000
  H   H818      1.0  0.78779  0.87128  0.70892  1.0000
  H   H819      1.0  0.77146  0.80229  0.67932  1.0000
  H   H820      1.0  0.81361  0.78947  0.68480  1.0000
  H   H821      1.0  0.78121  0.79046  0.62006  1.0000
  S   S283      1.0  0.75603  0.70472  0.89262  1.0000
  S   S284      1.0  0.74400  0.89508  0.73819  1.0000
  C   C823      1.0  0.97826  0.74101  0.70288  1.0000
  H   H822      1.0  0.96364  0.77390  0.71697  1.0000
  C   C824      1.0  0.85391  0.60936  0.55931  1.0000
  H   H823      1.0  0.79991  0.66772  0.86873  1.0000
  C   C825      1.0  0.89743  0.68557  0.56707  1.0000
  C   C826      1.0  0.87287  0.68965  0.56367  1.0000
  C   C827      1.0  0.85928  0.70139  0.58165  1.0000
  C   C828      1.0  0.87008  0.70894  0.60316  1.0000
  C   C829      1.0  0.89463  0.70484  0.60654  1.0000
  C   C830      1.0  0.90824  0.69332  0.58850  1.0000
  H   H824      1.0  0.86438  0.68374  0.54724  1.0000
  H   H825      1.0  0.84030  0.70457  0.57889  1.0000
  H   H826      1.0  0.90313  0.71059  0.62302  1.0000
  H   H827      1.0  0.92724  0.69022  0.59123  1.0000
  H   H828      1.0  0.98038  0.71881  0.64756  1.0000
  C   C831      1.0  0.97982  0.76354  0.71371  1.0000
  H   H829      1.0  0.79121  0.83251  0.75838  1.0000
  C   C832      1.0  0.81059  0.73037  0.81572  1.0000
  C   C833      1.0  0.83288  0.73844  0.80689  1.0000
  C   C834      1.0  0.84071  0.73247  0.78344  1.0000
  C   C835      1.0  0.82640  0.71806  0.76885  1.0000
  C   C836      1.0  0.80374  0.71083  0.77731  1.0000
  C   C837      1.0  0.79578  0.71713  0.80053  1.0000
  H   H830      1.0  0.84449  0.74867  0.81853  1.0000
  H   H831      1.0  0.85832  0.73796  0.77718  1.0000
  H   H832      1.0  0.79262  0.69961  0.76614  1.0000
  H   H833      1.0  0.77867  0.71072  0.80702  1.0000
  H   H834      1.0  0.83517  0.86271  0.63022  1.0000
  N   N69       1.0  0.89057  0.62122  0.57843  1.0000
  C   C838      1.0  0.87802  0.63676  0.59286  1.0000
  C   C839      1.0  0.91666  0.61880  0.58112  1.0000
  C   C840      1.0  0.87878  0.60721  0.56218  1.0000
  H   H835      1.0  0.92538  0.61518  0.56340  1.0000
  H   H836      1.0  0.83539  0.68995  0.85476  1.0000
  H   H837      1.0  0.79136  0.74639  0.73748  1.0000
  H   H838      1.0  0.86353  0.67398  0.78436  1.0000
  H   H839      1.0  0.92093  0.60399  0.59391  1.0000
  H   H840      1.0  0.84346  0.65243  0.60132  1.0000
  C   C841      1.0  0.74856  0.70758  0.99462  1.0000
  C   C842      1.0  0.79323  0.66827  0.84987  1.0000
  H   H841      1.0  0.82983  0.81041  0.75523  1.0000
  H   H842      1.0  0.92468  0.63581  0.58762  1.0000
  H   H843      1.0  0.84424  0.85274  0.66001  1.0000
  C   C843      1.0  0.85315  0.63942  0.59042  1.0000
  H   H844      1.0  0.88731  0.64780  0.60585  1.0000
  N   N70       1.0  0.82575  0.82685  0.63898  1.0000
  C   C844      1.0  0.84460  0.81098  0.63831  1.0000
  C   C845      1.0  0.80329  0.81982  0.63210  1.0000
  C   C846      1.0  0.84114  0.78731  0.63087  1.0000
  C   C847      1.0  0.79914  0.79615  0.62492  1.0000
  C   C848      1.0  0.81825  0.77983  0.62432  1.0000
  C   C849      1.0  0.82986  0.85177  0.64617  1.0000
  H   H845      1.0  0.86237  0.81644  0.64400  1.0000
  H   H846      1.0  0.78827  0.83233  0.63286  1.0000
  H   H847      1.0  0.97025  0.74923  0.64564  1.0000
  C   C850      1.0  0.86890  0.51773  0.51359  1.0000
  H   H848      1.0  0.81343  0.85970  0.65452  1.0000
  H   H849      1.0  0.75375  0.98744  0.77543  1.0000
  S   S285      1.0  0.86727  0.56716  0.51141  1.0000
  H   H850      1.0  0.88859  0.59444  0.55110  1.0000
  N   N71       1.0  0.81318  0.66839  0.83246  1.0000
  C   C851      1.0  0.83376  0.68056  0.83774  1.0000
  C   C852      1.0  0.81036  0.65812  0.81029  1.0000
  C   C853      1.0  0.85240  0.68230  0.82075  1.0000
  C   C854      1.0  0.82864  0.65954  0.79286  1.0000
  C   C855      1.0  0.84975  0.67175  0.79816  1.0000
  H   H851      1.0  0.97866  0.73378  0.61845  1.0000
  C   C856      1.0  0.81305  0.77687  0.74651  1.0000
  H   H852      1.0  0.79362  0.64943  0.80570  1.0000
  H   H853      1.0  0.86829  0.69274  0.82467  1.0000
  H   H854      1.0  0.82606  0.65228  0.77493  1.0000
  H   H855      1.0  0.78239  0.68487  0.84752  1.0000
  Fe  Fe144     1.0  0.88435  0.60107  0.49626  1.0000
  C   C857      1.0  0.79106  0.81348  0.75438  1.0000
  S   S286      1.0  0.74730  0.84698  0.68629  1.0000
  H   H856      1.0  0.82994  0.76721  0.74459  1.0000
  C   C858      1.0  0.76976  0.77810  0.74447  1.0000
  H   H857      1.0  0.78128  0.65253  0.84746  1.0000
  H   H858      1.0  0.85606  0.77472  0.63034  1.0000
  C   C859      1.0  0.87974  0.53867  0.50439  1.0000
  C   C860      1.0  0.98319  0.73609  0.63779  1.0000
  H   H859      1.0  0.81540  0.76135  0.61890  1.0000
  C   C861      1.0  0.79135  0.76524  0.74239  1.0000
  N   N72       1.0  0.76982  0.80188  0.75053  1.0000
  H   H860      1.0  0.74821  0.70670  0.95552  1.0000
  H   H861      1.0  0.74864  0.83204  0.76209  1.0000
  S   S287      1.0  0.86625  0.63705  0.50149  1.0000
  C   C862      1.0  0.74702  0.81519  0.75157  1.0000
  H   H862      1.0  0.75295  0.76899  0.74108  1.0000
  C   C863      1.0  0.87854  0.49485  0.50840  1.0000
  H   H863      1.0  0.77038  0.94639  0.77791  1.0000
  C   C864      1.0  0.75240  0.95004  0.78467  1.0000
  H   H864      1.0  0.74533  0.91324  0.79465  1.0000
  S   S288      1.0  0.74402  0.96503  0.72496  1.0000
