data_image0
_chemical_formula_structural       FeS2FeS2FeSFeS3HFeS2FeCFeSFeS3H8C2H6C5H3SC8H3C6H4C3H2CSNH2NC6H6CHSHCHCHC6HCN2HNC5H2C2H2CH4CHCH3CH2C3HC5HCH2CH2FeCFeS2FeSFeHS2FeS2FeS2Fe2S3HC3HC6H4C3SHC2H2C3H3SHCHCH4CH3CH2NHC2H2CHC5H2CNCH2CNCHCH4CH5C2H2C2FeS2FeSFeSFeHS2FeSCFeSFe2SHSC7H5C2SNHCHNHC2HC3NC2HCSH2NCH4SCH2C2SH2CHSC2H5C2HCH2CH3CNH2FeS2FeSHFeSFeS3FeS2FeSCFeSFeS3H3NC3HC2H6C2H2C2H2C8H2C7H5CHSH3NC2SHC2H2C4HCNCH2CHCHCHCH2SC2HCHC2H2C3HC2H3C2HC2HCH3CNC2H3NCH2CH2CFeS2FeS2FeSFeS3FeSCFeS2Fe2SHSHNHCHCSCH2CSCNHC2HC2H2C6H4C6H4C2H2SC4H5CHCHC3HC2HNH4CH2C3SH4CHCH3C4NCHCHC2H4CHC8FeHFeS2FeSFeS3FeSCFeS2Fe2S3C2H3C6H4C2H2CSHC3H3CH2C2NC6H8NCH3SCHCNH5CSC2H3CH4CHC4HCSFeS2FeS2FeSFeS3HFeSCFeS2Fe2H2SCHC2SCSC3NH2C2SHC2HC2HC4HC2H4C6H4C2H3C2H3C2HCN2CHC2H2CHCH4C9H3C2H4C2HCSCH3CH2SH3C2H2CH4NHC2HC3HFeSFeS2FeSFeS3FeSCFeS2Fe2SHSCHSCHC6H4C2HCHC2HCH8C2HCHC3HCNC7H2SH4NC6H6NSHCHCSCNH3NC3H3C2H3C3HFeSFeS2FeSFeCS2FeHFeS2Fe2CS2NCHC6H5C3H3C3HCSCHCH2NHSCH3C3H2C2H2CHSH2SCNSHCH3C2H3FeS2FeS2FeCFeS3FeS2FeSNFeSFeS3C3HC2H2C6H4CHCH4C6H4C6H5SH3CSCHC2NH6C2HCHSCNC2HCHCH4C5H4C2H2C2H2C2HCH2FeS2FeS2FeSFeS3FeHFeS2FeSFeCS2HC2HC3HC2HNH2C2NC2H2C7H4C6H5C2H7C2HSC2SC2HNC2H2CHCHC3HCH6CH2CH2CHCNCH3SHCHCHCH2CH2C3HCHFeSFeS2FeSFeS3FeS2CSFeSFeS3CHCHC7H4C2H2C3H4C2HC2HN2CHCH2C3HCSH2C3H3C3HCH2CH2C2NCHFeH5CH2NHC2H2CHC2HCH2C2H3
_chemical_formula_sum              "Fe96 S192 H576 C576 N48"
_cell_length_a       57.2016
_cell_length_b       56.931
_cell_length_c       32.8797
_cell_angle_alpha    89.7802
_cell_angle_beta     90.0608
_cell_angle_gamma    89.5563

_space_group_name_H-M_alt    "P 1"
_space_group_IT_number       1

loop_
  _space_group_symop_operation_xyz
  'x, y, z'

loop_
  _atom_site_type_symbol
  _atom_site_label
  _atom_site_symmetry_multiplicity
  _atom_site_fract_x
  _atom_site_fract_y
  _atom_site_fract_z
  _atom_site_occupancy
  Fe  Fe1       1.0  0.37736  0.09111  0.26411  1.0000
  S   S1        1.0  0.40970  0.08833  0.30182  1.0000
  S   S2        1.0  0.35437  0.05938  0.26709  1.0000
  Fe  Fe2       1.0  0.38661  0.14211  0.24125  1.0000
  S   S3        1.0  0.41911  0.14349  0.27991  1.0000
  S   S4        1.0  0.37733  0.17495  0.20514  1.0000
  Fe  Fe3       1.0  0.42691  0.10848  0.25198  1.0000
  S   S5        1.0  0.46096  0.09827  0.22270  1.0000
  Fe  Fe4       1.0  0.39837  0.12328  0.32640  1.0000
  S   S6        1.0  0.40003  0.12357  0.39506  1.0000
  S   S7        1.0  0.39557  0.10791  0.21115  1.0000
  S   S8        1.0  0.36501  0.12526  0.29068  1.0000
  H   H1        1.0  0.22221  0.28022  0.33832  1.0000
  Fe  Fe5       1.0  0.12836  0.29969  0.38027  1.0000
  S   S9        1.0  0.11466  0.26441  0.40064  1.0000
  S   S10       1.0  0.13224  0.30908  0.31285  1.0000
  Fe  Fe6       1.0  0.13055  0.31768  0.46786  1.0000
  C   C1        1.0  0.18273  0.21761  0.49253  1.0000
  Fe  Fe7       1.0  0.14236  0.26622  0.45007  1.0000
  S   S11       1.0  0.17241  0.23926  0.45708  1.0000
  Fe  Fe8       1.0  0.09098  0.28476  0.44345  1.0000
  S   S12       1.0  0.05192  0.28426  0.46126  1.0000
  S   S13       1.0  0.15687  0.30058  0.42673  1.0000
  S   S14       1.0  0.10297  0.31960  0.41939  1.0000
  H   H2        1.0  0.13353  0.23052  0.32410  1.0000
  H   H3        1.0  0.44758  0.14740  0.20625  1.0000
  H   H4        1.0  0.34754  0.26234  0.05909  1.0000
  H   H5        1.0  0.45244  0.12520  0.06049  1.0000
  H   H6        1.0  0.50279  0.13112  0.33945  1.0000
  H   H7        1.0  0.32978  0.23099  0.14943  1.0000
  H   H8        1.0  0.50552  0.07464  0.35302  1.0000
  H   H9        1.0  0.31730  0.26563  0.07337  1.0000
  C   C2        1.0  0.02549  0.27996  0.43335  1.0000
  C   C3        1.0  0.45868  0.04125  0.25465  1.0000
  H   H10       1.0  0.33305  0.22772  0.02017  1.0000
  H   H11       1.0  0.50045  0.03035  0.22442  1.0000
  H   H12       1.0  0.44450  0.05253  0.26724  1.0000
  H   H13       1.0  0.03685  0.24855  0.40281  1.0000
  H   H14       1.0  0.29139  0.12122  0.36152  1.0000
  H   H15       1.0  0.38639  0.11786  0.47855  1.0000
  C   C4        1.0  0.32660  0.18336  0.08818  1.0000
  C   C5        1.0  0.33128  0.21908  0.04942  1.0000
  C   C6        1.0  0.32247  0.09958  0.36686  1.0000
  C   C7        1.0  0.30297  0.11171  0.38199  1.0000
  C   C8        1.0  0.15591  0.32344  0.28843  1.0000
  H   H16       1.0  0.13802  0.32518  0.23070  1.0000
  H   H17       1.0  0.26954  0.32230  0.04026  1.0000
  H   H18       1.0  0.20078  0.25658  0.38995  1.0000
  S   S15       1.0  0.11777  0.28382  0.49460  1.0000
  C   C9        1.0  0.13847  0.24507  0.30322  1.0000
  C   C10       1.0  0.37555  0.13405  0.42216  1.0000
  C   C11       1.0  0.37313  0.12843  0.46359  1.0000
  C   C12       1.0  0.29879  0.11186  0.42381  1.0000
  C   C13       1.0  0.33674  0.15062  0.46668  1.0000
  C   C14       1.0  0.33931  0.15638  0.42540  1.0000
  C   C15       1.0  0.35847  0.14788  0.40305  1.0000
  C   C16       1.0  0.50429  0.12298  0.30985  1.0000
  H   H19       1.0  0.32573  0.18784  0.15327  1.0000
  H   H20       1.0  0.32636  0.16742  0.41058  1.0000
  H   H21       1.0  0.36033  0.15253  0.37131  1.0000
  C   C17       1.0  0.38032  0.17404  0.15182  1.0000
  C   C18       1.0  0.38331  0.19504  0.12993  1.0000
  C   C19       1.0  0.38503  0.19479  0.08722  1.0000
  C   C20       1.0  0.38362  0.17351  0.06625  1.0000
  C   C21       1.0  0.38046  0.15260  0.08814  1.0000
  C   C22       1.0  0.37888  0.15284  0.13074  1.0000
  H   H22       1.0  0.38432  0.21152  0.14609  1.0000
  H   H23       1.0  0.38752  0.21101  0.07066  1.0000
  H   H24       1.0  0.37910  0.13611  0.07207  1.0000
  H   H25       1.0  0.37596  0.13666  0.14714  1.0000
  C   C23       1.0  0.48591  0.10686  0.24966  1.0000
  C   C24       1.0  0.33341  0.08805  0.43375  1.0000
  C   C25       1.0  0.48403  0.11776  0.28758  1.0000
  H   H26       1.0  0.20420  0.28741  0.27039  1.0000
  H   H27       1.0  0.46701  0.12176  0.30017  1.0000
  C   C26       1.0  0.39160  0.03537  0.23440  1.0000
  S   S16       1.0  0.31203  0.16138  0.49284  1.0000
  N   N1        1.0  0.33181  0.23185  0.08457  1.0000
  H   H28       1.0  0.39843  0.05239  0.22619  1.0000
  H   H29       1.0  0.45434  0.02257  0.26057  1.0000
  N   N2        1.0  0.43829  0.14828  0.10466  1.0000
  C   C27       1.0  0.44181  0.13943  0.14295  1.0000
  C   C28       1.0  0.43848  0.17202  0.09797  1.0000
  C   C29       1.0  0.44483  0.15451  0.17597  1.0000
  C   C30       1.0  0.44117  0.18761  0.13043  1.0000
  C   C31       1.0  0.44413  0.17873  0.16973  1.0000
  C   C32       1.0  0.43520  0.13211  0.07052  1.0000
  H   H30       1.0  0.44210  0.12060  0.14830  1.0000
  H   H31       1.0  0.43576  0.17908  0.06757  1.0000
  H   H32       1.0  0.33999  0.26505  0.11167  1.0000
  H   H33       1.0  0.46700  0.06515  0.32319  1.0000
  H   H34       1.0  0.21668  0.21552  0.46422  1.0000
  H   H35       1.0  0.42641  0.14094  0.04428  1.0000
  C   C33       1.0  0.15392  0.32934  0.24695  1.0000
  H   H36       1.0  0.42384  0.11721  0.07956  1.0000
  S   S17       1.0  0.38644  0.17203  0.01298  1.0000
  H   H37       1.0  0.34549  0.07931  0.45435  1.0000
  C   C34       1.0  0.32932  0.22095  0.12148  1.0000
  H   H38       1.0  0.36413  0.08424  0.34774  1.0000
  C   C35       1.0  0.32673  0.19655  0.12386  1.0000
  H   H39       1.0  0.16514  0.27132  0.25519  1.0000
  C   C36       1.0  0.02219  0.26008  0.40913  1.0000
  C   C37       1.0  0.30384  0.33736  0.04362  1.0000
  C   C38       1.0  0.33426  0.25744  0.08228  1.0000
  C   C39       1.0  0.17657  0.32891  0.30900  1.0000
  C   C40       1.0  0.35362  0.13648  0.48576  1.0000
  C   C41       1.0  0.32760  0.33379  0.03398  1.0000
  H   H40       1.0  0.42010  0.01621  0.20694  1.0000
  C   C42       1.0  0.35815  0.07604  0.37653  1.0000
  N   N3        1.0  0.33767  0.08844  0.39281  1.0000
  N   N4        1.0  0.48150  0.04696  0.27232  1.0000
  H   H41       1.0  0.12529  0.25940  0.30631  1.0000
  N   N5        1.0  0.16179  0.25412  0.31262  1.0000
  C   C43       1.0  0.17147  0.25029  0.35016  1.0000
  C   C44       1.0  0.17330  0.26732  0.28423  1.0000
  C   C45       1.0  0.19337  0.25949  0.35989  1.0000
  C   C46       1.0  0.19535  0.27658  0.29277  1.0000
  C   C47       1.0  0.20536  0.27270  0.33095  1.0000
  H   H42       1.0  0.44575  0.19056  0.19538  1.0000
  H   H43       1.0  0.16221  0.24020  0.37301  1.0000
  C   C48       1.0  0.31388  0.09968  0.44985  1.0000
  C   C49       1.0  0.32885  0.19466  0.05067  1.0000
  H   H44       1.0  0.13782  0.23821  0.27167  1.0000
  H   H45       1.0  0.45871  0.04458  0.22130  1.0000
  C   C50       1.0  0.28779  0.32006  0.03263  1.0000
  H   H46       1.0  0.32939  0.18454  0.02275  1.0000
  H   H47       1.0  0.32559  0.09939  0.33429  1.0000
  H   H48       1.0  0.17839  0.32447  0.34088  1.0000
  H   H49       1.0  0.23326  0.34019  0.00709  1.0000
  C   C51       1.0  0.19497  0.34012  0.28821  1.0000
  H   H50       1.0  0.28421  0.12185  0.43625  1.0000
  C   C52       1.0  0.37013  0.03374  0.25453  1.0000
  H   H51       1.0  0.32546  0.16435  0.08965  1.0000
  H   H52       1.0  0.44043  0.20643  0.12522  1.0000
  H   H53       1.0  0.35380  0.05744  0.37014  1.0000
  C   C53       1.0  0.50147  0.03970  0.25304  1.0000
  H   H54       1.0  0.35357  0.31095  0.00635  1.0000
  H   H55       1.0  0.37318  0.07698  0.39793  1.0000
  C   C54       1.0  0.50801  0.10153  0.23384  1.0000
  C   C55       1.0  0.40389  0.01490  0.22363  1.0000
  C   C56       1.0  0.48278  0.05892  0.30829  1.0000
  H   H56       1.0  0.31100  0.10014  0.48247  1.0000
  C   C57       1.0  0.31914  0.29622  0.00197  1.0000
  C   C58       1.0  0.33525  0.31333  0.01350  1.0000
  C   C59       1.0  0.20566  0.20871  0.48817  1.0000
  C   C60       1.0  0.17223  0.34078  0.22627  1.0000
  C   C61       1.0  0.50450  0.06423  0.32548  1.0000
  H   H57       1.0  0.50953  0.09291  0.20469  1.0000
  C   C62       1.0  0.29539  0.29974  0.01177  1.0000
  H   H58       1.0  0.21089  0.34426  0.30440  1.0000
  H   H59       1.0  0.28276  0.28658  0.00328  1.0000
  C   C63       1.0  0.19288  0.34627  0.24681  1.0000
  H   H60       1.0  0.17033  0.34543  0.19448  1.0000
  H   H61       1.0  0.30190  0.04302  0.68634  1.0000
  Fe  Fe9       1.0  0.38592  0.20476  0.97358  1.0000
  C   C64       1.0  0.26610  0.07112  0.70349  1.0000
  Fe  Fe10      1.0  0.37853  0.22000  0.88441  1.0000
  S   S18       1.0  0.38433  0.25802  0.90095  1.0000
  S   S19       1.0  0.37579  0.20896  0.81711  1.0000
  Fe  Fe11      1.0  0.41456  0.24485  0.93984  1.0000
  S   S20       1.0  0.45000  0.26373  0.93866  1.0000
  Fe  Fe12      1.0  0.36146  0.25146  0.95586  1.0000
  H   H62       1.0  0.04989  0.34590  0.76556  1.0000
  S   S21       1.0  0.41017  0.20754  0.91994  1.0000
  S   S22       1.0  0.35407  0.21408  0.93675  1.0000
  Fe  Fe13      1.0  0.28153  0.10143  0.59546  1.0000
  S   S23       1.0  0.31287  0.12519  0.60261  1.0000
  S   S24       1.0  0.29240  0.06245  0.60219  1.0000
  Fe  Fe14      1.0  0.24805  0.14453  0.58392  1.0000
  S   S25       1.0  0.27716  0.17016  0.59097  1.0000
  S   S26       1.0  0.21055  0.15885  0.57847  1.0000
  Fe  Fe15      1.0  0.29714  0.14548  0.55022  1.0000
  Fe  Fe16      1.0  0.29020  0.14779  0.64297  1.0000
  S   S27       1.0  0.29560  0.16152  0.70818  1.0000
  S   S28       1.0  0.26731  0.12067  0.54045  1.0000
  S   S29       1.0  0.25963  0.12309  0.63862  1.0000
  H   H63       1.0  0.21627  0.18703  0.68518  1.0000
  C   C65       1.0  0.28062  0.03352  0.59783  1.0000
  C   C66       1.0  0.30734  0.06032  0.69617  1.0000
  C   C67       1.0  0.29775  0.09911  0.71691  1.0000
  H   H64       1.0  0.24624  0.04396  0.57783  1.0000
  C   C68       1.0  0.35321  0.19565  0.78751  1.0000
  C   C69       1.0  0.35752  0.19048  0.74625  1.0000
  C   C70       1.0  0.34026  0.18002  0.72149  1.0000
  C   C71       1.0  0.31833  0.17460  0.73768  1.0000
  C   C72       1.0  0.31399  0.17980  0.77887  1.0000
  C   C73       1.0  0.33126  0.19020  0.80364  1.0000
  H   H65       1.0  0.37438  0.19462  0.73329  1.0000
  H   H66       1.0  0.34397  0.17622  0.68993  1.0000
  H   H67       1.0  0.29713  0.17574  0.79188  1.0000
  H   H68       1.0  0.32758  0.19404  0.83520  1.0000
  C   C74       1.0  0.48429  0.22853  0.94635  1.0000
  C   C75       1.0  0.47928  0.25250  0.94160  1.0000
  C   C76       1.0  0.49811  0.26817  0.93758  1.0000
  S   S30       1.0  0.32749  0.26989  0.97625  1.0000
  H   H69       1.0  0.26875  0.23523  0.60040  1.0000
  C   C77       1.0  0.20035  0.18147  0.54480  1.0000
  C   C78       1.0  0.17744  0.19041  0.54930  1.0000
  H   H70       1.0  0.14568  0.31322  0.63445  1.0000
  H   H71       1.0  0.16627  0.18323  0.57272  1.0000
  C   C79       1.0  0.50775  0.22048  0.94739  1.0000
  C   C80       1.0  0.21962  0.34512  0.94633  1.0000
  C   C81       1.0  0.32144  0.10505  0.71766  1.0000
  H   H72       1.0  0.47010  0.21620  0.94927  1.0000
  H   H73       1.0  0.30054  0.20466  0.65278  1.0000
  H   H74       1.0  0.29624  0.23606  0.65804  1.0000
  S   S31       1.0  0.39197  0.24137  0.99606  1.0000
  H   H75       1.0  0.47669  0.27174  0.85288  1.0000
  C   C82       1.0  0.14195  0.32979  0.57568  1.0000
  H   H76       1.0  0.41048  0.24450  0.81847  1.0000
  C   C83       1.0  0.43263  0.28419  0.83739  1.0000
  H   H77       1.0  0.29193  0.21697  0.70081  1.0000
  H   H78       1.0  0.14248  0.31340  0.55920  1.0000
  H   H79       1.0  0.31284  0.01703  0.61727  1.0000
  H   H80       1.0  0.41628  0.28585  0.81929  1.0000
  C   C84       1.0  0.14384  0.32974  0.61832  1.0000
  H   H81       1.0  0.44504  0.29762  0.82609  1.0000
  H   H82       1.0  0.08720  0.32753  0.74243  1.0000
  H   H83       1.0  0.25488  0.08442  0.71882  1.0000
  C   C85       1.0  0.33820  0.08828  0.70692  1.0000
  H   H84       1.0  0.34394  0.05270  0.68669  1.0000
  H   H85       1.0  0.49455  0.28675  0.93393  1.0000
  N   N6        1.0  0.29098  0.07695  0.70628  1.0000
  H   H86       1.0  0.21126  0.33762  0.85716  1.0000
  C   C86       1.0  0.25762  0.02932  0.58544  1.0000
  C   C87       1.0  0.28964  0.21854  0.66729  1.0000
  H   H87       1.0  0.26269  0.05378  0.71782  1.0000
  H   H88       1.0  0.35657  0.09287  0.70652  1.0000
  C   C88       1.0  0.21909  0.20853  0.63148  1.0000
  H   H89       1.0  0.28485  0.11249  0.72436  1.0000
  C   C89       1.0  0.25712  0.22526  0.61982  1.0000
  C   C90       1.0  0.42891  0.24188  0.82499  1.0000
  C   C91       1.0  0.23397  0.22194  0.60736  1.0000
  C   C92       1.0  0.47569  0.23448  0.84356  1.0000
  C   C93       1.0  0.08448  0.34198  0.68178  1.0000
  H   H90       1.0  0.20441  0.33435  0.95222  1.0000
  H   H91       1.0  0.42683  0.20431  0.81762  1.0000
  C   C94       1.0  0.43811  0.21905  0.82448  1.0000
  N   N7        1.0  0.44282  0.26055  0.83435  1.0000
  C   C95       1.0  0.46593  0.25709  0.84356  1.0000
  H   H92       1.0  0.32672  0.12269  0.72582  1.0000
  H   H93       1.0  0.25723  0.19365  0.70637  1.0000
  C   C96       1.0  0.46162  0.21535  0.83406  1.0000
  N   N8        1.0  0.26510  0.21562  0.65551  1.0000
  C   C97       1.0  0.25072  0.20199  0.67883  1.0000
  H   H94       1.0  0.23214  0.18438  0.51034  1.0000
  C   C98       1.0  0.22753  0.19825  0.66719  1.0000
  H   H95       1.0  0.46881  0.19767  0.83483  1.0000
  H   H96       1.0  0.20123  0.20544  0.62184  1.0000
  H   H97       1.0  0.26080  0.07027  0.67096  1.0000
  H   H98       1.0  0.42848  0.28804  0.86975  1.0000
  C   C99       1.0  0.33115  0.06575  0.69608  1.0000
  H   H99       1.0  0.35184  0.13211  0.51764  1.0000
  H   H100      1.0  0.49382  0.23179  0.85238  1.0000
  H   H101      1.0  0.22769  0.22919  0.57871  1.0000
  H   H102      1.0  0.10068  0.33383  0.67200  1.0000
  H   H103      1.0  0.01273  0.28945  0.54564  1.0000
  C   C100      1.0  0.21450  0.19097  0.51429  1.0000
  C   C101      1.0  0.16874  0.20848  0.52364  1.0000
  H   H104      1.0  0.15105  0.21496  0.52736  1.0000
  H   H105      1.0  0.02162  0.25081  0.51569  1.0000
  C   C102      1.0  0.07677  0.33809  0.72158  1.0000
  C   C103      1.0  0.29502  0.01409  0.60760  1.0000
  Fe  Fe17      1.0  0.21420  0.63667  0.15026  1.0000
  S   S32       1.0  0.25265  0.62927  0.14161  1.0000
  S   S33       1.0  0.19473  0.63931  0.21113  1.0000
  Fe  Fe18      1.0  0.20473  0.62992  0.05941  1.0000
  S   S34       1.0  0.24248  0.62267  0.04387  1.0000
  Fe  Fe19      1.0  0.24230  0.59963  0.09997  1.0000
  S   S35       1.0  0.26153  0.56409  0.09966  1.0000
  Fe  Fe20      1.0  0.25010  0.65290  0.08619  1.0000
  H   H106      1.0  0.16471  0.64279  0.28058  1.0000
  S   S36       1.0  0.20441  0.60523  0.11280  1.0000
  S   S37       1.0  0.21194  0.66185  0.09760  1.0000
  Fe  Fe21      1.0  0.22164  0.37462  0.15737  1.0000
  S   S38       1.0  0.25294  0.39797  0.14681  1.0000
  C   C104      1.0  0.18679  0.39910  0.29913  1.0000
  Fe  Fe22      1.0  0.20770  0.37847  0.06743  1.0000
  S   S39       1.0  0.23772  0.40171  0.05125  1.0000
  Fe  Fe23      1.0  0.25886  0.37638  0.08977  1.0000
  Fe  Fe24      1.0  0.22920  0.42124  0.10890  1.0000
  S   S40       1.0  0.21836  0.46031  0.11063  1.0000
  H   H107      1.0  0.29897  0.59635  0.10883  1.0000
  S   S41       1.0  0.19765  0.39897  0.12296  1.0000
  C   C105      1.0  0.13904  0.65946  0.17587  1.0000
  C   C106      1.0  0.24920  0.53532  0.10228  1.0000
  C   C107      1.0  0.22512  0.53174  0.10617  1.0000
  C   C108      1.0  0.21616  0.50870  0.10859  1.0000
  C   C109      1.0  0.23103  0.48887  0.10710  1.0000
  C   C110      1.0  0.25509  0.49243  0.10280  1.0000
  C   C111      1.0  0.26408  0.51549  0.10049  1.0000
  H   H108      1.0  0.21340  0.54670  0.10768  1.0000
  H   H109      1.0  0.19753  0.50626  0.11199  1.0000
  H   H110      1.0  0.26681  0.47744  0.10163  1.0000
  H   H111      1.0  0.28273  0.51796  0.09752  1.0000
  H   H112      1.0  0.20499  0.39212  0.30083  1.0000
  C   C112      1.0  0.20204  0.65456  0.36338  1.0000
  C   C113      1.0  0.31893  0.63483  0.01868  1.0000
  S   S42       1.0  0.21617  0.36167  0.22311  1.0000
  N   N9        1.0  0.31415  0.62891  0.09061  1.0000
  H   H113      1.0  0.30672  0.62708  0.15440  1.0000
  C   C114      1.0  0.13687  0.36885  0.35088  1.0000
  H   H114      1.0  0.33591  0.63627  0.14112  1.0000
  N   N10       1.0  0.17219  0.38832  0.33067  1.0000
  H   H115      1.0  0.12036  0.36078  0.34286  1.0000
  C   C115      1.0  0.15089  0.37908  0.32088  1.0000
  C   C116      1.0  0.18006  0.67531  0.41649  1.0000
  H   H116      1.0  0.18179  0.43987  0.06495  1.0000
  C   C117      1.0  0.19105  0.45941  0.01152  1.0000
  C   C118      1.0  0.31720  0.63741  0.13230  1.0000
  C   C119      1.0  0.17988  0.38800  0.37012  1.0000
  N   N11       1.0  0.19589  0.67531  0.38149  1.0000
  C   C120      1.0  0.17725  0.44369  0.03357  1.0000
  C   C121      1.0  0.30178  0.59907  0.04396  1.0000
  H   H117      1.0  0.19673  0.39538  0.37791  1.0000
  C   C122      1.0  0.30465  0.60730  0.08367  1.0000
  S   S43       1.0  0.17237  0.62334  0.02166  1.0000
  H   H118      1.0  0.31112  0.65597  0.13463  1.0000
  H   H119      1.0  0.19554  0.63803  0.37513  1.0000
  N   N12       1.0  0.14502  0.65012  0.13902  1.0000
  C   C123      1.0  0.18389  0.66414  0.23798  1.0000
  H   H120      1.0  0.23424  0.67579  0.28477  1.0000
  H   H121      1.0  0.18703  0.41847  0.30281  1.0000
  H   H122      1.0  0.29382  0.58208  0.03872  1.0000
  H   H123      1.0  0.15835  0.61684  0.15719  1.0000
  S   S44       1.0  0.29511  0.36384  0.06858  1.0000
  C   C124      1.0  0.16621  0.37807  0.40093  1.0000
  H   H124      1.0  0.22050  0.63801  0.31357  1.0000
  H   H125      1.0  0.13391  0.36071  0.41478  1.0000
  C   C125      1.0  0.21627  0.65440  0.32876  1.0000
  C   C126      1.0  0.16932  0.66051  0.27190  1.0000
  S   S45       1.0  0.22913  0.35191  0.10262  1.0000
  H   H126      1.0  0.20612  0.46749  0.02578  1.0000
  H   H127      1.0  0.32910  0.65962  0.06430  1.0000
  C   C127      1.0  0.32159  0.64247  0.05879  1.0000
  H   H128      1.0  0.14490  0.37890  0.28956  1.0000
  S   S46       1.0  0.18012  0.36771  0.02174  1.0000
  C   C128      1.0  0.14460  0.36848  0.39113  1.0000
  C   C129      1.0  0.16094  0.67958  0.29515  1.0000
  H   H129      1.0  0.18043  0.39504  0.26795  1.0000
  H   H130      1.0  0.15211  0.61918  0.10382  1.0000
  H   H131      1.0  0.17223  0.37767  0.43231  1.0000
  H   H132      1.0  0.13559  0.64804  0.20164  1.0000
  H   H133      1.0  0.13668  0.40293  0.01975  1.0000
  C   C130      1.0  0.14597  0.62452  0.13455  1.0000
  C   C131      1.0  0.22401  0.67564  0.31255  1.0000
  H   H134      1.0  0.12836  0.61696  0.13935  1.0000
  C   C132      1.0  0.14993  0.66451  0.10673  1.0000
  H   H135      1.0  0.12971  0.42658  0.05468  1.0000
  H   H136      1.0  0.18108  0.65860  0.43401  1.0000
  C   C133      1.0  0.14410  0.41685  0.03947  1.0000
  H   H137      1.0  0.15479  0.40754  0.06288  1.0000
  H   H138      1.0  0.15460  0.65717  0.07741  1.0000
  H   H139      1.0  0.14999  0.67650  0.32141  1.0000
  C   C134      1.0  0.30885  0.61302  0.01129  1.0000
  N   N13       1.0  0.15847  0.43311  0.01574  1.0000
  H   H140      1.0  0.16175  0.67797  0.40609  1.0000
  H   H141      1.0  0.34020  0.34701  0.04234  1.0000
  Fe  Fe25      1.0  0.11818  0.43249  0.73684  1.0000
  S   S47       1.0  0.11266  0.43070  0.80424  1.0000
  S   S48       1.0  0.10597  0.46459  0.70254  1.0000
  Fe  Fe26      1.0  0.13435  0.38161  0.73082  1.0000
  S   S49       1.0  0.13001  0.37553  0.79806  1.0000
  H   H142      1.0  0.16793  0.55929  0.88893  1.0000
  Fe  Fe27      1.0  0.09646  0.39584  0.79111  1.0000
  S   S50       1.0  0.06312  0.38423  0.82119  1.0000
  Fe  Fe28      1.0  0.14671  0.41076  0.80525  1.0000
  S   S51       1.0  0.17528  0.41909  0.85059  1.0000
  S   S52       1.0  0.09934  0.39893  0.72345  1.0000
  S   S53       1.0  0.15377  0.41551  0.73824  1.0000
  Fe  Fe29      1.0  0.13512  0.59101  0.74435  1.0000
  S   S54       1.0  0.12398  0.59643  0.80879  1.0000
  S   S55       1.0  0.15888  0.55960  0.73773  1.0000
  Fe  Fe30      1.0  0.10962  0.63517  0.71422  1.0000
  S   S56       1.0  0.09675  0.64406  0.77701  1.0000
  C   C135      1.0  0.06163  0.47614  0.77226  1.0000
  Fe  Fe31      1.0  0.13308  0.63411  0.79777  1.0000
  S   S57       1.0  0.15741  0.65479  0.83827  1.0000
  Fe  Fe32      1.0  0.08903  0.60557  0.78197  1.0000
  S   S58       1.0  0.05629  0.58699  0.80139  1.0000
  S   S59       1.0  0.14656  0.62826  0.73437  1.0000
  S   S60       1.0  0.09946  0.59716  0.71807  1.0000
  H   H143      1.0  0.13805  0.38874  0.56007  1.0000
  H   H144      1.0  0.18899  0.58015  0.94439  1.0000
  H   H145      1.0  0.19619  0.47630  0.95349  1.0000
  N   N14       1.0  0.22235  0.35612  0.90955  1.0000
  C   C136      1.0  0.16078  0.64675  0.88976  1.0000
  C   C137      1.0  0.14663  0.62966  0.90749  1.0000
  C   C138      1.0  0.15017  0.62302  0.94823  1.0000
  H   H146      1.0  0.02570  0.46939  0.75677  1.0000
  C   C139      1.0  0.18227  0.65029  0.95369  1.0000
  C   C140      1.0  0.17845  0.65722  0.91306  1.0000
  H   H147      1.0  0.13283  0.62168  0.88993  1.0000
  H   H148      1.0  0.13907  0.60985  0.96181  1.0000
  H   H149      1.0  0.09132  0.37827  0.61648  1.0000
  H   H150      1.0  0.14645  0.36564  0.95700  1.0000
  H   H151      1.0  0.24359  0.37864  0.87336  1.0000
  H   H152      1.0  0.27309  0.38458  0.92768  1.0000
  C   C141      1.0  0.13403  0.65856  0.61520  1.0000
  C   C142      1.0  0.13954  0.37222  0.57628  1.0000
  H   H153      1.0  0.14222  0.64723  0.63762  1.0000
  H   H154      1.0  0.02067  0.42991  0.71803  1.0000
  C   C143      1.0  0.03257  0.62871  0.81294  1.0000
  C   C144      1.0  0.15247  0.43835  0.97640  1.0000
  H   H155      1.0  0.04945  0.63682  0.81666  1.0000
  H   H156      1.0  0.19010  0.62740  0.78836  1.0000
  C   C145      1.0  0.17613  0.40453  0.89778  1.0000
  C   C146      1.0  0.19495  0.40877  0.92398  1.0000
  C   C147      1.0  0.19612  0.39784  0.96222  1.0000
  C   C148      1.0  0.17872  0.38222  0.97431  1.0000
  C   C149      1.0  0.15998  0.37776  0.94792  1.0000
  C   C150      1.0  0.15859  0.38901  0.90979  1.0000
  C   C151      1.0  0.03108  0.60456  0.80587  1.0000
  C   C152      1.0  0.01921  0.41830  0.74403  1.0000
  H   H157      1.0  0.16411  0.65904  0.57559  1.0000
  H   H158      1.0  0.14399  0.38565  0.88972  1.0000
  C   C153      1.0  0.24139  0.36998  0.90255  1.0000
  C   C154      1.0  0.12125  0.49070  0.71172  1.0000
  C   C155      1.0  0.11207  0.51201  0.69706  1.0000
  C   C156      1.0  0.12349  0.53323  0.70510  1.0000
  C   C157      1.0  0.14433  0.53319  0.72738  1.0000
  C   C158      1.0  0.15357  0.51186  0.74189  1.0000
  C   C159      1.0  0.14191  0.49066  0.73450  1.0000
  H   H159      1.0  0.09610  0.51209  0.67940  1.0000
  H   H160      1.0  0.11646  0.54954  0.69325  1.0000
  H   H161      1.0  0.16974  0.51172  0.75901  1.0000
  H   H162      1.0  0.14907  0.47426  0.74592  1.0000
  H   H163      1.0  0.18747  0.59806  0.76899  1.0000
  C   C160      1.0  0.20682  0.61226  0.86295  1.0000
  H   H164      1.0  0.21586  0.60920  0.78118  1.0000
  S   S61       1.0  0.09468  0.65834  0.66429  1.0000
  H   H165      1.0  0.05630  0.41717  0.75511  1.0000
  H   H166      1.0  0.10720  0.52753  0.79144  1.0000
  H   H167      1.0  0.08502  0.54313  0.82003  1.0000
  N   N15       1.0  0.07181  0.51668  0.78111  1.0000
  C   C161      1.0  0.04919  0.52327  0.77323  1.0000
  C   C162      1.0  0.07809  0.49344  0.78110  1.0000
  S   S62       1.0  0.13784  0.35169  0.50088  1.0000
  H   H168      1.0  0.01325  0.66100  0.82179  1.0000
  C   C163      1.0  0.03858  0.48268  0.76387  1.0000
  C   C164      1.0  0.08910  0.53478  0.79035  1.0000
  H   H169      1.0  0.04418  0.54168  0.77361  1.0000
  H   H170      1.0  0.09603  0.48809  0.78697  1.0000
  C   C165      1.0  0.02492  0.59890  0.69843  1.0000
  C   C166      1.0  0.14639  0.66526  0.58004  1.0000
  C   C167      1.0  0.01208  0.64234  0.81607  1.0000
  C   C168      1.0  0.05590  0.34843  0.73453  1.0000
  H   H171      1.0  0.08880  0.54863  0.76643  1.0000
  C   C169      1.0  0.14334  0.35088  0.64013  1.0000
  N   N16       1.0  0.19517  0.60076  0.83273  1.0000
  C   C170      1.0  0.20523  0.60464  0.90335  1.0000
  H   H172      1.0  0.19603  0.65828  0.97134  1.0000
  H   H173      1.0  0.21692  0.62782  0.85599  1.0000
  C   C171      1.0  0.18159  0.58174  0.84168  1.0000
  H   H174      1.0  0.04088  0.59197  0.71386  1.0000
  C   C172      1.0  0.19726  0.60922  0.79074  1.0000
  H   H175      1.0  0.17228  0.57264  0.81779  1.0000
  C   C173      1.0  0.23588  0.34836  0.97758  1.0000
  H   H176      1.0  0.21409  0.61408  0.92739  1.0000
  C   C174      1.0  0.01658  0.67179  0.72158  1.0000
  H   H177      1.0  0.20858  0.42075  0.91480  1.0000
  H   H178      1.0  0.14073  0.38854  0.63560  1.0000
  S   S63       1.0  0.14481  0.34984  0.69373  1.0000
  C   C175      1.0  0.03941  0.41105  0.76492  1.0000
  C   C176      1.0  0.03774  0.39539  0.79762  1.0000
  H   H179      1.0  0.04221  0.37863  0.64861  1.0000
  C   C177      1.0  0.05173  0.36674  0.66858  1.0000
  H   H180      1.0  0.06693  0.45781  0.77115  1.0000
  C   C178      1.0  0.03225  0.50640  0.76442  1.0000
  C   C179      1.0  0.17920  0.57397  0.88189  1.0000
  H   H181      1.0  0.21066  0.40138  0.98198  1.0000
  H   H182      1.0  0.01437  0.51170  0.75785  1.0000
  C   C180      1.0  0.25525  0.36257  0.97079  1.0000
  C   C181      1.0  0.19112  0.58554  0.91288  1.0000
  C   C182      1.0  0.14106  0.37215  0.61904  1.0000
  H   H183      1.0  0.13767  0.42987  0.96211  1.0000
  C   C183      1.0  0.16816  0.63307  0.97126  1.0000
  C   C184      1.0  0.11106  0.66643  0.62104  1.0000
  H   H184      1.0  0.02694  0.37084  0.71770  1.0000
  H   H185      1.0  0.01432  0.37553  0.83554  1.0000
  H   H186      1.0  0.16164  0.45731  0.92169  1.0000
  C   C185      1.0  0.04311  0.36260  0.70774  1.0000
  C   C186      1.0  0.20536  0.35231  0.87684  1.0000
  H   H187      1.0  0.30643  0.60696  0.98034  1.0000
  C   C187      1.0  0.25808  0.37345  0.93307  1.0000
  C   C188      1.0  0.16588  0.45401  0.95344  1.0000
  H   H188      1.0  0.09327  0.34748  0.60443  1.0000
  C   C189      1.0  0.01569  0.38760  0.81016  1.0000
  H   H189      1.0  0.02651  0.59601  0.66517  1.0000
  H   H190      1.0  0.26798  0.36528  0.99482  1.0000
  H   H191      1.0  0.06704  0.36344  0.59265  1.0000
  C   C190      1.0  0.04113  0.63821  0.70732  1.0000
  N   N17       1.0  0.07206  0.35625  0.65592  1.0000
  C   C191      1.0  0.13990  0.35104  0.55448  1.0000
  C   C192      1.0  0.08131  0.36162  0.61539  1.0000
  H   H192      1.0  0.05845  0.63094  0.70221  1.0000
  H   H193      1.0  0.18935  0.67058  0.89949  1.0000
  H   H194      1.0  0.20312  0.36841  0.85782  1.0000
  N   N18       1.0  0.02195  0.62403  0.70666  1.0000
  C   C193      1.0  0.18537  0.46447  0.97114  1.0000
  H   H195      1.0  0.32435  0.64597  0.99357  1.0000
  H   H196      1.0  0.28112  0.67546  0.99366  1.0000
  C   C194      1.0  0.03878  0.66225  0.71497  1.0000
  H   H197      1.0  0.05418  0.67329  0.71588  1.0000
  H   H198      1.0  0.18779  0.34816  0.88927  1.0000
  C   C195      1.0  0.13586  0.67985  0.55062  1.0000
  Fe  Fe33      1.0  0.39956  0.93260  0.24477  1.0000
  S   S64       1.0  0.39732  0.92735  0.31217  1.0000
  S   S65       1.0  0.41114  0.96757  0.21968  1.0000
  Fe  Fe34      1.0  0.39633  0.87991  0.22690  1.0000
  S   S66       1.0  0.39443  0.87062  0.29355  1.0000
  S   S67       1.0  0.40075  0.84979  0.18252  1.0000
  Fe  Fe35      1.0  0.36948  0.90117  0.29765  1.0000
  S   S68       1.0  0.33564  0.89849  0.33303  1.0000
  Fe  Fe36      1.0  0.42243  0.89753  0.30186  1.0000
  S   S69       1.0  0.45448  0.89566  0.34161  1.0000
  S   S70       1.0  0.36935  0.90883  0.23010  1.0000
  S   S71       1.0  0.42643  0.90432  0.23540  1.0000
  Fe  Fe37      1.0  0.13346  0.76624  0.44487  1.0000
  S   S72       1.0  0.15982  0.73815  0.43135  1.0000
  C   C196      1.0  0.21747  0.69672  0.33102  1.0000
  Fe  Fe38      1.0  0.09158  0.73449  0.42127  1.0000
  S   S73       1.0  0.11604  0.70414  0.40635  1.0000
  S   S74       1.0  0.05285  0.72426  0.41252  1.0000
  Fe  Fe39      1.0  0.13494  0.71407  0.46353  1.0000
  Fe  Fe40      1.0  0.13882  0.73052  0.37502  1.0000
  S   S75       1.0  0.15863  0.72720  0.31452  1.0000
  H   H199      1.0  0.45257  0.97290  0.30166  1.0000
  S   S76       1.0  0.11351  0.76056  0.38609  1.0000
  H   H200      1.0  0.13375  0.69113  0.21084  1.0000
  N   N19       1.0  0.33696  0.79396  0.06987  1.0000
  H   H201      1.0  0.49535  0.85478  0.23122  1.0000
  C   C197      1.0  0.32850  0.81259  0.09169  1.0000
  H   H202      1.0  0.03447  0.76969  0.44260  1.0000
  C   C198      1.0  0.35491  0.78046  0.08496  1.0000
  S   S77       1.0  0.27854  0.68129  0.08284  1.0000
  C   C199      1.0  0.50154  0.88813  0.33315  1.0000
  H   H203      1.0  0.22244  0.71339  0.31763  1.0000
  H   H204      1.0  0.19722  0.71275  0.37842  1.0000
  C   C200      1.0  0.49718  0.86422  0.25951  1.0000
  S   S78       1.0  0.14422  0.80223  0.46976  1.0000
  C   C201      1.0  0.16705  0.70257  0.28468  1.0000
  N   N20       1.0  0.31266  0.83516  0.46312  1.0000
  H   H205      1.0  0.30981  0.77765  0.03647  1.0000
  C   C202      1.0  0.32601  0.72310  0.02514  1.0000
  C   C203      1.0  0.18958  0.68714  0.22696  1.0000
  H   H206      1.0  0.36494  0.80960  0.17336  1.0000
  C   C204      1.0  0.02416  0.73678  0.41646  1.0000
  C   C205      1.0  0.14931  0.68894  0.11116  1.0000
  H   H207      1.0  0.31311  0.71744  0.08613  1.0000
  H   H208      1.0  0.50326  0.89724  0.36179  1.0000
  C   C206      1.0  0.33744  0.89779  0.38640  1.0000
  C   C207      1.0  0.31696  0.89470  0.40916  1.0000
  C   C208      1.0  0.31787  0.89375  0.45181  1.0000
  C   C209      1.0  0.33927  0.89590  0.47198  1.0000
  C   C210      1.0  0.35972  0.89924  0.44922  1.0000
  C   C211      1.0  0.35883  0.90016  0.40652  1.0000
  H   H209      1.0  0.30036  0.89289  0.39369  1.0000
  H   H210      1.0  0.30204  0.89105  0.46888  1.0000
  H   H211      1.0  0.37636  0.90082  0.46462  1.0000
  H   H212      1.0  0.37472  0.90250  0.38917  1.0000
  C   C212      1.0  0.39105  0.85057  0.13158  1.0000
  C   C213      1.0  0.39976  0.83359  0.10459  1.0000
  C   C214      1.0  0.39029  0.83135  0.06538  1.0000
  C   C215      1.0  0.37189  0.84597  0.05292  1.0000
  C   C216      1.0  0.36371  0.86356  0.07932  1.0000
  C   C217      1.0  0.37332  0.86593  0.11856  1.0000
  H   H213      1.0  0.41351  0.82171  0.11445  1.0000
  H   H214      1.0  0.39694  0.81794  0.04521  1.0000
  H   H215      1.0  0.34954  0.87502  0.06980  1.0000
  H   H216      1.0  0.36647  0.87904  0.13920  1.0000
  C   C218      1.0  0.47929  0.88445  0.31657  1.0000
  C   C219      1.0  0.47715  0.87242  0.27976  1.0000
  H   H217      1.0  0.33210  0.83359  0.14600  1.0000
  H   H218      1.0  0.46002  0.86907  0.26718  1.0000
  S   S79       1.0  0.35771  0.84136  0.00592  1.0000
  C   C220      1.0  0.39510  0.99272  0.23377  1.0000
  C   C221      1.0  0.36508  0.78572  0.12254  1.0000
  C   C222      1.0  0.37386  0.99105  0.25459  1.0000
  C   C223      1.0  0.18116  0.70622  0.25018  1.0000
  H   H219      1.0  0.36693  0.97397  0.26229  1.0000
  H   H220      1.0  0.47102  0.93057  0.23703  1.0000
  H   H221      1.0  0.14309  0.71752  0.15283  1.0000
  H   H222      1.0  0.18926  0.77793  0.48222  1.0000
  H   H223      1.0  0.25634  0.95332  0.43095  1.0000
  C   C224      1.0  0.35662  0.80474  0.14490  1.0000
  H   H224      1.0  0.37983  0.77552  0.13382  1.0000
  C   C225      1.0  0.33819  0.81826  0.12947  1.0000
  H   H225      1.0  0.31461  0.82358  0.07938  1.0000
  C   C226      1.0  0.31286  0.83607  0.42150  1.0000
  C   C227      1.0  0.01990  0.75903  0.43303  1.0000
  C   C228      1.0  0.31518  0.95124  0.41681  1.0000
  H   H226      1.0  0.33884  0.73580  0.03428  1.0000
  C   C229      1.0  0.32595  0.78792  0.03101  1.0000
  C   C230      1.0  0.33390  0.83878  0.40034  1.0000
  H   H227      1.0  0.20066  0.69024  0.20086  1.0000
  N   N21       1.0  0.30565  0.95348  0.48788  1.0000
  H   H228      1.0  0.27703  0.82395  0.46716  1.0000
  H   H229      1.0  0.28597  0.95007  0.37556  1.0000
  H   H230      1.0  0.29663  0.83540  0.40447  1.0000
  H   H231      1.0  0.44874  0.94653  0.33222  1.0000
  C   C231      1.0  0.31148  0.71245  0.05454  1.0000
  H   H232      1.0  0.36177  0.76579  0.06766  1.0000
  H   H233      1.0  0.16052  0.84721  0.49712  1.0000
  C   C232      1.0  0.17218  0.81155  0.48750  1.0000
  C   C233      1.0  0.48444  0.93515  0.25887  1.0000
  C   C234      1.0  0.32202  0.95225  0.45764  1.0000
  S   S80       1.0  0.10955  0.74251  0.48092  1.0000
  H   H234      1.0  0.34051  0.95143  0.46504  1.0000
  H   H235      1.0  0.28342  0.85166  0.49088  1.0000
  H   H236      1.0  0.01985  0.69393  0.48207  1.0000
  H   H237      1.0  0.34465  0.01023  0.28006  1.0000
  C   C235      1.0  0.29144  0.95143  0.40709  1.0000
  H   H238      1.0  0.44229  0.94639  0.27910  1.0000
  C   C236      1.0  0.28232  0.95432  0.47860  1.0000
  H   H239      1.0  0.33395  0.84044  0.36741  1.0000
  H   H240      1.0  0.18594  0.72394  0.24176  1.0000
  H   H241      1.0  0.37108  0.84366  0.40603  1.0000
  C   C237      1.0  0.29514  0.69518  0.04361  1.0000
  C   C238      1.0  0.29035  0.83373  0.48483  1.0000
  C   C239      1.0  0.33301  0.83734  0.48465  1.0000
  C   C240      1.0  0.35476  0.84068  0.42204  1.0000
  N   N22       1.0  0.47869  0.94652  0.29414  1.0000
  C   C241      1.0  0.19112  0.79601  0.49157  1.0000
  H   H242      1.0  0.49095  0.96048  0.35023  1.0000
  C   C242      1.0  0.14337  0.69861  0.14875  1.0000
  H   H243      1.0  0.33781  0.77730  0.01152  1.0000
  C   C243      1.0  0.27486  0.95309  0.43811  1.0000
  C   C244      1.0  0.49560  0.95190  0.32198  1.0000
  H   H244      1.0  0.32819  0.94954  0.39291  1.0000
  H   H245      1.0  0.15358  0.70024  0.08562  1.0000
  H   H246      1.0  0.32152  0.80407  0.01339  1.0000
  H   H247      1.0  0.37033  0.84245  0.48172  1.0000
  C   C245      1.0  0.35437  0.83993  0.46447  1.0000
  H   H248      1.0  0.18451  0.68958  0.43809  1.0000
  C   C246      1.0  0.50766  0.92886  0.25082  1.0000
  C   C247      1.0  0.20316  0.69623  0.36548  1.0000
  C   C248      1.0  0.45444  0.95350  0.30222  1.0000
  C   C249      1.0  0.29352  0.68871  0.00268  1.0000
  C   C250      1.0  0.36127  0.01156  0.26459  1.0000
  C   C251      1.0  0.13802  0.68381  0.18127  1.0000
  C   C252      1.0  0.17503  0.83501  0.50007  1.0000
  C   C253      1.0  0.14995  0.80484  0.57845  1.0000
  Fe  Fe41      1.0  0.37213  0.81212  0.96673  1.0000
  H   H249      1.0  0.33273  0.83792  0.51766  1.0000
  Fe  Fe42      1.0  0.37716  0.80019  0.87650  1.0000
  S   S81       1.0  0.39404  0.76509  0.89121  1.0000
  S   S82       1.0  0.37652  0.81642  0.81249  1.0000
  Fe  Fe43      1.0  0.36593  0.76164  0.93986  1.0000
  S   S83       1.0  0.34332  0.72849  0.94601  1.0000
  Fe  Fe44      1.0  0.41521  0.78429  0.93853  1.0000
  S   S84       1.0  0.45439  0.78637  0.95444  1.0000
  S   S85       1.0  0.34798  0.79546  0.92141  1.0000
  S   S86       1.0  0.39994  0.81940  0.92085  1.0000
  Fe  Fe45      1.0  0.26015  0.86801  0.57126  1.0000
  S   S87       1.0  0.29637  0.85802  0.59325  1.0000
  C   C254      1.0  0.10060  0.68109  0.59167  1.0000
  Fe  Fe46      1.0  0.26823  0.92051  0.59464  1.0000
  S   S88       1.0  0.30430  0.91324  0.61890  1.0000
  S   S89       1.0  0.25219  0.95756  0.58749  1.0000
  Fe  Fe47      1.0  0.30814  0.89114  0.56262  1.0000
  Fe  Fe48      1.0  0.28933  0.88056  0.64781  1.0000
  S   S90       1.0  0.29437  0.86847  0.71421  1.0000
  S   S91       1.0  0.27293  0.89975  0.53676  1.0000
  S   S92       1.0  0.25234  0.88928  0.62757  1.0000
  C   C255      1.0  0.26370  0.98659  0.59229  1.0000
  C   C256      1.0  0.28664  0.99083  0.60509  1.0000
  H   H250      1.0  0.01452  0.69031  0.72840  1.0000
  H   H251      1.0  0.29788  0.97622  0.61333  1.0000
  H   H252      1.0  0.13736  0.81875  0.57219  1.0000
  C   C257      1.0  0.35269  0.82818  0.78354  1.0000
  C   C258      1.0  0.32991  0.82948  0.79894  1.0000
  C   C259      1.0  0.31209  0.84093  0.77642  1.0000
  C   C260      1.0  0.31664  0.85108  0.73809  1.0000
  C   C261      1.0  0.33924  0.84911  0.72213  1.0000
  C   C262      1.0  0.35713  0.83782  0.74479  1.0000
  H   H253      1.0  0.32609  0.82202  0.82846  1.0000
  H   H254      1.0  0.29468  0.84228  0.78908  1.0000
  H   H255      1.0  0.34312  0.85688  0.69285  1.0000
  H   H256      1.0  0.37463  0.83688  0.73244  1.0000
  C   C263      1.0  0.48611  0.76337  0.90282  1.0000
  C   C264      1.0  0.48276  0.77797  0.93652  1.0000
  H   H257      1.0  0.10457  0.69884  0.53399  1.0000
  H   H258      1.0  0.47115  0.75576  0.88785  1.0000
  C   C265      1.0  0.50260  0.78731  0.95587  1.0000
  S   S93       1.0  0.34121  0.89368  0.52534  1.0000
  H   H259      1.0  0.50030  0.79850  0.98210  1.0000
  C   C266      1.0  0.30821  0.69925  0.97332  1.0000
  C   C267      1.0  0.18835  0.79229  0.60021  1.0000
  C   C268      1.0  0.47468  0.82152  0.87336  1.0000
  H   H260      1.0  0.19813  0.86081  0.52670  1.0000
  H   H261      1.0  0.16070  0.73831  0.52742  1.0000
  H   H262      1.0  0.20567  0.79645  0.61151  1.0000
  C   C269      1.0  0.21521  0.82716  0.52143  1.0000
  H   H263      1.0  0.47855  0.78452  0.79426  1.0000
  H   H264      1.0  0.29144  0.89692  0.82309  1.0000
  C   C270      1.0  0.44300  0.80060  0.83946  1.0000
  C   C271      1.0  0.18277  0.76928  0.58911  1.0000
  N   N23       1.0  0.34202  0.87427  0.86062  1.0000
  C   C272      1.0  0.35664  0.87948  0.82901  1.0000
  C   C273      1.0  0.31889  0.88059  0.85898  1.0000
  C   C274      1.0  0.34828  0.89160  0.79479  1.0000
  C   C275      1.0  0.30993  0.89268  0.82516  1.0000
  C   C276      1.0  0.32477  0.89821  0.79293  1.0000
  C   C277      1.0  0.35107  0.86045  0.89497  1.0000
  H   H265      1.0  0.37465  0.87332  0.82937  1.0000
  H   H266      1.0  0.30709  0.87576  0.88336  1.0000
  H   H267      1.0  0.35965  0.89480  0.76902  1.0000
  H   H268      1.0  0.13723  0.73616  0.56383  1.0000
  H   H269      1.0  0.31777  0.90654  0.76568  1.0000
  H   H270      1.0  0.33851  0.85962  0.92074  1.0000
  H   H271      1.0  0.35480  0.84226  0.88474  1.0000
  H   H272      1.0  0.36747  0.86819  0.90689  1.0000
  N   N24       1.0  0.16122  0.76421  0.57342  1.0000
  C   C278      1.0  0.15607  0.74028  0.56003  1.0000
  H   H273      1.0  0.12846  0.77797  0.55277  1.0000
  H   H274      1.0  0.16596  0.72689  0.57792  1.0000
  H   H275      1.0  0.46198  0.82838  0.89488  1.0000
  S   S94       1.0  0.38837  0.77823  0.98817  1.0000
  C   C279      1.0  0.17177  0.81013  0.59490  1.0000
  H   H276      1.0  0.29928  0.94912  0.55140  1.0000
  C   C280      1.0  0.49837  0.82656  0.87900  1.0000
  N   N25       1.0  0.46773  0.80694  0.84273  1.0000
  H   H277      1.0  0.43154  0.81627  0.84358  1.0000
  H   H278      1.0  0.43869  0.79306  0.80927  1.0000
  H   H279      1.0  0.17618  0.82817  0.60198  1.0000
  H   H280      1.0  0.50388  0.83728  0.90440  1.0000
  H   H281      1.0  0.19593  0.75559  0.59242  1.0000
  C   C281      1.0  0.32449  0.71660  0.98421  1.0000
  S   S95       1.0  0.24231  0.83538  0.54413  1.0000
  C   C282      1.0  0.14502  0.78169  0.56745  1.0000
  C   C283      1.0  0.19637  0.84279  0.51692  1.0000
  H   H282      1.0  0.31770  0.97344  0.53781  1.0000
  H   H283      1.0  0.30690  0.69397  0.94182  1.0000
  H   H284      1.0  0.08282  0.68718  0.59595  1.0000
  C   C284      1.0  0.50893  0.75873  0.88820  1.0000
  H   H285      1.0  0.43876  0.78745  0.86334  1.0000
  H   H286      1.0  0.23149  0.00306  0.57283  1.0000
  H   H287      1.0  0.22685  0.79150  0.51166  1.0000
  H   H288      1.0  0.29234  0.82444  0.51447  1.0000
  C   C285      1.0  0.11294  0.68778  0.55659  1.0000
  H   H289      1.0  0.32869  0.94344  0.53601  1.0000
  C   C286      1.0  0.21245  0.80378  0.50836  1.0000
  C   C287      1.0  0.24929  0.00603  0.58261  1.0000
  C   C288      1.0  0.48391  0.79687  0.81743  1.0000
  C   C289      1.0  0.31326  0.95500  0.53033  1.0000
  H   H290      1.0  0.26933  0.95574  0.50259  1.0000
  C   C290      1.0  0.50776  0.80151  0.82227  1.0000
  S   S96       1.0  0.15179  0.68808  0.50693  1.0000
  Fe  Fe49      1.0  0.58600  0.11781  0.29233  1.0000
  S   S97       1.0  0.58987  0.11664  0.22441  1.0000
  S   S98       1.0  0.55142  0.12219  0.32418  1.0000
  Fe  Fe50      1.0  0.63826  0.11185  0.30784  1.0000
  S   S99       1.0  0.64611  0.10983  0.24105  1.0000
  S   S100      1.0  0.66986  0.10670  0.34812  1.0000
  Fe  Fe51      1.0  0.62082  0.13983  0.23449  1.0000
  S   S101      1.0  0.62795  0.17363  0.20067  1.0000
  Fe  Fe52      1.0  0.61458  0.08671  0.23776  1.0000
  S   S102      1.0  0.61607  0.05324  0.20150  1.0000
  S   S103      1.0  0.61509  0.14352  0.30181  1.0000
  S   S104      1.0  0.60873  0.08634  0.30514  1.0000
  H   H291      1.0  0.70587  0.31084  0.15478  1.0000
  Fe  Fe53      1.0  0.86561  0.26323  0.44071  1.0000
  S   S105      1.0  0.85767  0.30204  0.44869  1.0000
  C   C291      1.0  0.68088  0.32580  0.05863  1.0000
  Fe  Fe54      1.0  0.91610  0.27321  0.41160  1.0000
  S   S106      1.0  0.91054  0.31187  0.41628  1.0000
  S   S107      1.0  0.95149  0.25826  0.39103  1.0000
  Fe  Fe55      1.0  0.89377  0.30376  0.47634  1.0000
  Fe  Fe56      1.0  0.87513  0.30683  0.38762  1.0000
  H   H292      1.0  0.67106  0.33072  0.08542  1.0000
  H   H293      1.0  0.65477  0.30112  0.03778  1.0000
  S   S108      1.0  0.88185  0.26823  0.37825  1.0000
  C   C292      1.0  0.67270  0.13464  0.47852  1.0000
  H   H294      1.0  0.98953  0.22697  0.48633  1.0000
  C   C293      1.0  0.82690  0.34020  0.21648  1.0000
  C   C294      1.0  0.80430  0.20425  0.47593  1.0000
  S   S109      1.0  0.83731  0.23469  0.44506  1.0000
  C   C295      1.0  0.70269  0.33637  0.05123  1.0000
  S   S110      1.0  0.86386  0.33567  0.34204  1.0000
  C   C296      1.0  0.97992  0.26798  0.40550  1.0000
  C   C297      1.0  0.76139  0.30829  0.12197  1.0000
  C   C298      1.0  0.98334  0.28846  0.42813  1.0000
  N   N26       1.0  0.74254  0.31437  0.14536  1.0000
  H   H295      1.0  0.96849  0.29937  0.43609  1.0000
  H   H296      1.0  0.73922  0.32314  0.20785  1.0000
  C   C299      1.0  0.52495  0.05716  0.30577  1.0000
  C   C300      1.0  0.84844  0.33668  0.29465  1.0000
  S   S111      1.0  0.90054  0.26480  0.47269  1.0000
  H   H297      1.0  0.88397  0.29975  0.23204  1.0000
  C   C301      1.0  0.68314  0.15801  0.27207  1.0000
  C   C302      1.0  0.83144  0.31818  0.23476  1.0000
  H   H298      1.0  0.89606  0.33685  0.26423  1.0000
  C   C303      1.0  0.67161  0.30890  0.03170  1.0000
  C   C304      1.0  0.58322  0.16340  0.08499  1.0000
  H   H299      1.0  0.84520  0.29934  0.28720  1.0000
  C   C305      1.0  0.58911  0.14513  0.01832  1.0000
  C   C306      1.0  0.66993  0.11672  0.39878  1.0000
  C   C307      1.0  0.65102  0.12921  0.41518  1.0000
  C   C308      1.0  0.65248  0.13825  0.45492  1.0000
  H   H300      1.0  0.63902  0.01987  0.38910  1.0000
  C   C309      1.0  0.69136  0.12179  0.46221  1.0000
  C   C310      1.0  0.69001  0.11298  0.42246  1.0000
  H   H301      1.0  0.63546  0.13221  0.39710  1.0000
  H   H302      1.0  0.63794  0.14813  0.46737  1.0000
  H   H303      1.0  0.76352  0.33677  0.18284  1.0000
  H   H304      1.0  0.70468  0.10330  0.40999  1.0000
  C   C311      1.0  0.63365  0.17230  0.14809  1.0000
  C   C312      1.0  0.63408  0.19320  0.12534  1.0000
  C   C313      1.0  0.63745  0.19263  0.08301  1.0000
  C   C314      1.0  0.64085  0.17116  0.06330  1.0000
  C   C315      1.0  0.64107  0.15030  0.08624  1.0000
  C   C316      1.0  0.63723  0.15083  0.12848  1.0000
  H   H305      1.0  0.63142  0.20987  0.14040  1.0000
  H   H306      1.0  0.63748  0.20880  0.06573  1.0000
  H   H307      1.0  0.64391  0.13365  0.07121  1.0000
  H   H308      1.0  0.63707  0.13463  0.14582  1.0000
  C   C317      1.0  0.60420  0.02847  0.22571  1.0000
  C   C318      1.0  0.59063  0.03085  0.26081  1.0000
  H   H309      1.0  0.77850  0.31548  0.12832  1.0000
  H   H310      1.0  0.58599  0.04808  0.27176  1.0000
  H   H311      1.0  0.53929  0.03953  0.25342  1.0000
  C   C319      1.0  0.52822  0.10672  0.25613  1.0000
  C   C320      1.0  0.52643  0.11736  0.29427  1.0000
  H   H312      1.0  0.58774  0.14680  0.09941  1.0000
  H   H313      1.0  0.54509  0.10170  0.24436  1.0000
  H   H314      1.0  0.66401  0.06567  0.29506  1.0000
  C   C321      1.0  0.89747  0.29954  0.25527  1.0000
  C   C322      1.0  0.93096  0.29970  0.31627  1.0000
  H   H315      1.0  0.65241  0.19953  0.40712  1.0000
  C   C323      1.0  0.90740  0.27834  0.26826  1.0000
  N   N27       1.0  0.67463  0.16960  0.30900  1.0000
  N   N28       1.0  0.58360  0.16561  0.04354  1.0000
  C   C324      1.0  0.72096  0.30533  0.13718  1.0000
  H   H316      1.0  0.94385  0.29946  0.34053  1.0000
  C   C325      1.0  0.64384  0.02265  0.35756  1.0000
  C   C326      1.0  0.65662  0.18552  0.30684  1.0000
  H   H317      1.0  0.90176  0.26188  0.25510  1.0000
  H   H318      1.0  0.79036  0.11159  0.45674  1.0000
  C   C327      1.0  0.65888  0.19147  0.37941  1.0000
  H   H319      1.0  0.94875  0.24219  0.48807  1.0000
  C   C328      1.0  0.00596  0.29434  0.44197  1.0000
  H   H320      1.0  0.60247  0.13375  0.03333  1.0000
  H   H321      1.0  0.68583  0.17145  0.41007  1.0000
  H   H322      1.0  0.00820  0.30966  0.46088  1.0000
  H   H323      1.0  0.56884  0.21957  0.10996  1.0000
  C   C329      1.0  0.57241  0.20624  0.04900  1.0000
  C   C330      1.0  0.57262  0.20433  0.09132  1.0000
  C   C331      1.0  0.79706  0.11284  0.48752  1.0000
  C   C332      1.0  0.57794  0.18275  0.10953  1.0000
  C   C333      1.0  0.99958  0.25421  0.39524  1.0000
  C   C334      1.0  0.71781  0.28982  0.10474  1.0000
  C   C335      1.0  0.82366  0.21848  0.48515  1.0000
  C   C336      1.0  0.74507  0.33113  0.17879  1.0000
  C   C337      1.0  0.92433  0.27838  0.29882  1.0000
  H   H324      1.0  0.79783  0.20380  0.44502  1.0000
  H   H325      1.0  0.94341  0.34081  0.34175  1.0000
  H   H326      1.0  0.99723  0.23838  0.37763  1.0000
  C   C338      1.0  0.68536  0.16489  0.34538  1.0000
  C   C339      1.0  0.67769  0.17577  0.38108  1.0000
  H   H327      1.0  0.65351  0.05891  0.36738  1.0000
  H   H328      1.0  0.57864  0.18113  0.14245  1.0000
  H   H329      1.0  0.63356  0.20858  0.34037  1.0000
  H   H330      1.0  0.81605  0.14488  0.47636  1.0000
  C   C340      1.0  0.71507  0.32985  0.01631  1.0000
  C   C341      1.0  0.75878  0.29319  0.08883  1.0000
  H   H331      1.0  0.69949  0.15210  0.34717  1.0000
  C   C342      1.0  0.64830  0.19650  0.34206  1.0000
  S   S112      1.0  0.64375  0.16962  0.00998  1.0000
  C   C343      1.0  0.84191  0.31640  0.27368  1.0000
  H   H332      1.0  0.64818  0.18939  0.27794  1.0000
  H   H333      1.0  0.65978  0.03336  0.24506  1.0000
  H   H334      1.0  0.67005  0.15903  0.24703  1.0000
  C   C344      1.0  0.57796  0.18658  0.02544  1.0000
  H   H335      1.0  0.69949  0.16644  0.26154  1.0000
  H   H336      1.0  0.68657  0.13905  0.27811  1.0000
  S   S113      1.0  0.81459  0.34118  0.16641  1.0000
  H   H337      1.0  0.82679  0.30234  0.21870  1.0000
  H   H338      1.0  0.70692  0.11875  0.48008  1.0000
  H   H339      1.0  0.56818  0.22288  0.03432  1.0000
  C   C345      1.0  0.65201  0.04472  0.34553  1.0000
  C   C346      1.0  0.65798  0.04854  0.30492  1.0000
  H   H340      1.0  0.54188  0.06205  0.31799  1.0000
  H   H341      1.0  0.77366  0.28902  0.06969  1.0000
  C   C347      1.0  0.52348  0.04473  0.26936  1.0000
  H   H342      1.0  0.73432  0.27277  0.05389  1.0000
  H   H343      1.0  0.77823  0.18003  0.49860  1.0000
  H   H344      1.0  0.57305  0.13486  0.01254  1.0000
  H   H345      1.0  0.93198  0.26198  0.30961  1.0000
  N   N29       1.0  0.92105  0.32041  0.30347  1.0000
  H   H346      1.0  0.73183  0.33778  0.01007  1.0000
  C   C348      1.0  0.90450  0.32052  0.27342  1.0000
  C   C349      1.0  0.73680  0.28400  0.08012  1.0000
  H   H347      1.0  0.70054  0.28325  0.09758  1.0000
  C   C350      1.0  0.65583  0.03034  0.27696  1.0000
  C   C351      1.0  0.92726  0.34258  0.32314  1.0000
  C   C352      1.0  0.81152  0.13142  0.49842  1.0000
  H   H348      1.0  0.65759  0.10921  0.74990  1.0000
  Fe  Fe57      1.0  0.70637  0.13771  0.56577  1.0000
  S   S114      1.0  0.74136  0.12556  0.54278  1.0000
  Fe  Fe58      1.0  0.72080  0.13446  0.65471  1.0000
  S   S115      1.0  0.75693  0.12129  0.63797  1.0000
  S   S116      1.0  0.70976  0.13723  0.72157  1.0000
  Fe  Fe59      1.0  0.75642  0.14981  0.58973  1.0000
  S   S117      1.0  0.78899  0.17320  0.58569  1.0000
  Fe  Fe60      1.0  0.73910  0.09789  0.59239  1.0000
  S   S118      1.0  0.74905  0.06042  0.57185  1.0000
  S   S119      1.0  0.72134  0.16407  0.60953  1.0000
  S   S120      1.0  0.70314  0.10898  0.61240  1.0000
  Fe  Fe61      1.0  0.64502  0.25346  0.95224  1.0000
  S   S121      1.0  0.66323  0.21993  0.93331  1.0000
  C   C353      1.0  0.97061  0.31061  0.55113  1.0000
  Fe  Fe62      1.0  0.59557  0.23151  0.93956  1.0000
  S   S122      1.0  0.61182  0.19732  0.91909  1.0000
  S   S123      1.0  0.55585  0.22474  0.94529  1.0000
  Fe  Fe63      1.0  0.63631  0.20191  0.97168  1.0000
  Fe  Fe64      1.0  0.63730  0.21819  0.88224  1.0000
  S   S124      1.0  0.64634  0.21295  0.81465  1.0000
  H   H349      1.0  0.72235  0.22857  0.86499  1.0000
  S   S125      1.0  0.61979  0.25254  0.89884  1.0000
  C   C354      1.0  0.52660  0.23616  0.94344  1.0000
  H   H350      1.0  0.74420  0.04234  0.65559  1.0000
  S   S126      1.0  0.67453  0.14695  0.52765  1.0000
  C   C355      1.0  0.74253  0.02778  0.63476  1.0000
  H   H351      1.0  0.53576  0.27244  0.93538  1.0000
  C   C356      1.0  0.69352  0.15948  0.74732  1.0000
  C   C357      1.0  0.68928  0.15693  0.78929  1.0000
  C   C358      1.0  0.67516  0.17321  0.81054  1.0000
  C   C359      1.0  0.66502  0.19228  0.78998  1.0000
  C   C360      1.0  0.66954  0.19504  0.74813  1.0000
  C   C361      1.0  0.68376  0.17883  0.72692  1.0000
  H   H352      1.0  0.69672  0.14202  0.80539  1.0000
  H   H353      1.0  0.67187  0.17077  0.84269  1.0000
  H   H354      1.0  0.66176  0.20969  0.73184  1.0000
  H   H355      1.0  0.68686  0.18106  0.69468  1.0000
  C   C362      1.0  0.84632  0.34629  0.80188  1.0000
  C   C363      1.0  0.74315  0.03197  0.59278  1.0000
  H   H356      1.0  0.74180  0.01551  0.53388  1.0000
  C   C364      1.0  0.79879  0.09860  0.55670  1.0000
  H   H357      1.0  0.87119  0.30940  0.57081  1.0000
  C   C365      1.0  0.80132  0.19105  0.54641  1.0000
  C   C366      1.0  0.81952  0.13305  0.53851  1.0000
  H   H358      1.0  0.83880  0.12641  0.61087  1.0000
  C   C367      1.0  0.87312  0.32746  0.62858  1.0000
  H   H359      1.0  0.63239  0.13909  0.78383  1.0000
  H   H360      1.0  0.69570  0.21202  0.85897  1.0000
  H   H361      1.0  0.82016  0.10276  0.62642  1.0000
  H   H362      1.0  0.96650  0.32264  0.52531  1.0000
  H   H363      1.0  0.62482  0.17529  0.66990  1.0000
  H   H364      1.0  0.83011  0.14799  0.54707  1.0000
  H   H365      1.0  0.82738  0.20548  0.58642  1.0000
  H   H366      1.0  0.65754  0.30013  0.80338  1.0000
  C   C368      1.0  0.79075  0.09622  0.51674  1.0000
  C   C369      1.0  0.82078  0.20512  0.55559  1.0000
  H   H367      1.0  0.61608  0.17234  0.74353  1.0000
  C   C370      1.0  0.95813  0.27403  0.51962  1.0000
  H   H368      1.0  0.66895  0.29298  0.87533  1.0000
  C   C371      1.0  0.52157  0.26010  0.93836  1.0000
  C   C372      1.0  0.83179  0.21884  0.52532  1.0000
  C   C373      1.0  0.88097  0.32159  0.58928  1.0000
  H   H369      1.0  0.90463  0.33642  0.89332  1.0000
  C   C374      1.0  0.86914  0.33956  0.81224  1.0000
  N   N30       1.0  0.64504  0.14365  0.66858  1.0000
  C   C375      1.0  0.63139  0.16033  0.68704  1.0000
  C   C376      1.0  0.65422  0.12537  0.69070  1.0000
  C   C377      1.0  0.62627  0.15871  0.72860  1.0000
  C   C378      1.0  0.64946  0.12321  0.73226  1.0000
  C   C379      1.0  0.63542  0.14003  0.75128  1.0000
  C   C380      1.0  0.65132  0.14627  0.62558  1.0000
  C   C381      1.0  0.82066  0.11964  0.60938  1.0000
  H   H370      1.0  0.84667  0.22957  0.53300  1.0000
  H   H371      1.0  0.80891  0.13245  0.62480  1.0000
  S   S127      1.0  0.91131  0.32639  0.52410  1.0000
  H   H372      1.0  0.66598  0.11277  0.67664  1.0000
  H   H373      1.0  0.63796  0.15650  0.60832  1.0000
  H   H374      1.0  0.66835  0.15538  0.62284  1.0000
  H   H375      1.0  0.65286  0.12890  0.61039  1.0000
  N   N31       1.0  0.69508  0.24578  0.83202  1.0000
  C   C382      1.0  0.68811  0.26116  0.86155  1.0000
  C   C383      1.0  0.68913  0.24971  0.79223  1.0000
  C   C384      1.0  0.67469  0.28101  0.85164  1.0000
  C   C385      1.0  0.67562  0.26933  0.78125  1.0000
  C   C386      1.0  0.66832  0.28502  0.81126  1.0000
  C   C387      1.0  0.70787  0.22437  0.84374  1.0000
  H   H376      1.0  0.69265  0.25796  0.89314  1.0000
  H   H377      1.0  0.69416  0.23725  0.76892  1.0000
  H   H378      1.0  0.88166  0.33627  0.78808  1.0000
  H   H379      1.0  0.67043  0.27203  0.74985  1.0000
  H   H380      1.0  0.94040  0.28097  0.51940  1.0000
  H   H381      1.0  0.71546  0.21521  0.81696  1.0000
  N   N32       1.0  0.81317  0.11674  0.56703  1.0000
  S   S128      1.0  0.61952  0.23509  0.99428  1.0000
  H   H382      1.0  0.86492  0.33998  0.91417  1.0000
  C   C388      1.0  0.89966  0.33041  0.86234  1.0000
  H   H383      1.0  0.79306  0.08606  0.57950  1.0000
  C   C389      1.0  0.90130  0.33179  0.57390  1.0000
  S   S129      1.0  0.67272  0.28240  0.95989  1.0000
  C   C390      1.0  0.68384  0.30266  0.99645  1.0000
  N   N33       1.0  0.97588  0.28706  0.53556  1.0000
  H   H384      1.0  0.85729  0.31966  0.64029  1.0000
  H   H385      1.0  0.98541  0.31795  0.56872  1.0000
  H   H386      1.0  0.77900  0.08201  0.50898  1.0000
  N   N34       1.0  0.87568  0.33759  0.85216  1.0000
  C   C391      1.0  0.79311  0.19074  0.50630  1.0000
  C   C392      1.0  0.88550  0.34357  0.65248  1.0000
  C   C393      1.0  0.99841  0.27877  0.53480  1.0000
  H   H387      1.0  0.91233  0.33874  0.84123  1.0000
  H   H388      1.0  0.95507  0.31014  0.57148  1.0000
  H   H389      1.0  0.90147  0.31102  0.86066  1.0000
  C   C394      1.0  0.85975  0.34143  0.88250  1.0000
  C   C395      1.0  0.00359  0.25681  0.51791  1.0000
  H   H390      1.0  0.71524  0.30877  0.96184  1.0000
  H   H391      1.0  0.59688  0.15060  0.98877  1.0000
  H   H392      1.0  0.57796  0.18827  0.99258  1.0000
  C   C396      1.0  0.96270  0.25207  0.50222  1.0000
  C   C397      1.0  0.70561  0.31330  0.98903  1.0000
  C   C398      1.0  0.98561  0.24350  0.50128  1.0000
  H   H393      1.0  0.51133  0.20193  0.95128  1.0000
  Fe  Fe65      1.0  0.80856  0.63876  0.05657  1.0000
  S   S130      1.0  0.77365  0.62650  0.03405  1.0000
  Fe  Fe66      1.0  0.79456  0.63682  0.14588  1.0000
  S   S131      1.0  0.75846  0.62373  0.12983  1.0000
  S   S132      1.0  0.80687  0.63991  0.21225  1.0000
  Fe  Fe67      1.0  0.77624  0.59960  0.08496  1.0000
  S   S133      1.0  0.76488  0.56235  0.06628  1.0000
  Fe  Fe68      1.0  0.75844  0.65142  0.08015  1.0000
  C   C399      1.0  0.71399  0.60127  0.06079  1.0000
  S   S134      1.0  0.81228  0.61063  0.10430  1.0000
  S   S135      1.0  0.79340  0.66573  0.09934  1.0000
  Fe  Fe69      1.0  0.74937  0.37578  0.08682  1.0000
  H   H394      1.0  0.86693  0.62394  0.24426  1.0000
  Fe  Fe70      1.0  0.77764  0.42039  0.11132  1.0000
  S   S136      1.0  0.81203  0.40279  0.09576  1.0000
  S   S137      1.0  0.78042  0.45789  0.13703  1.0000
  Fe  Fe71      1.0  0.79299  0.39064  0.03988  1.0000
  Fe  Fe72      1.0  0.79774  0.37038  0.12703  1.0000
  C   C400      1.0  0.82678  0.47279  0.07612  1.0000
  S   S138      1.0  0.75913  0.40927  0.05437  1.0000
  S   S139      1.0  0.76460  0.38863  0.14626  1.0000
  N   N35       1.0  0.86939  0.65926  0.16141  1.0000
  C   C401      1.0  0.69061  0.63471  0.04479  1.0000
  H   H395      1.0  0.73052  0.58364  0.01033  1.0000
  C   C402      1.0  0.76855  0.53354  0.08749  1.0000
  C   C403      1.0  0.77873  0.52956  0.12566  1.0000
  C   C404      1.0  0.78167  0.50638  0.14056  1.0000
  C   C405      1.0  0.77481  0.48678  0.11745  1.0000
  C   C406      1.0  0.76447  0.49077  0.07940  1.0000
  C   C407      1.0  0.76126  0.51397  0.06472  1.0000
  H   H396      1.0  0.78428  0.54432  0.14381  1.0000
  H   H397      1.0  0.78953  0.50358  0.17015  1.0000
  H   H398      1.0  0.75884  0.47600  0.06138  1.0000
  H   H399      1.0  0.75318  0.51675  0.03531  1.0000
  H   H400      1.0  0.82160  0.64278  0.29569  1.0000
  C   C408      1.0  0.84386  0.35869  0.27641  1.0000
  C   C409      1.0  0.86056  0.66083  0.11960  1.0000
  C   C410      1.0  0.82867  0.51511  0.07747  1.0000
  H   H401      1.0  0.85717  0.64318  0.10655  1.0000
  H   H402      1.0  0.82975  0.37756  0.22434  1.0000
  H   H403      1.0  0.68019  0.64969  0.05451  1.0000
  C   C411      1.0  0.69546  0.62356  0.11622  1.0000
  C   C412      1.0  0.82017  0.66312  0.24026  1.0000
  C   C413      1.0  0.83295  0.49346  0.09620  1.0000
  H   H404      1.0  0.83995  0.49267  0.12684  1.0000
  C   C414      1.0  0.80939  0.45184  0.01888  1.0000
  S   S140      1.0  0.72603  0.67547  0.07488  1.0000
  C   C415      1.0  0.83835  0.67634  0.30400  1.0000
  H   H405      1.0  0.85387  0.62588  0.17276  1.0000
  C   C416      1.0  0.88122  0.67781  0.17767  1.0000
  H   H406      1.0  0.84879  0.37453  0.29221  1.0000
  H   H407      1.0  0.84849  0.38116  0.00392  1.0000
  N   N36       1.0  0.81689  0.47366  0.03824  1.0000
  H   H408      1.0  0.70096  0.60832  0.13527  1.0000
  S   S141      1.0  0.78196  0.35660  0.06859  1.0000
  C   C417      1.0  0.69544  0.63200  0.00338  1.0000
  H   H409      1.0  0.87336  0.66949  0.09918  1.0000
  H   H410      1.0  0.84315  0.67284  0.33530  1.0000
  H   H411      1.0  0.79217  0.44655  0.03133  1.0000
  C   C418      1.0  0.82613  0.65928  0.28138  1.0000
  C   C419      1.0  0.88395  0.65758  0.24214  1.0000
  C   C420      1.0  0.83302  0.36048  0.23782  1.0000
  H   H412      1.0  0.88884  0.65733  0.27406  1.0000
  H   H413      1.0  0.72174  0.58937  0.08298  1.0000
  C   C421      1.0  0.98565  0.67811  0.48085  1.0000
  C   C422      1.0  0.86440  0.64002  0.18483  1.0000
  H   H414      1.0  0.70539  0.63921  0.12642  1.0000
  H   H415      1.0  0.67655  0.62680  0.12161  1.0000
  C   C423      1.0  0.81831  0.51586  0.03907  1.0000
  H   H416      1.0  0.99180  0.66173  0.46779  1.0000
  S   S142      1.0  0.71400  0.35683  0.08725  1.0000
  H   H417      1.0  0.82904  0.45609  0.09175  1.0000
  H   H418      1.0  0.83245  0.53131  0.09338  1.0000
  S   S143      1.0  0.89914  0.66963  0.49538  1.0000
  C   C424      1.0  0.87175  0.63881  0.22540  1.0000
  N   N37       1.0  0.69988  0.61948  0.07288  1.0000
  S   S144      1.0  0.83988  0.64870  0.01825  1.0000
  H   H419      1.0  0.82220  0.43740  0.02452  1.0000
  C   C425      1.0  0.81240  0.49483  0.01982  1.0000
  H   H420      1.0  0.84395  0.67105  0.11900  1.0000
  H   H421      1.0  0.81393  0.53267  0.02517  1.0000
  H   H422      1.0  0.94944  0.66764  0.48274  1.0000
  C   C426      1.0  0.71905  0.59793  0.01959  1.0000
  C   C427      1.0  0.88875  0.67723  0.21820  1.0000
  H   H423      1.0  0.93021  0.35650  0.30000  1.0000
  H   H424      1.0  0.91276  0.34829  0.34344  1.0000
  H   H425      1.0  0.73436  0.34711  0.17232  1.0000
  Fe  Fe73      1.0  0.93680  0.40962  0.75118  1.0000
  S   S145      1.0  0.90809  0.41280  0.70475  1.0000
  S   S146      1.0  0.97256  0.41871  0.72761  1.0000
  Fe  Fe74      1.0  0.90320  0.39813  0.81982  1.0000
  S   S147      1.0  0.87188  0.40052  0.77907  1.0000
  S   S148      1.0  0.90105  0.38866  0.88666  1.0000
  Fe  Fe75      1.0  0.89358  0.38050  0.73398  1.0000
  C   C428      1.0  0.85179  0.41360  0.66124  1.0000
  Fe  Fe76      1.0  0.88908  0.43246  0.75338  1.0000
  S   S149      1.0  0.86764  0.46464  0.73955  1.0000
  S   S150      1.0  0.92391  0.37536  0.77666  1.0000
  S   S151      1.0  0.91875  0.43201  0.79785  1.0000
  Fe  Fe77      1.0  0.91714  0.58796  0.74293  1.0000
  S   S152      1.0  0.92152  0.59538  0.80937  1.0000
  S   S153      1.0  0.93234  0.55362  0.72131  1.0000
  Fe  Fe78      1.0  0.89448  0.63552  0.72537  1.0000
  S   S154      1.0  0.89694  0.64652  0.79089  1.0000
  N   N38       1.0  0.83486  0.65610  0.79075  1.0000
  Fe  Fe79      1.0  0.93305  0.63087  0.78818  1.0000
  S   S155      1.0  0.96474  0.64959  0.81162  1.0000
  Fe  Fe80      1.0  0.88512  0.61004  0.80580  1.0000
  S   S156      1.0  0.85611  0.59862  0.84811  1.0000
  S   S157      1.0  0.93154  0.62255  0.72174  1.0000
  S   S158      1.0  0.87976  0.60005  0.74040  1.0000
  C   C429      1.0  0.89144  0.40771  0.57096  1.0000
  C   C430      1.0  0.85616  0.50944  0.83485  1.0000
  C   C431      1.0  0.99539  0.39509  0.78954  1.0000
  H   H426      1.0  0.83120  0.62070  0.77119  1.0000
  C   C432      1.0  0.89792  0.64752  0.61308  1.0000
  C   C433      1.0  0.90256  0.64936  0.57113  1.0000
  H   H427      1.0  0.90490  0.63288  0.63042  1.0000
  H   H428      1.0  0.91315  0.63608  0.55638  1.0000
  C   C434      1.0  0.85257  0.61199  0.89610  1.0000
  C   C435      1.0  0.83308  0.60613  0.91988  1.0000
  C   C436      1.0  0.82913  0.61713  0.95750  1.0000
  C   C437      1.0  0.84466  0.63412  0.97162  1.0000
  C   C438      1.0  0.86422  0.63991  0.94790  1.0000
  C   C439      1.0  0.86819  0.62889  0.91024  1.0000
  H   H429      1.0  0.82090  0.59311  0.90908  1.0000
  H   H430      1.0  0.85933  0.43064  0.67106  1.0000
  H   H431      1.0  0.87634  0.65300  0.95868  1.0000
  H   H432      1.0  0.88326  0.63356  0.89213  1.0000
  C   C440      1.0  0.99011  0.63199  0.81099  1.0000
  H   H433      1.0  0.93010  0.54406  0.80872  1.0000
  C   C441      1.0  0.98870  0.60787  0.80348  1.0000
  H   H434      1.0  0.80355  0.49558  0.99069  1.0000
  H   H435      1.0  0.97188  0.59978  0.79918  1.0000
  H   H436      1.0  0.84977  0.54686  0.83769  1.0000
  H   H437      1.0  0.85517  0.36182  0.55402  1.0000
  C   C442      1.0  0.83084  0.39644  0.95226  1.0000
  C   C443      1.0  0.83338  0.40449  0.91213  1.0000
  C   C444      1.0  0.85508  0.40308  0.89238  1.0000
  C   C445      1.0  0.87441  0.39339  0.91249  1.0000
  C   C446      1.0  0.87206  0.38587  0.95304  1.0000
  C   C447      1.0  0.85031  0.38741  0.97297  1.0000
  H   H438      1.0  0.81837  0.41154  0.89601  1.0000
  H   H439      1.0  0.85669  0.40912  0.86138  1.0000
  H   H440      1.0  0.00788  0.57547  0.79611  1.0000
  H   H441      1.0  0.82000  0.63578  0.83871  1.0000
  C   C448      1.0  0.88539  0.48930  0.73167  1.0000
  C   C449      1.0  0.87544  0.51187  0.73195  1.0000
  C   C450      1.0  0.88970  0.53176  0.72862  1.0000
  C   C451      1.0  0.91389  0.52910  0.72403  1.0000
  C   C452      1.0  0.92374  0.50650  0.72288  1.0000
  C   C453      1.0  0.90957  0.48664  0.72713  1.0000
  H   H442      1.0  0.85674  0.51399  0.73545  1.0000
  H   H443      1.0  0.88195  0.54910  0.72924  1.0000
  H   H444      1.0  0.94243  0.50435  0.71918  1.0000
  H   H445      1.0  0.91740  0.46928  0.72671  1.0000
  H   H446      1.0  0.71399  0.61139  0.95883  1.0000
  S   S159      1.0  0.80267  0.39687  0.97385  1.0000
  H   H447      1.0  0.85490  0.40051  0.68586  1.0000
  H   H448      1.0  0.97843  0.38887  0.79907  1.0000
  H   H449      1.0  0.90682  0.41612  0.55849  1.0000
  C   C454      1.0  0.86282  0.53296  0.83556  1.0000
  S   S160      1.0  0.87458  0.35172  0.70059  1.0000
  C   C455      1.0  0.89677  0.49814  0.82930  1.0000
  H   H450      1.0  0.83827  0.37671  0.61837  1.0000
  C   C456      1.0  0.83015  0.35092  0.83265  1.0000
  C   C457      1.0  0.86235  0.37733  0.56837  1.0000
  N   N39       1.0  0.90310  0.52127  0.82903  1.0000
  H   H451      1.0  0.83267  0.41636  0.65751  1.0000
  H   H452      1.0  0.89145  0.55692  0.83340  1.0000
  H   H453      1.0  0.73290  0.67639  0.98582  1.0000
  H   H454      1.0  0.90985  0.48438  0.82604  1.0000
  H   H455      1.0  0.83782  0.50481  0.83585  1.0000
  H   H456      1.0  0.81255  0.35669  0.82511  1.0000
  C   C458      1.0  0.84574  0.67656  0.78018  1.0000
  C   C459      1.0  0.88184  0.38826  0.55158  1.0000
  H   H457      1.0  0.84141  0.34825  0.77013  1.0000
  C   C460      1.0  0.88382  0.66435  0.63220  1.0000
  H   H458      1.0  0.84033  0.64059  0.73233  1.0000
  S   S161      1.0  0.87661  0.66218  0.68437  1.0000
  C   C461      1.0  0.99719  0.41026  0.75614  1.0000
  N   N40       1.0  0.86217  0.40514  0.62320  1.0000
  C   C462      1.0  0.85286  0.38587  0.60467  1.0000
  C   C463      1.0  0.88128  0.41603  0.60691  1.0000
  H   H459      1.0  0.92963  0.35548  0.58643  1.0000
  C   C464      1.0  0.87323  0.49188  0.83214  1.0000
  H   H460      1.0  0.83034  0.66414  0.89242  1.0000
  C   C465      1.0  0.82883  0.65189  0.83036  1.0000
  H   H461      1.0  0.81404  0.61250  0.97553  1.0000
  H   H462      1.0  0.93803  0.51388  0.80965  1.0000
  H   H463      1.0  0.88699  0.37841  0.96883  1.0000
  H   H464      1.0  0.86825  0.47354  0.83067  1.0000
  C   C466      1.0  0.92787  0.52752  0.82628  1.0000
  C   C467      1.0  0.83462  0.66789  0.86088  1.0000
  C   C468      1.0  0.83682  0.34833  0.87325  1.0000
  C   C469      1.0  0.99703  0.65731  0.71985  1.0000
  C   C470      1.0  0.88652  0.53858  0.83291  1.0000
  H   H465      1.0  0.80776  0.45371  0.98534  1.0000
  H   H466      1.0  0.91567  0.36586  0.65542  1.0000
  H   H467      1.0  0.81041  0.64153  0.74964  1.0000
  H   H468      1.0  0.93531  0.52979  0.85718  1.0000
  C   C471      1.0  0.89337  0.66814  0.54814  1.0000
  C   C472      1.0  0.00912  0.59414  0.80156  1.0000
  H   H469      1.0  0.88982  0.38121  0.52417  1.0000
  H   H470      1.0  0.88894  0.43110  0.62189  1.0000
  C   C473      1.0  0.91389  0.34751  0.59818  1.0000
  C   C474      1.0  0.82881  0.63892  0.75944  1.0000
  H   H471      1.0  0.82452  0.35226  0.89752  1.0000
  H   H472      1.0  0.97970  0.66440  0.72586  1.0000
  C   C475      1.0  0.90597  0.35350  0.63722  1.0000
  C   C476      1.0  0.70979  0.61349  0.99078  1.0000
  H   H473      1.0  0.68859  0.64461  0.98146  1.0000
  C   C477      1.0  0.00005  0.63334  0.71207  1.0000
  H   H474      1.0  0.98480  0.62214  0.71169  1.0000
  H   H475      1.0  0.00992  0.58862  0.71030  1.0000
  Fe  Fe81      1.0  0.62496  0.88782  0.29700  1.0000
  S   S162      1.0  0.63120  0.91993  0.25866  1.0000
  S   S163      1.0  0.65492  0.87225  0.33334  1.0000
  Fe  Fe82      1.0  0.57652  0.88004  0.25990  1.0000
  S   S164      1.0  0.57924  0.91139  0.21899  1.0000
  S   S165      1.0  0.54432  0.85863  0.24894  1.0000
  Fe  Fe83      1.0  0.61579  0.89878  0.20763  1.0000
  S   S166      1.0  0.63089  0.89757  0.14417  1.0000
  Fe  Fe84      1.0  0.59397  0.92905  0.27398  1.0000
  S   S167      1.0  0.58023  0.96383  0.29617  1.0000
  S   S168      1.0  0.61216  0.86609  0.24485  1.0000
  S   S169      1.0  0.58868  0.89843  0.31625  1.0000
  Fe  Fe85      1.0  0.88903  0.70260  0.46072  1.0000
  H   H476      1.0  0.52936  0.80966  0.14722  1.0000
  Fe  Fe86      1.0  0.87429  0.72293  0.37797  1.0000
  S   S170      1.0  0.87988  0.76012  0.40032  1.0000
  S   S171      1.0  0.86196  0.71900  0.31147  1.0000
  Fe  Fe87      1.0  0.91324  0.74602  0.42930  1.0000
  S   S172      1.0  0.94847  0.76504  0.43350  1.0000
  Fe  Fe88      1.0  0.86127  0.74891  0.45759  1.0000
  C   C478      1.0  0.63304  0.98199  0.34347  1.0000
  S   S173      1.0  0.90891  0.71005  0.40302  1.0000
  S   S174      1.0  0.85412  0.71239  0.43371  1.0000
  H   H477      1.0  0.55040  0.87061  0.16381  1.0000
  C   C479      1.0  0.68094  0.71825  0.01176  1.0000
  C   C480      1.0  0.99671  0.76750  0.43732  1.0000
  H   H478      1.0  0.54305  0.92959  0.27332  1.0000
  C   C481      1.0  0.69320  0.70619  0.04294  1.0000
  C   C482      1.0  0.56331  0.87713  0.10349  1.0000
  C   C483      1.0  0.81628  0.74706  0.36747  1.0000
  H   H479      1.0  0.51209  0.91918  0.22351  1.0000
  C   C484      1.0  0.58292  0.01087  0.28177  1.0000
  C   C485      1.0  0.80630  0.79199  0.39503  1.0000
  H   H480      1.0  0.65280  0.79642  0.16136  1.0000
  N   N41       1.0  0.64185  0.00486  0.32994  1.0000
  H   H481      1.0  0.79518  0.71317  0.40488  1.0000
  H   H482      1.0  0.67196  0.88211  0.25225  1.0000
  C   C486      1.0  0.53710  0.82620  0.15872  1.0000
  C   C487      1.0  0.56737  0.86754  0.06511  1.0000
  N   N42       1.0  0.80164  0.75015  0.39992  1.0000
  C   C488      1.0  0.97741  0.75384  0.42555  1.0000
  C   C489      1.0  0.98167  0.73166  0.40878  1.0000
  H   H483      1.0  0.66647  0.72979  0.01927  1.0000
  H   H484      1.0  0.96712  0.72092  0.39942  1.0000
  C   C490      1.0  0.79640  0.77226  0.41349  1.0000
  C   C491      1.0  0.65903  0.88174  0.38389  1.0000
  C   C492      1.0  0.64297  0.89688  0.40250  1.0000
  C   C493      1.0  0.64635  0.90378  0.44306  1.0000
  C   C494      1.0  0.66588  0.89581  0.46518  1.0000
  C   C495      1.0  0.68208  0.88083  0.44652  1.0000
  C   C496      1.0  0.67859  0.87376  0.40599  1.0000
  H   H485      1.0  0.62783  0.90307  0.38579  1.0000
  H   H486      1.0  0.63371  0.91530  0.45742  1.0000
  H   H487      1.0  0.69717  0.87457  0.46335  1.0000
  H   H488      1.0  0.69109  0.86205  0.39173  1.0000
  C   C497      1.0  0.61625  0.83047  0.07248  1.0000
  C   C498      1.0  0.62817  0.84900  0.05393  1.0000
  C   C499      1.0  0.63256  0.86969  0.07597  1.0000
  C   C500      1.0  0.62474  0.87197  0.11626  1.0000
  C   C501      1.0  0.61269  0.85345  0.13437  1.0000
  C   C502      1.0  0.60876  0.83270  0.11281  1.0000
  H   H489      1.0  0.63394  0.84740  0.02271  1.0000
  H   H490      1.0  0.64191  0.88398  0.06172  1.0000
  H   H491      1.0  0.60620  0.85504  0.16490  1.0000
  H   H492      1.0  0.59945  0.81844  0.12723  1.0000
  H   H493      1.0  0.65268  0.80325  0.23627  1.0000
  C   C503      1.0  0.58864  0.98840  0.26757  1.0000
  C   C504      1.0  0.60157  0.98591  0.23176  1.0000
  H   H494      1.0  0.57278  0.01284  0.30932  1.0000
  H   H495      1.0  0.60588  0.96858  0.22046  1.0000
  H   H496      1.0  0.67056  0.89391  0.20185  1.0000
  H   H497      1.0  0.56889  0.89487  0.11026  1.0000
  H   H498      1.0  0.64461  0.97440  0.36738  1.0000
  H   H499      1.0  0.69758  0.88091  0.22045  1.0000
  H   H500      1.0  0.53870  0.88321  0.32547  1.0000
  C   C505      1.0  0.55302  0.86327  0.13372  1.0000
  C   C506      1.0  0.64786  0.00841  0.29012  1.0000
  H   H501      1.0  0.83823  0.76380  0.32272  1.0000
  S   S175      1.0  0.60925  0.80451  0.04668  1.0000
  C   C507      1.0  0.67825  0.87948  0.22060  1.0000
  C   C508      1.0  0.82137  0.78900  0.36210  1.0000
  S   S176      1.0  0.89489  0.73789  0.48836  1.0000
  C   C509      1.0  0.66499  0.83889  0.23067  1.0000
  C   C510      1.0  0.65838  0.81314  0.17366  1.0000
  H   H502      1.0  0.68797  0.70867  0.07425  1.0000
  N   N43       1.0  0.67128  0.85656  0.20462  1.0000
  C   C511      1.0  0.66548  0.83104  0.14748  1.0000
  C   C512      1.0  0.71209  0.69104  0.03404  1.0000
  H   H503      1.0  0.61958  0.00404  0.18337  1.0000
  H   H504      1.0  0.99371  0.78475  0.45006  1.0000
  C   C513      1.0  0.84484  0.69754  0.28572  1.0000
  H   H505      1.0  0.80168  0.72803  0.45175  1.0000
  C   C514      1.0  0.82625  0.76642  0.34793  1.0000
  H   H506      1.0  0.67661  0.86688  0.14290  1.0000
  C   C515      1.0  0.83839  0.70163  0.24490  1.0000
  C   C516      1.0  0.65822  0.81701  0.21557  1.0000
  C   C517      1.0  0.55103  0.83093  0.08840  1.0000
  H   H507      1.0  0.82959  0.80408  0.34803  1.0000
  C   C518      1.0  0.67188  0.85278  0.16357  1.0000
  H   H508      1.0  0.52305  0.83606  0.17483  1.0000
  H   H509      1.0  0.66526  0.82835  0.11479  1.0000
  H   H510      1.0  0.89739  0.69228  0.23155  1.0000
  H   H511      1.0  0.77347  0.73195  0.42770  1.0000
  H   H512      1.0  0.54711  0.81264  0.08248  1.0000
  H   H513      1.0  0.66469  0.84181  0.26330  1.0000
  C   C519      1.0  0.79249  0.72978  0.42201  1.0000
  H   H514      1.0  0.78546  0.77465  0.44012  1.0000
  H   H515      1.0  0.80285  0.80939  0.40716  1.0000
  C   C520      1.0  0.00140  0.69606  0.48920  1.0000
  H   H516      1.0  0.53253  0.95032  0.33663  1.0000
  H   H517      1.0  0.82165  0.68790  0.19082  1.0000
  C   C521      1.0  0.51945  0.86834  0.27562  1.0000
  H   H518      1.0  0.84357  0.81359  0.47381  1.0000
  C   C522      1.0  0.60926  0.00596  0.21075  1.0000
  N   N44       1.0  0.54692  0.84053  0.12588  1.0000
  C   C523      1.0  0.81666  0.83570  0.50062  1.0000
  H   H519      1.0  0.84321  0.71798  0.23042  1.0000
  H   H520      1.0  0.61503  0.98401  0.35571  1.0000
  H   H521      1.0  0.88440  0.69344  0.15960  1.0000
  S   S177      1.0  0.82962  0.76472  0.49163  1.0000
  H   H522      1.0  0.57614  0.87778  0.04186  1.0000
  C   C524      1.0  0.52502  0.93456  0.27882  1.0000
  H   H523      1.0  0.64615  0.99443  0.26805  1.0000
  C   C525      1.0  0.52161  0.88029  0.31252  1.0000
  H   H524      1.0  0.55099  0.82175  0.18123  1.0000
  C   C526      1.0  0.56111  0.84434  0.05739  1.0000
  H   H525      1.0  0.56512  0.83637  0.02822  1.0000
  H   H526      1.0  0.82072  0.72955  0.35695  1.0000
  C   C527      1.0  0.51904  0.94615  0.31462  1.0000
  H   H527      1.0  0.82474  0.85187  0.49081  1.0000
  H   H528      1.0  0.63204  0.96915  0.31811  1.0000
  C   C528      1.0  0.82743  0.81398  0.49092  1.0000
  C   C529      1.0  0.96192  0.68145  0.48899  1.0000
  C   C530      1.0  0.00486  0.72331  0.40403  1.0000
  H   H529      1.0  0.00786  0.70612  0.39106  1.0000
  C   C531      1.0  0.82616  0.68458  0.22229  1.0000
  H   H530      1.0  0.63247  0.88715  0.56562  1.0000
  Fe  Fe89      1.0  0.69971  0.89466  0.55628  1.0000
  S   S178      1.0  0.73457  0.91197  0.54901  1.0000
  Fe  Fe90      1.0  0.71331  0.87037  0.63676  1.0000
  S   S179      1.0  0.74932  0.88649  0.63493  1.0000
  S   S180      1.0  0.70146  0.84166  0.68189  1.0000
  Fe  Fe91      1.0  0.73125  0.92036  0.61534  1.0000
  S   S181      1.0  0.73927  0.95611  0.64459  1.0000
  Fe  Fe92      1.0  0.74977  0.87674  0.56836  1.0000
  S   S182      1.0  0.78314  0.86478  0.53480  1.0000
  S   S183      1.0  0.69540  0.90466  0.62207  1.0000
  S   S184      1.0  0.71472  0.85896  0.57075  1.0000
  Fe  Fe93      1.0  0.63513  0.80733  0.89436  1.0000
  S   S185      1.0  0.62668  0.77086  0.87348  1.0000
  S   S186      1.0  0.65104  0.83708  0.85576  1.0000
  C   C532      1.0  0.96138  0.74288  0.52927  1.0000
  S   S187      1.0  0.60923  0.75894  0.96545  1.0000
  Fe  Fe94      1.0  0.64364  0.75844  0.93230  1.0000
  S   S188      1.0  0.67185  0.72929  0.93017  1.0000
  Fe  Fe95      1.0  0.59292  0.77488  0.90934  1.0000
  S   S189      1.0  0.55685  0.76447  0.88414  1.0000
  S   S190      1.0  0.65355  0.79495  0.95159  1.0000
  S   S191      1.0  0.60040  0.81222  0.92660  1.0000
  C   C533      1.0  0.52873  0.76866  0.90682  1.0000
  H   H531      1.0  0.69353  0.77274  0.91374  1.0000
  C   C534      1.0  0.65133  0.83359  0.59455  1.0000
  H   H532      1.0  0.78976  0.96999  0.62842  1.0000
  C   C535      1.0  0.63672  0.87596  0.62754  1.0000
  C   C536      1.0  0.68560  0.84125  0.72865  1.0000
  C   C537      1.0  0.68113  0.86156  0.75125  1.0000
  C   C538      1.0  0.66976  0.86001  0.78933  1.0000
  C   C539      1.0  0.66252  0.83822  0.80527  1.0000
  C   C540      1.0  0.66623  0.81803  0.78195  1.0000
  C   C541      1.0  0.67780  0.81955  0.74407  1.0000
  H   H533      1.0  0.68693  0.87841  0.73992  1.0000
  H   H534      1.0  0.66698  0.87579  0.80700  1.0000
  H   H535      1.0  0.66075  0.80115  0.79363  1.0000
  H   H536      1.0  0.68102  0.80370  0.72683  1.0000
  C   C542      1.0  0.73899  0.98520  0.62359  1.0000
  C   C543      1.0  0.73879  0.98946  0.58161  1.0000
  H   H537      1.0  0.71376  0.76084  0.78983  1.0000
  H   H538      1.0  0.73736  0.97486  0.56082  1.0000
  C   C544      1.0  0.78554  0.81557  0.53554  1.0000
  C   C545      1.0  0.69968  0.77938  0.88476  1.0000
  C   C546      1.0  0.70604  0.69984  0.96205  1.0000
  H   H539      1.0  0.65611  0.82194  0.65664  1.0000
  H   H540      1.0  0.71782  0.84223  0.80652  1.0000
  H   H541      1.0  0.86382  0.69626  0.62377  1.0000
  H   H542      1.0  0.78834  0.77770  0.53597  1.0000
  C   C547      1.0  0.79569  0.83671  0.52311  1.0000
  C   C548      1.0  0.79225  0.95734  0.60414  1.0000
  H   H543      1.0  0.69887  0.74552  0.85610  1.0000
  C   C549      1.0  0.79063  0.96499  0.56375  1.0000
  C   C550      1.0  0.71127  0.77262  0.81533  1.0000
  H   H544      1.0  0.72264  0.80317  0.78250  1.0000
  N   N45       1.0  0.79588  0.93410  0.61304  1.0000
  N   N46       1.0  0.71231  0.81162  0.84312  1.0000
  C   C551      1.0  0.70293  0.76402  0.85234  1.0000
  H   H545      1.0  0.85164  0.70059  0.87418  1.0000
  C   C552      1.0  0.79797  0.91799  0.58245  1.0000
  H   H546      1.0  0.64327  0.85995  0.68608  1.0000
  H   H547      1.0  0.71105  0.69719  0.93069  1.0000
  C   C553      1.0  0.64627  0.84861  0.52528  1.0000
  C   C554      1.0  0.68720  0.71510  0.97099  1.0000
  C   C555      1.0  0.79260  0.94866  0.53238  1.0000
  H   H548      1.0  0.85015  0.68015  0.74869  1.0000
  C   C556      1.0  0.79640  0.92503  0.54171  1.0000
  S   S192      1.0  0.66851  0.90395  0.51671  1.0000
  H   H549      1.0  0.80051  0.89948  0.58932  1.0000
  H   H550      1.0  0.63166  0.89286  0.64002  1.0000
  C   C557      1.0  0.52540  0.78278  0.94113  1.0000
  C   C558      1.0  0.51499  0.81639  0.85336  1.0000
  C   C559      1.0  0.85202  0.69284  0.80997  1.0000
  H   H551      1.0  0.80956  0.93734  0.67285  1.0000
  H   H552      1.0  0.54038  0.79049  0.95594  1.0000
  H   H553      1.0  0.77926  0.92879  0.66982  1.0000
  C   C560      1.0  0.74077  0.00457  0.64996  1.0000
  C   C561      1.0  0.65039  0.83614  0.63679  1.0000
  C   C562      1.0  0.70420  0.80330  0.87951  1.0000
  H   H554      1.0  0.87238  0.69966  0.55000  1.0000
  C   C563      1.0  0.79681  0.92658  0.65572  1.0000
  H   H555      1.0  0.76948  0.81594  0.55286  1.0000
  H   H556      1.0  0.70091  0.81522  0.90457  1.0000
  C   C564      1.0  0.64323  0.85753  0.65334  1.0000
  H   H557      1.0  0.80205  0.90782  0.65887  1.0000
  H   H558      1.0  0.79765  0.91207  0.51763  1.0000
  C   C565      1.0  0.71849  0.68800  0.99329  1.0000
  C   C566      1.0  0.71788  0.83661  0.83896  1.0000
  N   N47       1.0  0.64454  0.85161  0.56945  1.0000
  C   C567      1.0  0.71623  0.79658  0.81140  1.0000
  H   H559      1.0  0.74098  0.00160  0.68248  1.0000
  Fe  Fe96      1.0  0.61820  0.79627  0.98119  1.0000
  H   H560      1.0  0.73533  0.84013  0.85227  1.0000
  H   H561      1.0  0.78719  0.98337  0.55698  1.0000
  H   H562      1.0  0.53352  0.81908  0.85872  1.0000
  H   H563      1.0  0.70449  0.84759  0.85467  1.0000
  H   H564      1.0  0.65784  0.81722  0.58198  1.0000
  C   C568      1.0  0.63736  0.87263  0.58542  1.0000
  H   H565      1.0  0.64008  0.83099  0.51596  1.0000
  H   H566      1.0  0.52070  0.79269  0.80348  1.0000
  N   N48       1.0  0.96971  0.72060  0.51216  1.0000
  H   H567      1.0  0.86138  0.70863  0.80152  1.0000
  C   C569      1.0  0.79633  0.79387  0.52589  1.0000
  C   C570      1.0  0.87963  0.68518  0.56742  1.0000
  H   H568      1.0  0.96168  0.74202  0.56297  1.0000
  H   H569      1.0  0.00537  0.73139  0.51036  1.0000
  C   C571      1.0  0.84655  0.68834  0.85062  1.0000
  H   H570      1.0  0.97227  0.75777  0.51856  1.0000
  C   C572      1.0  0.99308  0.71730  0.50509  1.0000
  C   C573      1.0  0.95423  0.70288  0.50498  1.0000
  H   H571      1.0  0.94331  0.74694  0.51884  1.0000
  C   C574      1.0  0.81738  0.79286  0.50369  1.0000
  H   H572      1.0  0.51126  0.74764  0.86185  1.0000
  H   H573      1.0  0.93574  0.70526  0.51126  1.0000
  C   C575      1.0  0.87476  0.68319  0.60923  1.0000
  C   C576      1.0  0.74128  0.01260  0.56640  1.0000
  H   H574      1.0  0.66475  0.85078  0.51561  1.0000
  H   H575      1.0  0.79083  0.95424  0.50094  1.0000
  H   H576      1.0  0.63556  0.86192  0.50863  1.0000
