data_image0
_chemical_formula_structural       HFeSFeSFeSFeS3HFeS2FeS2FeHFeS3HFeS2HC2SH2C2NH2CNHC6H4C6H4C2HC3H2C6H4SCH2SCHC4H2SHCHC5H2C3NC6H9FeH4CNH2C2HCSHCHCH3CH2C3HC2H2CHCHSHCSCH2NH3CH2SCHCSFe2C2SH2SHC2HFeCFeSCHCSCSNCHC4H2CHCH3SFeCH3NC3FeS2CSFeSFeCS2CHC4HCSCSHC4H2CNCH2CHC2HCHC3H3C2H4CH6CHNHCH2SHCH3CFeH4C2HNHC3HCSCHC2H4C5HC2HFeSFe2SFeSCFeS2FeSFeCS2H2NHC2SHC6H5CH2S2C6H3C3HCSH3C2HC7H4C3SHSH2SH2CHCSCH2CNC3H3FeHCSCH2CSH5NHCHCSHC2HC4NHCH2CH3CFeC2H2CHNHC2H2SH2C2HC2H3CH2C4H2CHC4H2NCHNCH2C2H2CFeS2FeS2FeSFeS2FeS2FeS2CFeS3H2FeS2FeCSFeSH2S2C2HCHCH2C6HNH2C6H4C6H5C4HCFeC2H5C3HNCHC3HCHC2H2CHCH2C2H2CFeNHCH3C2SHCHC2H2CH4C2H3C2HC3HNC2HC2HCHNCH2FeS2FeS2Fe2S3FeS2FeS2Fe2HS2FeSHFeS2FeSHS4FeHFeSHNCHCH2N2HCHSC6H4C6H4CH2C4H2C7H2C6H4C6H4NC6H9CHC4H2CH3C2HC2H2CFeC3H2CHCHC2FeH4CHNH2SHCSCHCHCHCSFeCHC3H2C2HCHCHS2C4NC2HCHSHNH2C2SH3CH6CH3CNHCH2CSFeSCFe2S3FeSHFeS2FeSFeS3FeS3HFeS2FeS2FeS2FeS2FeSFeS3C6H4C6H4C6H4C6H4CHC10H4C6H5NC6H8CH2C2HSCNC3SNC3HCH3CHC2FeCH2CFeSHFeCNH2SCHSCH2CN2H2C3H4C2H8C3H2CH2NCFeCH2CHCHCHCHCH5NH9CHC3HNSHCHS2H2FeSCFeSFeSFeSFeS2FeS2FeSFeHS2FeCS4CSFeS2FeS2FeSFeS3C6H4C6H4C6H5SC2HC9H4C6H4C6H9NC6H8NC6H8CSC2HCNH3CHNCHCN2H3NH4FeCHC2FeSC2HNH2SHCHCSCHCH2CHCH2CH2FeC2HCHSH5CHCHCHSC4H3CSC2HFeS2HFe2SHSH2SHSFe2SFe2HCFeS2FeS2Fe2S3CHCFeS2C8SC3H2NCH2C7H4C6H3C7H4C6H4NC4H8C2HCHCH2CHC2SH3CSHSCNHSHNH2C2HCFeH3CHSH3CSNCH3C4HC2FeSHFeH2SHSHCH4C2HCHSCH3SCFeSHFeSHFeSFeS3HSFeS2FeSFeS3FeCHFeS2FeCFe2S2H3C6NH3C3HC2H3C7H4C3HC3H4C4HSCNC2HC2H5CH2C2HC2H2SH2NC2SCH3C2NC2H3CH3SH4CSC3HCHCHC5HNH2CH2CHC3HSH2C4HFeSCFeSFeSFeS3FeSCFeS2FeSFeS3FeS2FeSCSCHCH2CHCHC6H4C6H4C2HNC2H2CHC6HCH3NC6H6CH2NC6H5CH2C2H2SH2C2H2NHS2HCHC3HCHC2SCH9CNSFeSFeS2FeSFeHS2HCH3C8H3CHC2SHCHC2H2C6H4NH3SH2CHC2H4CHCH5C3SH2NH3FeSHFeSFeSFeS3CH4C2HCH2C2SHC2H3C3HCSH2CHCH2CHC2NHC5H2C2HCH3C2HCSCSHNHCFeS2FeS2FeCFeS2FeS2FeS2FeCFeS3HC2SC7H4CHCNC2HC8H6CH4CHCHC7H3SHC2HNC2H2C3HSH3C2HSCHCH2CHCHNCHNHCHCN2C6H5CSH6CH3C2FeH4C2HCHCH4
_chemical_formula_sum              "H864 Fe144 S288 C864 N72"
_cell_length_a       51.2738
_cell_length_b       50.971
_cell_length_c       75.1198
_cell_angle_alpha    85.8119
_cell_angle_beta     95.1084
_cell_angle_gamma    113.696

_space_group_name_H-M_alt    "P 1"
_space_group_IT_number       1

loop_
  _space_group_symop_operation_xyz
  'x, y, z'

loop_
  _atom_site_type_symbol
  _atom_site_label
  _atom_site_symmetry_multiplicity
  _atom_site_fract_x
  _atom_site_fract_y
  _atom_site_fract_z
  _atom_site_occupancy
  H   H1        1.0  0.04328  0.07452  0.20906  1.0000
  Fe  Fe1       1.0  0.09568  0.03624  0.20759  1.0000
  S   S1        1.0  0.08365  0.04313  0.17879  1.0000
  Fe  Fe2       1.0  0.14779  0.09485  0.20894  1.0000
  S   S2        1.0  0.13827  0.10575  0.18015  1.0000
  Fe  Fe3       1.0  0.09213  0.08757  0.18655  1.0000
  S   S3        1.0  0.06195  0.10848  0.17637  1.0000
  Fe  Fe4       1.0  0.13063  0.06035  0.17520  1.0000
  S   S4        1.0  0.14856  0.04676  0.15283  1.0000
  S   S5        1.0  0.10182  0.08012  0.21566  1.0000
  S   S6        1.0  0.14266  0.05006  0.20364  1.0000
  H   H2        1.0  0.15087  0.16542  0.21514  1.0000
  Fe  Fe5       1.0  0.24609  0.12471  0.04813  1.0000
  S   S7        1.0  0.22205  0.15321  0.04697  1.0000
  S   S8        1.0  0.29124  0.13410  0.06046  1.0000
  Fe  Fe6       1.0  0.19368  0.07376  0.03207  1.0000
  S   S9        1.0  0.16567  0.09852  0.03030  1.0000
  S   S10       1.0  0.17830  0.02587  0.02743  1.0000
  Fe  Fe7       1.0  0.20386  0.13536  0.01997  1.0000
  H   H3        1.0  0.32387  0.19241  0.23097  1.0000
  Fe  Fe8       1.0  0.18603  0.11408  0.05747  1.0000
  S   S11       1.0  0.16201  0.11983  0.07969  1.0000
  S   S12       1.0  0.23096  0.10963  0.02008  1.0000
  S   S13       1.0  0.21102  0.08665  0.06020  1.0000
  H   H4        1.0  0.28832  0.19410  0.00993  1.0000
  Fe  Fe9       1.0  0.43726  0.25253  0.10260  1.0000
  S   S14       1.0  0.44977  0.21645  0.11290  1.0000
  S   S15       1.0  0.39626  0.24722  0.08537  1.0000
  H   H5        1.0  0.11986  0.15810  0.18290  1.0000
  C   C1        1.0  0.12493  0.14449  0.23704  1.0000
  C   C2        1.0  0.08027  0.14790  0.21469  1.0000
  S   S16       1.0  0.44435  0.27240  0.12946  1.0000
  H   H6        1.0  0.35535  0.14572  0.19968  1.0000
  H   H7        1.0  0.21161  0.09114  0.22967  1.0000
  C   C3        1.0  0.23714  0.16150  0.23940  1.0000
  C   C4        1.0  0.11277  0.17143  0.19075  1.0000
  N   N1        1.0  0.34596  0.21518  0.20816  1.0000
  H   H8        1.0  0.16575  0.17072  0.02037  1.0000
  H   H9        1.0  0.13319  0.19629  0.01716  1.0000
  C   C5        1.0  0.35930  0.21389  0.19346  1.0000
  N   N2        1.0  0.32563  0.19503  0.02563  1.0000
  H   H10       1.0  0.32355  0.23605  0.02526  1.0000
  C   C6        1.0  0.36571  0.21486  0.08153  1.0000
  C   C7        1.0  0.33973  0.21637  0.07491  1.0000
  C   C8        1.0  0.31611  0.19164  0.06928  1.0000
  C   C9        1.0  0.31837  0.16512  0.06999  1.0000
  C   C10       1.0  0.34394  0.16342  0.07726  1.0000
  C   C11       1.0  0.36743  0.18809  0.08307  1.0000
  H   H11       1.0  0.33818  0.23699  0.07369  1.0000
  H   H12       1.0  0.29659  0.19334  0.06382  1.0000
  H   H13       1.0  0.34592  0.14302  0.07792  1.0000
  H   H14       1.0  0.38725  0.18656  0.08806  1.0000
  C   C12       1.0  0.14960  0.06513  0.13191  1.0000
  C   C13       1.0  0.16331  0.05975  0.11811  1.0000
  C   C14       1.0  0.16654  0.07581  0.10181  1.0000
  C   C15       1.0  0.15597  0.09728  0.09920  1.0000
  C   C16       1.0  0.14155  0.10208  0.11282  1.0000
  C   C17       1.0  0.13838  0.08608  0.12914  1.0000
  H   H15       1.0  0.17195  0.04350  0.12016  1.0000
  H   H16       1.0  0.17747  0.07176  0.09139  1.0000
  H   H17       1.0  0.13319  0.11856  0.11085  1.0000
  H   H18       1.0  0.12757  0.09023  0.13964  1.0000
  C   C18       1.0  0.03039  0.09815  0.18770  1.0000
  C   C19       1.0  0.00912  0.10776  0.18112  1.0000
  H   H19       1.0  0.00142  0.06490  0.22647  1.0000
  C   C20       1.0  0.33673  0.22391  0.02813  1.0000
  C   C21       1.0  0.00331  0.07659  0.21370  1.0000
  C   C22       1.0  0.02714  0.08213  0.20389  1.0000
  H   H20       1.0  0.01155  0.12026  0.16863  1.0000
  H   H21       1.0  0.33252  0.15632  0.02919  1.0000
  C   C23       1.0  0.42366  0.24547  0.21136  1.0000
  C   C24       1.0  0.43078  0.26173  0.19530  1.0000
  C   C25       1.0  0.43873  0.25098  0.18095  1.0000
  C   C26       1.0  0.43960  0.22385  0.18257  1.0000
  C   C27       1.0  0.43304  0.20777  0.19877  1.0000
  C   C28       1.0  0.42510  0.21856  0.21315  1.0000
  H   H22       1.0  0.37438  0.18839  0.17883  1.0000
  H   H23       1.0  0.06254  0.14867  0.20595  1.0000
  H   H24       1.0  0.43378  0.18681  0.20014  1.0000
  H   H25       1.0  0.41978  0.20593  0.22550  1.0000
  S   S17       1.0  0.44766  0.20911  0.16436  1.0000
  C   C29       1.0  0.29549  0.18032  0.01955  1.0000
  H   H26       1.0  0.37338  0.26069  0.03773  1.0000
  H   H27       1.0  0.09320  0.17220  0.18347  1.0000
  S   S18       1.0  0.41105  0.25864  0.22828  1.0000
  C   C30       1.0  0.21783  0.13486  0.23297  1.0000
  H   H28       1.0  0.09894  0.01161  0.01297  1.0000
  C   C31       1.0  0.98205  0.08620  0.20716  1.0000
  C   C32       1.0  0.16361  0.18182  0.00784  1.0000
  C   C33       1.0  0.25325  0.11522  0.24254  1.0000
  C   C34       1.0  0.38161  0.22237  0.03958  1.0000
  H   H29       1.0  0.38250  0.18037  0.04130  1.0000
  H   H30       1.0  0.98269  0.16714  0.01230  1.0000
  S   S19       1.0  0.18336  0.13149  0.22378  1.0000
  H   H31       1.0  0.40300  0.23284  0.04582  1.0000
  C   C35       1.0  0.98480  0.10150  0.19072  1.0000
  H   H32       1.0  0.25922  0.09705  0.24391  1.0000
  C   C36       1.0  0.33798  0.16628  0.21654  1.0000
  C   C37       1.0  0.12950  0.15723  0.21983  1.0000
  C   C38       1.0  0.34244  0.24156  0.21138  1.0000
  C   C39       1.0  0.37008  0.19292  0.03708  1.0000
  C   C40       1.0  0.35222  0.16502  0.20185  1.0000
  H   H33       1.0  0.28213  0.17442  0.03123  1.0000
  H   H34       1.0  0.32172  0.24073  0.20511  1.0000
  C   C41       1.0  0.16229  0.00698  0.00768  1.0000
  C   C42       1.0  0.34182  0.17947  0.03016  1.0000
  C   C43       1.0  0.22619  0.11178  0.23444  1.0000
  N   N3        1.0  0.23127  0.12947  0.11341  1.0000
  C   C44       1.0  0.21558  0.14324  0.11899  1.0000
  C   C45       1.0  0.23636  0.10907  0.12428  1.0000
  C   C46       1.0  0.20433  0.13654  0.13583  1.0000
  C   C47       1.0  0.22520  0.10166  0.14115  1.0000
  C   C48       1.0  0.20912  0.11553  0.14693  1.0000
  C   C49       1.0  0.24304  0.13722  0.09578  1.0000
  H   H35       1.0  0.21085  0.15880  0.11013  1.0000
  H   H36       1.0  0.24859  0.09798  0.11980  1.0000
  H   H37       1.0  0.19101  0.14670  0.13994  1.0000
  H   H38       1.0  0.22826  0.08471  0.14950  1.0000
  H   H39       1.0  0.19949  0.10924  0.15971  1.0000
  H   H40       1.0  0.25025  0.12102  0.09132  1.0000
  H   H41       1.0  0.22646  0.13857  0.08562  1.0000
  H   H42       1.0  0.26159  0.15825  0.09607  1.0000
  H   H43       1.0  0.36018  0.26074  0.20601  1.0000
  Fe  Fe10      1.0  0.45906  0.23768  0.13931  1.0000
  H   H44       1.0  0.34342  0.24463  0.22596  1.0000
  H   H45       1.0  0.12947  0.19358  0.19119  1.0000
  H   H46       1.0  0.44405  0.26369  0.16863  1.0000
  H   H47       1.0  0.42989  0.28265  0.19386  1.0000
  C   C50       1.0  0.36274  0.18887  0.19012  1.0000
  N   N4        1.0  0.10731  0.15873  0.20889  1.0000
  H   H48       1.0  0.32968  0.14789  0.22580  1.0000
  H   H49       1.0  0.36832  0.23261  0.18457  1.0000
  C   C51       1.0  0.36489  0.23802  0.03507  1.0000
  C   C52       1.0  0.33487  0.19163  0.21946  1.0000
  H   H50       1.0  0.47582  0.18532  0.14017  1.0000
  C   C53       1.0  0.07486  0.13483  0.23178  1.0000
  S   S20       1.0  0.06813  0.99673  0.22377  1.0000
  H   H51       1.0  0.29165  0.16034  0.01272  1.0000
  C   C54       1.0  0.14509  0.19624  0.00598  1.0000
  H   H52       1.0  0.11964  0.00460  0.04315  1.0000
  C   C55       1.0  0.09624  0.99023  0.01796  1.0000
  H   H53       1.0  0.12275  0.00085  0.17826  1.0000
  H   H54       1.0  0.05322  0.12561  0.23608  1.0000
  H   H55       1.0  0.23091  0.17949  0.23843  1.0000
  C   C56       1.0  0.09738  0.13312  0.24299  1.0000
  H   H56       1.0  0.14259  0.14273  0.24544  1.0000
  H   H57       1.0  0.04399  0.98637  0.18694  1.0000
  C   C57       1.0  0.26433  0.16501  0.24733  1.0000
  C   C58       1.0  0.10788  0.98629  0.03494  1.0000
  C   C59       1.0  0.40799  0.22666  0.34095  1.0000
  H   H58       1.0  0.38694  0.21063  0.34356  1.0000
  C   C60       1.0  0.41509  0.10495  0.32226  1.0000
  C   C61       1.0  0.47173  0.08345  0.30769  1.0000
  H   H59       1.0  0.22991  0.46741  0.44281  1.0000
  H   H60       1.0  0.39813  0.12742  0.30203  1.0000
  C   C62       1.0  0.46383  0.08007  0.44105  1.0000
  H   H61       1.0  0.40806  0.28257  0.36261  1.0000
  C   C63       1.0  0.46917  0.44937  0.44078  1.0000
  H   H62       1.0  0.47053  0.39319  0.41966  1.0000
  S   S21       1.0  0.43832  0.07498  0.34569  1.0000
  H   H63       1.0  0.45261  0.08367  0.42880  1.0000
  C   C64       1.0  0.46096  0.26794  0.33289  1.0000
  S   S22       1.0  0.44408  0.46813  0.38375  1.0000
  C   C65       1.0  0.41576  0.12910  0.31160  1.0000
  H   H64       1.0  0.46508  0.23561  0.31773  1.0000
  H   H65       1.0  0.46435  0.13269  0.44020  1.0000
  N   N5        1.0  0.47386  0.44111  0.45810  1.0000
  H   H66       1.0  0.37804  0.25701  0.35047  1.0000
  H   H67       1.0  0.43378  0.29741  0.29681  1.0000
  H   H68       1.0  0.39680  0.08476  0.32090  1.0000
  C   C66       1.0  0.40433  0.31681  0.32960  1.0000
  H   H69       1.0  0.45028  0.06696  0.30616  1.0000
  H   H70       1.0  0.46721  0.46966  0.43771  1.0000
  S   S23       1.0  0.30590  0.14438  0.25973  1.0000
  C   C67       1.0  0.46739  0.43205  0.42672  1.0000
  H   H71       1.0  0.39362  0.24559  0.37056  1.0000
  C   C68       1.0  0.40647  0.30016  0.31608  1.0000
  S   S24       1.0  0.38600  0.18485  0.25734  1.0000
  Fe  Fe11      1.0  0.40738  0.19517  0.28492  1.0000
  Fe  Fe12      1.0  0.39626  0.23182  0.25354  1.0000
  C   C69       1.0  0.43984  0.15490  0.31274  1.0000
  C   C70       1.0  0.46264  0.15673  0.32511  1.0000
  S   S25       1.0  0.37798  0.26661  0.31149  1.0000
  H   H72       1.0  0.46399  0.43881  0.41299  1.0000
  H   H73       1.0  0.38472  0.30978  0.33634  1.0000
  S   S26       1.0  0.36698  0.18937  0.29731  1.0000
  H   H74       1.0  0.41791  0.19843  0.32528  1.0000
  C   C71       1.0  0.43826  0.10656  0.33428  1.0000
  C   C72       1.0  0.45184  0.24057  0.32630  1.0000
  H   H75       1.0  0.45036  0.29555  0.34838  1.0000
  Fe  Fe13      1.0  0.37985  0.23678  0.29078  1.0000
  C   C73       1.0  0.44334  0.27401  0.34366  1.0000
  Fe  Fe14      1.0  0.34611  0.18262  0.26914  1.0000
  S   S27       1.0  0.44400  0.18425  0.29760  1.0000
  C   C74       1.0  0.46179  0.13274  0.33592  1.0000
  H   H76       1.0  0.42557  0.35492  0.34503  1.0000
  C   C75       1.0  0.39837  0.26001  0.35840  1.0000
  S   S28       1.0  0.35541  0.22937  0.26380  1.0000
  C   C76       1.0  0.42746  0.34240  0.33457  1.0000
  S   S29       1.0  0.42116  0.24276  0.27996  1.0000
  N   N6        1.0  0.41715  0.25348  0.34748  1.0000
  C   C77       1.0  0.45288  0.35177  0.32588  1.0000
  H   H77       1.0  0.43580  0.11212  0.45456  1.0000
  C   C78       1.0  0.42529  0.21972  0.33045  1.0000
  C   C79       1.0  0.45481  0.33535  0.31220  1.0000
  C   C80       1.0  0.47074  0.40632  0.43046  1.0000
  C   C81       1.0  0.43180  0.30976  0.30731  1.0000
  H   H78       1.0  0.46122  0.11530  0.29218  1.0000
  H   H79       1.0  0.09345  0.12257  0.25615  1.0000
  C   C82       1.0  0.47694  0.41580  0.46190  1.0000
  H   H80       1.0  0.47464  0.44905  0.48578  1.0000
  C   C83       1.0  0.45922  0.12096  0.45339  1.0000
  H   H81       1.0  0.46206  0.47080  0.47038  1.0000
  H   H82       1.0  0.27868  0.18549  0.25245  1.0000
  H   H83       1.0  0.39792  0.47626  0.39800  1.0000
  S   S30       1.0  0.46708  0.06948  0.39486  1.0000
  Fe  Fe15      1.0  0.47488  0.07691  0.36565  1.0000
  C   C84       1.0  0.27244  0.14176  0.24913  1.0000
  H   H84       1.0  0.46938  0.04407  0.43095  1.0000
  H   H85       1.0  0.47427  0.34245  0.30528  1.0000
  H   H86       1.0  0.46986  0.13701  0.46379  1.0000
  N   N7        1.0  0.46935  0.09771  0.45501  1.0000
  C   C85       1.0  0.47538  0.39801  0.44815  1.0000
  C   C86       1.0  0.47336  0.05780  0.44213  1.0000
  C   C87       1.0  0.31689  0.48263  0.67579  1.0000
  Fe  Fe16      1.0  0.14509  0.41311  0.69759  1.0000
  S   S31       1.0  0.17081  0.38601  0.69671  1.0000
  S   S32       1.0  0.12304  0.42288  0.67177  1.0000
  C   C88       1.0  0.32408  0.42780  0.62130  1.0000
  S   S33       1.0  0.18975  0.39999  0.73864  1.0000
  Fe  Fe17      1.0  0.20528  0.42125  0.71202  1.0000
  S   S34       1.0  0.25363  0.44044  0.70956  1.0000
  Fe  Fe18      1.0  0.15306  0.36657  0.72339  1.0000
  C   C89       1.0  0.13706  0.22144  0.73449  1.0000
  S   S35       1.0  0.18067  0.44920  0.71143  1.0000
  S   S36       1.0  0.12460  0.39079  0.72291  1.0000
  C   C90       1.0  0.45596  0.46935  0.60384  1.0000
  H   H87       1.0  0.13383  0.24925  0.69839  1.0000
  C   C91       1.0  0.30623  0.42262  0.63528  1.0000
  C   C92       1.0  0.12753  0.19647  0.74551  1.0000
  C   C93       1.0  0.10668  0.46248  0.65279  1.0000
  C   C94       1.0  0.31803  0.42611  0.65290  1.0000
  H   H88       1.0  0.37642  0.43210  0.67765  1.0000
  C   C95       1.0  0.08983  0.21058  0.72203  1.0000
  S   S37       1.0  0.42374  0.99770  0.58981  1.0000
  C   C96       1.0  0.45159  0.27017  0.52936  1.0000
  S   S38       1.0  0.43009  0.47030  0.61781  1.0000
  H   H89       1.0  0.28359  0.41727  0.63248  1.0000
  C   C97       1.0  0.07933  0.47137  0.68079  1.0000
  C   C98       1.0  0.27170  0.45607  0.68987  1.0000
  C   C99       1.0  0.04208  0.39128  0.67507  1.0000
  C   C100      1.0  0.47245  0.44126  0.58592  1.0000
  H   H90       1.0  0.40951  0.99626  0.62708  1.0000
  H   H91       1.0  0.46912  0.42098  0.58050  1.0000
  C   C101      1.0  0.25713  0.45407  0.67304  1.0000
  N   N8        1.0  0.34682  0.43453  0.65649  1.0000
  C   C102      1.0  0.02450  0.43325  0.63633  1.0000
  H   H92       1.0  0.34291  0.42947  0.68482  1.0000
  H   H93       1.0  0.23411  0.44312  0.67184  1.0000
  C   C103      1.0  0.27238  0.46599  0.65768  1.0000
  H   H94       1.0  0.04045  0.40489  0.68547  1.0000
  C   C104      1.0  0.35335  0.43603  0.62509  1.0000
  C   C105      1.0  0.36445  0.43945  0.64286  1.0000
  H   H95       1.0  0.02421  0.36986  0.67586  1.0000
  C   C106      1.0  0.45184  0.44329  0.59640  1.0000
  H   H96       1.0  0.14787  0.27128  0.71768  1.0000
  C   C107      1.0  0.30230  0.48031  0.65894  1.0000
  C   C108      1.0  0.09578  0.45479  0.68387  1.0000
  C   C109      1.0  0.10875  0.44947  0.66971  1.0000
  H   H97       1.0  0.06930  0.38807  0.64718  1.0000
  H   H98       1.0  0.43284  0.22461  0.52616  1.0000
  H   H99       1.0  0.09712  0.44482  0.69695  1.0000
  C   C110      1.0  0.45395  0.03043  0.58634  1.0000
  C   C111      1.0  0.45132  0.05078  0.57336  1.0000
  H   H100      1.0  0.38737  0.44662  0.64562  1.0000
  H   H101      1.0  0.43134  0.04589  0.56547  1.0000
  H   H102      1.0  0.36829  0.46358  0.67688  1.0000
  H   H103      1.0  0.43113  0.27149  0.52992  1.0000
  C   C112      1.0  0.45256  0.24352  0.52729  1.0000
  H   H104      1.0  0.01272  0.44684  0.63365  1.0000
  H   H105      1.0  0.31313  0.47211  0.70409  1.0000
  H   H106      1.0  0.36755  0.44050  0.61433  1.0000
  H   H107      1.0  0.07475  0.21621  0.71323  1.0000
  H   H108      1.0  0.08364  0.30530  0.72514  1.0000
  H   H109      1.0  0.04122  0.26124  0.73249  1.0000
  C   C113      1.0  0.02552  0.42058  0.65340  1.0000
  H   H110      1.0  0.23860  0.45920  0.74386  1.0000
  N   N9        1.0  0.04150  0.40463  0.65715  1.0000
  H   H111      1.0  0.11669  0.45855  0.64177  1.0000
  C   C114      1.0  0.35920  0.44013  0.67488  1.0000
  H   H112      1.0  0.26088  0.46404  0.64471  1.0000
  H   H113      1.0  0.06824  0.47419  0.69162  1.0000
  S   S39       1.0  0.14481  0.32059  0.73404  1.0000
  H   H114      1.0  0.15955  0.23550  0.73529  1.0000
  C   C115      1.0  0.11333  0.29221  0.74141  1.0000
  H   H115      1.0  0.43273  0.42442  0.59894  1.0000
  H   H116      1.0  0.01424  0.42448  0.66378  1.0000
  H   H117      1.0  0.30409  0.42316  0.66361  1.0000
  C   C116      1.0  0.30166  0.47037  0.69113  1.0000
  Fe  Fe19      1.0  0.16245  0.42507  0.73672  1.0000
  H   H118      1.0  0.31533  0.42609  0.60754  1.0000
  H   H119      1.0  0.46918  0.25571  0.58801  1.0000
  H   H120      1.0  0.06802  0.40986  0.61676  1.0000
  H   H121      1.0  0.11236  0.26372  0.70898  1.0000
  C   C117      1.0  0.03973  0.42928  0.62302  1.0000
  C   C118      1.0  0.12858  0.25428  0.71139  1.0000
  H   H122      1.0  0.39701  0.01280  0.64297  1.0000
  N   N10       1.0  0.11819  0.22833  0.72308  1.0000
  H   H123      1.0  0.03967  0.43961  0.60986  1.0000
  C   C119      1.0  0.05561  0.41260  0.62688  1.0000
  C   C120      1.0  0.05617  0.40025  0.64410  1.0000
  C   C121      1.0  0.09860  0.17843  0.74469  1.0000
  H   H124      1.0  0.05693  0.17205  0.73236  1.0000
  C   C122      1.0  0.08609  0.28894  0.73431  1.0000
  S   S40       1.0  0.47331  0.32669  0.53626  1.0000
  C   C123      1.0  0.06208  0.26382  0.73844  1.0000
  H   H125      1.0  0.06261  0.38882  0.67836  1.0000
  C   C124      1.0  0.07960  0.18549  0.73286  1.0000
  C   C125      1.0  0.09078  0.47958  0.64980  1.0000
  H   H126      1.0  0.46449  0.24196  0.56585  1.0000
  H   H127      1.0  0.46306  0.27587  0.56839  1.0000
  H   H128      1.0  0.47174  0.09286  0.56053  1.0000
  H   H129      1.0  0.42534  0.47461  0.53393  1.0000
  C   C126      1.0  0.47422  0.07749  0.57053  1.0000
  C   C127      1.0  0.47388  0.26162  0.57378  1.0000
  C   C128      1.0  0.25015  0.48253  0.74087  1.0000
  C   C129      1.0  0.07625  0.48331  0.66366  1.0000
  C   C130      1.0  0.47671  0.29490  0.53108  1.0000
  H   H130      1.0  0.37202  0.99206  0.60447  1.0000
  C   C131      1.0  0.39468  0.99200  0.63791  1.0000
  C   C132      1.0  0.24477  0.41193  0.86732  1.0000
  H   H131      1.0  0.07738  0.26064  0.85110  1.0000
  Fe  Fe20      1.0  0.05249  0.12563  0.78600  1.0000
  S   S41       1.0  0.08633  0.10982  0.78102  1.0000
  Fe  Fe21      1.0  0.02885  0.16955  0.77108  1.0000
  Fe  Fe22      1.0  0.98869  0.10460  0.77655  1.0000
  S   S42       1.0  0.05729  0.16857  0.79540  1.0000
  Fe  Fe23      1.0  0.03567  0.22705  0.94736  1.0000
  S   S43       1.0  0.05845  0.19736  0.95095  1.0000
  C   C133      1.0  0.10966  0.13521  0.98019  1.0000
  Fe  Fe24      1.0  0.08789  0.27704  0.93189  1.0000
  S   S44       1.0  0.11501  0.25122  0.93500  1.0000
  S   S45       1.0  0.09512  0.31958  0.91625  1.0000
  Fe  Fe25      1.0  0.07590  0.21487  0.92419  1.0000
  S   S46       1.0  0.08438  0.18778  0.90472  1.0000
  Fe  Fe26      1.0  0.09594  0.23537  0.96155  1.0000
  C   C134      1.0  0.09685  0.15044  0.96910  1.0000
  S   S47       1.0  0.04980  0.24122  0.91938  1.0000
  S   S48       1.0  0.07203  0.26442  0.95965  1.0000
  H   H132      1.0  0.10432  0.13002  0.99403  1.0000
  H   H133      1.0  0.15038  0.39685  0.84466  1.0000
  N   N11       1.0  0.19552  0.41142  0.84828  1.0000
  H   H134      1.0  0.15384  0.15758  0.92442  1.0000
  C   C135      1.0  0.17629  0.19644  0.97736  1.0000
  C   C136      1.0  0.01890  0.04880  0.76090  1.0000
  S   S49       1.0  0.19773  0.44337  0.90991  1.0000
  H   H135      1.0  0.25780  0.40638  0.84184  1.0000
  C   C137      1.0  0.12465  0.35323  0.91410  1.0000
  C   C138      1.0  0.12186  0.37415  0.90166  1.0000
  C   C139      1.0  0.14405  0.40166  0.89999  1.0000
  C   C140      1.0  0.16931  0.40871  0.91090  1.0000
  C   C141      1.0  0.17208  0.38779  0.92335  1.0000
  C   C142      1.0  0.15001  0.36017  0.92488  1.0000
  H   H136      1.0  0.10223  0.36916  0.89337  1.0000
  H   H137      1.0  0.14131  0.41762  0.89059  1.0000
  H   H138      1.0  0.19145  0.39303  0.93194  1.0000
  H   H139      1.0  0.15250  0.34443  0.93457  1.0000
  H   H140      1.0  0.16841  0.40652  0.82415  1.0000
  C   C143      1.0  0.15729  0.21033  0.97537  1.0000
  H   H141      1.0  0.15502  0.22136  0.96285  1.0000
  H   H142      1.0  0.18846  0.19668  0.96626  1.0000
  S   S50       1.0  0.11743  0.22740  0.98787  1.0000
  S   S51       1.0  0.24158  0.47634  0.82825  1.0000
  C   C144      1.0  0.06169  0.17800  0.88511  1.0000
  C   C145      1.0  0.07052  0.16848  0.87058  1.0000
  C   C146      1.0  0.05266  0.16038  0.85484  1.0000
  C   C147      1.0  0.02562  0.16117  0.85375  1.0000
  C   C148      1.0  0.01674  0.17046  0.86833  1.0000
  C   C149      1.0  0.03482  0.17917  0.88389  1.0000
  H   H143      1.0  0.09126  0.16743  0.87149  1.0000
  H   H144      1.0  0.05964  0.15315  0.84368  1.0000
  H   H145      1.0  0.02773  0.18620  0.89508  1.0000
  C   C150      1.0  0.17819  0.45319  0.77930  1.0000
  C   C151      1.0  0.20107  0.44468  0.78100  1.0000
  C   C152      1.0  0.17388  0.46760  0.79325  1.0000
  H   H146      1.0  0.21385  0.40585  0.82518  1.0000
  C   C153      1.0  0.15476  0.02026  0.99231  1.0000
  S   S52       1.0  0.03419  0.20962  0.75330  1.0000
  H   H147      1.0  0.15987  0.04304  0.99198  1.0000
  H   H148      1.0  0.23807  0.44531  0.79732  1.0000
  H   H149      1.0  0.07295  0.22347  0.85266  1.0000
  C   C154      1.0  0.24113  0.40826  0.84891  1.0000
  C   C155      1.0  0.05889  0.32305  0.97542  1.0000
  H   H150      1.0  0.10591  0.34630  0.95228  1.0000
  C   C156      1.0  0.13464  0.16118  0.92718  1.0000
  C   C157      1.0  0.06801  0.01871  0.80386  1.0000
  C   C158      1.0  0.08248  0.02848  0.78818  1.0000
  C   C159      1.0  0.08873  0.05675  0.78145  1.0000
  C   C160      1.0  0.07987  0.07500  0.79008  1.0000
  C   C161      1.0  0.06531  0.06507  0.80569  1.0000
  C   C162      1.0  0.05977  0.03719  0.81266  1.0000
  H   H151      1.0  0.11686  0.14956  0.91735  1.0000
  H   H152      1.0  0.08610  0.25293  0.81892  1.0000
  H   H153      1.0  0.05912  0.07919  0.81272  1.0000
  H   H154      1.0  0.04908  0.02993  0.82498  1.0000
  C   C163      1.0  0.03461  0.29985  0.98099  1.0000
  C   C164      1.0  0.16985  0.41214  0.83834  1.0000
  C   C165      1.0  0.14040  0.00394  0.97737  1.0000
  S   S53       1.0  0.18907  0.48376  0.86177  1.0000
  H   H155      1.0  0.13704  0.27270  0.75865  1.0000
  S   S54       1.0  0.98757  0.14586  0.78449  1.0000
  H   H156      1.0  0.22626  0.41841  0.89042  1.0000
  H   H157      1.0  0.10020  0.06438  0.76943  1.0000
  S   S55       1.0  0.98891  0.21564  0.95247  1.0000
  H   H158      1.0  0.18302  0.41861  0.87317  1.0000
  H   H159      1.0  0.13974  0.18453  0.92505  1.0000
  C   C166      1.0  0.14157  0.21025  0.98969  1.0000
  H   H160      1.0  0.09456  0.22884  0.76628  1.0000
  C   C167      1.0  0.06168  0.23810  0.84991  1.0000
  S   S56       1.0  0.01427  0.09990  0.80140  1.0000
  C   C168      1.0  0.98618  0.18911  0.98637  1.0000
  H   H161      1.0  0.09508  0.37217  0.96122  1.0000
  H   H162      1.0  0.17024  0.43408  0.83830  1.0000
  C   C169      1.0  0.22353  0.41522  0.87612  1.0000
  N   N12       1.0  0.04714  0.23359  0.83198  1.0000
  C   C170      1.0  0.08846  0.35402  0.95215  1.0000
  C   C171      1.0  0.21613  0.40789  0.83955  1.0000
  C   C172      1.0  0.13841  0.13647  0.95614  1.0000
  H   H163      1.0  0.13469  0.01440  0.96554  1.0000
  H   H164      1.0  0.20459  0.43360  0.77036  1.0000
  H   H165      1.0  0.00032  0.02645  0.80804  1.0000
  Fe  Fe27      1.0  0.01614  0.14275  0.80841  1.0000
  H   H166      1.0  0.08921  0.01444  0.78142  1.0000
  C   C173      1.0  0.04979  0.23772  0.80003  1.0000
  S   S57       1.0  0.15623  0.44854  0.75935  1.0000
  C   C174      1.0  0.22001  0.45135  0.79629  1.0000
  H   H167      1.0  0.02636  0.00291  0.77525  1.0000
  H   H168      1.0  0.08558  0.36248  0.93837  1.0000
  C   C175      1.0  0.06303  0.24241  0.81731  1.0000
  S   S58       1.0  0.00240  0.15132  0.83437  1.0000
  H   H169      1.0  0.99573  0.17086  0.86763  1.0000
  H   H170      1.0  0.26418  0.41267  0.87475  1.0000
  H   H171      1.0  0.00797  0.19165  0.98522  1.0000
  H   H172      1.0  0.04647  0.23366  0.86052  1.0000
  H   H173      1.0  0.14126  0.11703  0.98239  1.0000
  N   N13       1.0  0.06227  0.33037  0.95762  1.0000
  H   H174      1.0  0.00547  0.21170  0.84149  1.0000
  C   C176      1.0  0.13036  0.12789  0.97365  1.0000
  H   H175      1.0  0.98127  0.20236  0.81133  1.0000
  C   C177      1.0  0.04223  0.31466  0.94498  1.0000
  S   S59       1.0  0.02705  0.12855  0.76073  1.0000
  H   H176      1.0  0.04537  0.31974  0.93084  1.0000
  C   C178      1.0  0.01774  0.29129  0.95008  1.0000
  C   C179      1.0  0.19902  0.41518  0.86631  1.0000
  H   H177      1.0  0.08143  0.15709  0.97426  1.0000
  C   C180      1.0  0.01807  0.21974  0.82992  1.0000
  C   C181      1.0  0.21618  0.46652  0.80997  1.0000
  C   C182      1.0  0.09199  0.24553  0.75748  1.0000
  C   C183      1.0  0.01391  0.28397  0.96821  1.0000
  N   N14       1.0  0.12597  0.15173  0.94543  1.0000
  H   H178      1.0  0.14240  0.19116  0.75474  1.0000
  C   C184      1.0  0.10516  0.15836  0.95160  1.0000
  H   H179      1.0  0.06235  0.24465  0.78840  1.0000
  H   H180      1.0  0.15532  0.13163  0.95146  1.0000
  C   C185      1.0  0.02019  0.22352  0.79783  1.0000
  H   H181      1.0  0.09549  0.17053  0.94304  1.0000
  H   H182      1.0  0.01886  0.05352  0.77509  1.0000
  H   H183      1.0  0.04111  0.05344  0.75771  1.0000
  C   C186      1.0  0.11605  0.27046  0.75315  1.0000
  Fe  Fe28      1.0  0.21041  0.48071  0.88894  1.0000
  C   C187      1.0  0.00736  0.99756  0.76629  1.0000
  C   C188      1.0  0.06489  0.24181  0.74985  1.0000
  H   H184      1.0  0.07524  0.33489  0.98541  1.0000
  H   H185      1.0  0.00973  0.21922  0.78450  1.0000
  C   C189      1.0  0.00419  0.21437  0.81285  1.0000
  H   H186      1.0  0.00223  0.27834  0.94006  1.0000
  N   N15       1.0  0.00039  0.01873  0.75775  1.0000
  H   H187      1.0  0.03213  0.29379  0.99509  1.0000
  C   C190      1.0  0.19284  0.47429  0.80856  1.0000
  C   C191      1.0  0.17926  0.18182  0.99352  1.0000
  H   H188      1.0  0.09096  0.15913  0.75330  1.0000
  H   H189      1.0  0.15623  0.47429  0.79199  1.0000
  S   S60       1.0  0.20138  0.16242  0.99495  1.0000
  H   H190      1.0  0.01171  0.06383  0.75250  1.0000
  H   H191      1.0  0.99528  0.26550  0.97230  1.0000
  C   C192      1.0  0.97802  0.01180  0.80744  1.0000
  C   C193      1.0  0.10563  0.95895  0.04092  1.0000
  H   H192      1.0  0.16131  0.96688  0.01967  1.0000
  C   C194      1.0  0.06674  0.91592  0.00122  1.0000
  C   C195      1.0  0.04206  0.89882  0.19501  1.0000
  H   H193      1.0  0.98287  0.90646  0.22598  1.0000
  H   H194      1.0  0.03403  0.89860  0.20832  1.0000
  H   H195      1.0  0.09043  0.91472  0.03441  1.0000
  C   C196      1.0  0.08249  0.94303  0.20358  1.0000
  H   H196      1.0  0.08893  0.97199  0.15454  1.0000
  H   H197      1.0  0.02409  0.94729  0.23930  1.0000
  C   C197      1.0  0.00752  0.94603  0.18802  1.0000
  C   C198      1.0  0.10394  0.96973  0.19941  1.0000
  C   C199      1.0  0.03698  0.96980  0.21404  1.0000
  C   C200      1.0  0.08730  0.96379  0.16833  1.0000
  H   H198      1.0  0.05109  0.88233  0.19521  1.0000
  H   H199      1.0  0.11530  0.95589  0.05391  1.0000
  C   C201      1.0  0.03055  0.96936  0.19555  1.0000
  H   H200      1.0  0.02312  0.89291  0.18528  1.0000
  C   C202      1.0  0.99574  0.92419  0.21747  1.0000
  C   C203      1.0  0.06611  0.93710  0.17295  1.0000
  C   C204      1.0  0.01925  0.94724  0.22498  1.0000
  C   C205      1.0  0.15547  0.97732  0.00786  1.0000
  H   H201      1.0  0.08034  0.93555  0.21748  1.0000
  H   H202      1.0  0.00356  0.94534  0.17363  1.0000
  N   N16       1.0  0.08067  0.93998  0.01305  1.0000
  C   C206      1.0  0.09175  0.93584  0.02976  1.0000
  H   H203      1.0  0.05124  0.92459  0.16254  1.0000
  N   N17       1.0  0.06382  0.92717  0.19043  1.0000
  C   C207      1.0  0.99019  0.92320  0.19889  1.0000
  H   H204      1.0  0.98634  0.98236  0.22224  1.0000
  H   H205      1.0  0.04361  0.91118  0.99892  1.0000
  C   C208      1.0  0.10633  0.98009  0.18167  1.0000
  C   C209      1.0  0.08268  0.96670  0.00711  1.0000
  H   H206      1.0  0.11807  0.98265  0.20998  1.0000
  H   H207      1.0  0.06873  0.89595  0.00685  1.0000
  C   C210      1.0  0.98063  0.81706  0.00040  1.0000
  Fe  Fe29      1.0  0.10786  0.56629  0.44936  1.0000
  S   S61       1.0  0.12314  0.55531  0.47692  1.0000
  S   S62       1.0  0.06039  0.53703  0.44429  1.0000
  Fe  Fe30      1.0  0.16321  0.62113  0.44661  1.0000
  S   S63       1.0  0.18049  0.61426  0.47405  1.0000
  S   S64       1.0  0.19295  0.65913  0.43055  1.0000
  Fe  Fe31      1.0  0.16641  0.56885  0.46630  1.0000
  S   S65       1.0  0.19745  0.54895  0.47674  1.0000
  Fe  Fe32      1.0  0.13597  0.60146  0.48222  1.0000
  S   S66       1.0  0.15067  0.57567  0.43817  1.0000
  S   S67       1.0  0.11945  0.61252  0.45534  1.0000
  Fe  Fe33      1.0  0.36923  0.84586  0.44310  1.0000
  S   S68       1.0  0.40791  0.83757  0.45270  1.0000
  S   S69       1.0  0.37126  0.88467  0.42511  1.0000
  Fe  Fe34      1.0  0.32913  0.79204  0.46377  1.0000
  S   S70       1.0  0.36543  0.78100  0.47567  1.0000
  S   S71       1.0  0.28518  0.76405  0.47303  1.0000
  C   C211      1.0  0.43205  0.88327  0.39756  1.0000
  Fe  Fe35      1.0  0.38065  0.79108  0.44796  1.0000
  S   S72       1.0  0.39269  0.76121  0.43296  1.0000
  S   S73       1.0  0.35136  0.83874  0.47015  1.0000
  S   S74       1.0  0.34320  0.79996  0.43575  1.0000
  H   H208      1.0  0.38005  0.91857  0.45538  1.0000
  H   H209      1.0  0.44336  0.90636  0.39581  1.0000
  Fe  Fe36      1.0  0.40696  0.56878  0.44793  1.0000
  S   S75       1.0  0.42037  0.58571  0.47571  1.0000
  S   S76       1.0  0.44212  0.56187  0.43450  1.0000
  Fe  Fe37      1.0  0.34761  0.57002  0.44963  1.0000
  C   C212      1.0  0.05469  0.55218  0.48957  1.0000
  S   S77       1.0  0.30451  0.56249  0.43522  1.0000
  Fe  Fe38      1.0  0.39915  0.61609  0.46738  1.0000
  S   S78       1.0  0.41643  0.66119  0.47721  1.0000
  H   H210      1.0  0.24709  0.65030  0.43234  1.0000
  H   H211      1.0  0.07391  0.57259  0.48848  1.0000
  S   S79       1.0  0.38890  0.60192  0.43907  1.0000
  S   S80       1.0  0.36461  0.53561  0.45586  1.0000
  C   C213      1.0  0.47296  0.58145  0.38706  1.0000
  C   C214      1.0  0.25518  0.63535  0.44010  1.0000
  H   H212      1.0  0.24949  0.56133  0.42283  1.0000
  C   C215      1.0  0.44173  0.53255  0.42287  1.0000
  H   H213      1.0  0.98354  0.57005  0.36634  1.0000
  C   C216      1.0  0.40286  0.87038  0.39285  1.0000
  H   H214      1.0  0.40484  0.53870  0.37374  1.0000
  H   H215      1.0  0.46881  0.87665  0.40912  1.0000
  C   C217      1.0  0.39858  0.73319  0.44545  1.0000
  C   C218      1.0  0.40762  0.73579  0.46360  1.0000
  C   C219      1.0  0.41337  0.71369  0.47310  1.0000
  C   C220      1.0  0.40945  0.68857  0.46467  1.0000
  C   C221      1.0  0.40008  0.68581  0.44657  1.0000
  C   C222      1.0  0.39495  0.70820  0.43695  1.0000
  H   H216      1.0  0.41081  0.75509  0.47023  1.0000
  N   N18       1.0  0.28254  0.65132  0.44982  1.0000
  H   H217      1.0  0.39723  0.66664  0.43991  1.0000
  H   H218      1.0  0.38809  0.70612  0.42289  1.0000
  C   C223      1.0  0.22835  0.55770  0.46501  1.0000
  C   C224      1.0  0.25403  0.56051  0.47458  1.0000
  C   C225      1.0  0.27797  0.56338  0.46556  1.0000
  C   C226      1.0  0.27631  0.56308  0.44689  1.0000
  C   C227      1.0  0.25096  0.56147  0.43729  1.0000
  C   C228      1.0  0.22709  0.55897  0.44631  1.0000
  H   H219      1.0  0.42077  0.71601  0.48708  1.0000
  H   H220      1.0  0.29718  0.56442  0.47316  1.0000
  H   H221      1.0  0.31436  0.71024  0.47454  1.0000
  H   H222      1.0  0.25305  0.50295  0.43491  1.0000
  C   C229      1.0  0.21818  0.68868  0.44226  1.0000
  C   C230      1.0  0.21562  0.69207  0.46024  1.0000
  C   C231      1.0  0.23622  0.71538  0.46939  1.0000
  C   C232      1.0  0.25981  0.73535  0.46076  1.0000
  C   C233      1.0  0.26251  0.73195  0.44277  1.0000
  C   C234      1.0  0.24160  0.70885  0.43352  1.0000
  H   H223      1.0  0.19746  0.67707  0.46703  1.0000
  H   H224      1.0  0.23383  0.71801  0.48323  1.0000
  H   H225      1.0  0.28047  0.74729  0.43594  1.0000
  H   H226      1.0  0.24367  0.70649  0.41958  1.0000
  H   H227      1.0  0.43206  0.58035  0.39269  1.0000
  C   C235      1.0  0.42825  0.92103  0.43179  1.0000
  C   C236      1.0  0.40225  0.91678  0.42228  1.0000
  C   C237      1.0  0.40070  0.93855  0.41014  1.0000
  C   C238      1.0  0.28585  0.67513  0.45862  1.0000
  H   H228      1.0  0.42991  0.90439  0.44101  1.0000
  C   C239      1.0  0.44325  0.57101  0.38527  1.0000
  Fe  Fe39      1.0  0.38887  0.82832  0.47950  1.0000
  C   C240      1.0  0.04381  0.53260  0.40771  1.0000
  C   C241      1.0  0.03595  0.52457  0.42530  1.0000
  H   H229      1.0  0.42330  0.98087  0.39812  1.0000
  H   H230      1.0  0.29415  0.49930  0.45184  1.0000
  H   H231      1.0  0.06568  0.54641  0.40528  1.0000
  H   H232      1.0  0.01421  0.57390  0.42149  1.0000
  H   H233      1.0  0.42118  0.89740  0.47488  1.0000
  C   C242      1.0  0.44626  0.86635  0.40513  1.0000
  C   C243      1.0  0.38820  0.84093  0.39590  1.0000
  C   C244      1.0  0.44272  0.53472  0.36615  1.0000
  H   H234      1.0  0.44405  0.81690  0.43048  1.0000
  N   N19       1.0  0.38981  0.91033  0.48286  1.0000
  C   C245      1.0  0.41755  0.49147  0.40417  1.0000
  H   H235      1.0  0.32859  0.90361  0.45883  1.0000
  C   C246      1.0  0.00736  0.50646  0.42814  1.0000
  C   C247      1.0  0.40313  0.82461  0.40331  1.0000
  C   C248      1.0  0.44381  0.49136  0.40020  1.0000
  H   H236      1.0  0.39149  0.80174  0.40577  1.0000
  C   C249      1.0  0.31167  0.69089  0.46800  1.0000
  H   H237      1.0  0.30164  0.62294  0.44378  1.0000
  C   C250      1.0  0.33010  0.65679  0.46022  1.0000
  C   C251      1.0  0.98682  0.49666  0.41366  1.0000
  H   H238      1.0  0.26849  0.68211  0.45837  1.0000
  H   H239      1.0  0.32192  0.50524  0.48108  1.0000
  C   C252      1.0  0.42799  0.54759  0.37469  1.0000
  H   H240      1.0  0.30922  0.88626  0.48874  1.0000
  C   C253      1.0  0.99459  0.50489  0.39608  1.0000
  H   H241      1.0  0.02368  0.58571  0.38944  1.0000
  H   H242      1.0  0.23908  0.62227  0.44966  1.0000
  C   C254      1.0  0.34275  0.90333  0.47042  1.0000
  C   C255      1.0  0.42483  0.96433  0.40751  1.0000
  H   H243      1.0  0.38070  0.93551  0.40268  1.0000
  H   H244      1.0  0.36529  0.83094  0.39294  1.0000
  C   C256      1.0  0.28376  0.49850  0.46397  1.0000
  Fe  Fe40      1.0  0.37704  0.55476  0.48298  1.0000
  N   N20       1.0  0.43186  0.83732  0.40761  1.0000
  H   H245      1.0  0.39616  0.51233  0.41793  1.0000
  C   C257      1.0  0.99657  0.56823  0.41136  1.0000
  H   H246      1.0  0.20733  0.55670  0.43879  1.0000
  H   H247      1.0  0.25715  0.62095  0.43037  1.0000
  H   H248      1.0  0.02957  0.52915  0.37968  1.0000
  C   C258      1.0  0.30419  0.64192  0.45063  1.0000
  C   C259      1.0  0.02326  0.52271  0.39322  1.0000
  S   S81       1.0  0.35695  0.58636  0.47727  1.0000
  H   H249      1.0  0.22061  0.49153  0.47775  1.0000
  C   C260      1.0  0.33388  0.68156  0.46882  1.0000
  H   H250      1.0  0.34722  0.64926  0.46090  1.0000
  C   C261      1.0  0.41646  0.51186  0.41551  1.0000
  C   C262      1.0  0.45231  0.94685  0.42926  1.0000
  H   H251      1.0  0.43060  0.51564  0.35868  1.0000
  H   H252      1.0  0.25519  0.55961  0.48905  1.0000
  C   C263      1.0  0.28694  0.50232  0.49599  1.0000
  H   H253      1.0  0.39136  0.88340  0.38756  1.0000
  H   H254      1.0  0.35399  0.69347  0.47611  1.0000
  H   H255      1.0  0.22184  0.49827  0.44575  1.0000
  H   H256      1.0  0.42866  0.93507  0.47054  1.0000
  C   C264      1.0  0.37193  0.91169  0.46851  1.0000
  C   C265      1.0  0.45080  0.96867  0.41712  1.0000
  H   H257      1.0  0.00100  0.49995  0.44165  1.0000
  H   H258      1.0  0.03782  0.55311  0.47949  1.0000
  H   H259      1.0  0.47008  0.82996  0.41370  1.0000
  C   C266      1.0  0.44692  0.81992  0.41586  1.0000
  C   C267      1.0  0.29969  0.50219  0.48040  1.0000
  H   H260      1.0  0.06094  0.53479  0.48604  1.0000
  C   C268      1.0  0.33192  0.89354  0.48716  1.0000
  C   C269      1.0  0.00190  0.57488  0.39334  1.0000
  C   C270      1.0  0.24277  0.49413  0.47842  1.0000
  H   H261      1.0  0.43824  0.79831  0.41011  1.0000
  N   N21       1.0  0.25573  0.49480  0.46313  1.0000
  C   C271      1.0  0.41972  0.91655  0.48016  1.0000
  C   C272      1.0  0.23926  0.49050  0.44581  1.0000
  H   H262      1.0  0.47232  0.94994  0.43671  1.0000
  C   C273      1.0  0.46901  0.51109  0.40829  1.0000
  C   C274      1.0  0.46793  0.53164  0.41948  1.0000
  H   H263      1.0  0.43320  0.92158  0.49291  1.0000
  C   C275      1.0  0.97912  0.56597  0.38035  1.0000
  H   H264      1.0  0.47277  0.51368  0.35074  1.0000
  N   N22       1.0  0.47190  0.54511  0.36797  1.0000
  C   C276      1.0  0.25824  0.49817  0.49505  1.0000
  H   H265      1.0  0.20641  0.49821  0.74056  1.0000
  H   H266      1.0  0.17131  0.59253  0.56528  1.0000
  Fe  Fe41      1.0  0.19621  0.81156  0.68296  1.0000
  S   S82       1.0  0.20503  0.77686  0.69907  1.0000
  S   S83       1.0  0.22140  0.83339  0.65855  1.0000
  Fe  Fe42      1.0  0.14197  0.79983  0.70251  1.0000
  S   S84       1.0  0.14650  0.76323  0.71916  1.0000
  S   S85       1.0  0.10334  0.80899  0.70782  1.0000
  Fe  Fe43      1.0  0.19249  0.79303  0.72258  1.0000
  Fe  Fe44      1.0  0.15812  0.74975  0.69418  1.0000
  S   S86       1.0  0.14844  0.70320  0.68827  1.0000
  S   S87       1.0  0.18770  0.83042  0.70699  1.0000
  S   S88       1.0  0.14948  0.78366  0.67694  1.0000
  Fe  Fe45      1.0  0.38823  0.89122  0.59399  1.0000
  S   S89       1.0  0.43337  0.92319  0.59238  1.0000
  S   S90       1.0  0.36208  0.86055  0.57260  1.0000
  Fe  Fe46      1.0  0.38267  0.90866  0.63105  1.0000
  S   S91       1.0  0.42778  0.94260  0.63229  1.0000
  S   S92       1.0  0.35634  0.90098  0.65529  1.0000
  Fe  Fe47      1.0  0.41860  0.95431  0.60354  1.0000
  Fe  Fe48      1.0  0.43906  0.90890  0.62112  1.0000
  H   H267      1.0  0.41256  0.62513  0.64837  1.0000
  S   S93       1.0  0.37251  0.92277  0.60331  1.0000
  S   S94       1.0  0.39490  0.87452  0.62180  1.0000
  Fe  Fe49      1.0  0.04894  0.52314  0.63294  1.0000
  S   S95       1.0  0.01913  0.54623  0.62880  1.0000
  H   H268      1.0  0.44885  0.64680  0.60549  1.0000
  Fe  Fe50      1.0  0.07330  0.54406  0.59706  1.0000
  S   S96       1.0  0.04675  0.56952  0.59052  1.0000
  S   S97       1.0  0.10095  0.53801  0.57739  1.0000
  Fe  Fe51      1.0  0.05764  0.58325  0.61899  1.0000
  S   S98       1.0  0.06580  0.62902  0.62560  1.0000
  H   H269      1.0  0.14987  0.90003  0.73917  1.0000
  S   S99       1.0  0.08772  0.56110  0.62465  1.0000
  S   S100      1.0  0.03671  0.50413  0.60577  1.0000
  S   S101      1.0  0.38945  0.56473  0.63175  1.0000
  S   S102      1.0  0.44738  0.55647  0.62161  1.0000
  Fe  Fe52      1.0  0.42779  0.56051  0.64647  1.0000
  H   H270      1.0  0.45839  0.70779  0.67053  1.0000
  Fe  Fe53      1.0  0.40726  0.55732  0.60726  1.0000
  S   S103      1.0  0.41096  0.58541  0.58210  1.0000
  H   H271      1.0  0.16851  0.63691  0.55558  1.0000
  N   N23       1.0  0.44867  0.53368  0.55857  1.0000
  C   C277      1.0  0.01994  0.51473  0.53133  1.0000
  H   H272      1.0  0.08548  0.64192  0.70072  1.0000
  C   C278      1.0  0.45877  0.85714  0.58755  1.0000
  H   H273      1.0  0.44339  0.52506  0.58650  1.0000
  H   H274      1.0  0.27323  0.48727  0.74046  1.0000
  N   N24       1.0  0.04431  0.54725  0.50760  1.0000
  N   N25       1.0  0.43708  0.83731  0.59908  1.0000
  H   H275      1.0  0.39354  0.90003  0.51074  1.0000
  C   C279      1.0  0.07706  0.62277  0.69293  1.0000
  H   H276      1.0  0.43704  0.86995  0.65615  1.0000
  S   S104      1.0  0.32041  0.49292  0.63895  1.0000
  C   C280      1.0  0.12551  0.68315  0.67066  1.0000
  C   C281      1.0  0.10527  0.69164  0.66121  1.0000
  C   C282      1.0  0.08701  0.67465  0.64757  1.0000
  C   C283      1.0  0.08892  0.64917  0.64313  1.0000
  C   C284      1.0  0.10937  0.64081  0.65245  1.0000
  C   C285      1.0  0.12752  0.65772  0.66618  1.0000
  H   H277      1.0  0.10348  0.71113  0.66456  1.0000
  H   H278      1.0  0.07118  0.68122  0.64046  1.0000
  H   H279      1.0  0.11117  0.62135  0.64910  1.0000
  H   H280      1.0  0.14321  0.65107  0.67340  1.0000
  C   C286      1.0  0.25917  0.85053  0.65805  1.0000
  C   C287      1.0  0.27151  0.85702  0.64142  1.0000
  C   C288      1.0  0.30131  0.87149  0.64036  1.0000
  C   C289      1.0  0.31906  0.88018  0.65595  1.0000
  C   C290      1.0  0.30672  0.87373  0.67256  1.0000
  C   C291      1.0  0.27699  0.85874  0.67364  1.0000
  H   H281      1.0  0.25792  0.85083  0.62927  1.0000
  H   H282      1.0  0.31047  0.87640  0.62748  1.0000
  H   H283      1.0  0.32023  0.88046  0.68470  1.0000
  H   H284      1.0  0.26782  0.85408  0.68652  1.0000
  C   C292      1.0  0.10440  0.83741  0.72070  1.0000
  H   H285      1.0  0.19886  0.58382  0.50531  1.0000
  H   H286      1.0  0.05803  0.59186  0.51194  1.0000
  C   C293      1.0  0.45518  0.86416  0.65879  1.0000
  C   C294      1.0  0.37943  0.90119  0.49937  1.0000
  C   C295      1.0  0.17787  0.59098  0.55219  1.0000
  C   C296      1.0  0.30871  0.94501  0.61925  1.0000
  H   H287      1.0  0.10738  0.60646  0.70489  1.0000
  H   H288      1.0  0.17355  0.54728  0.55760  1.0000
  C   C297      1.0  0.37835  0.54248  0.52832  1.0000
  C   C298      1.0  0.37507  0.52569  0.54426  1.0000
  C   C299      1.0  0.38453  0.53868  0.56081  1.0000
  C   C300      1.0  0.39725  0.56856  0.56157  1.0000
  C   C301      1.0  0.40021  0.58537  0.54562  1.0000
  C   C302      1.0  0.39082  0.57239  0.52903  1.0000
  C   C303      1.0  0.42773  0.64722  0.64683  1.0000
  H   H289      1.0  0.41004  0.60852  0.54606  1.0000
  H   H290      1.0  0.39353  0.58556  0.51679  1.0000
  C   C304      1.0  0.40243  0.85267  0.52234  1.0000
  C   C305      1.0  0.37309  0.83799  0.52406  1.0000
  C   C306      1.0  0.36090  0.84080  0.53947  1.0000
  C   C307      1.0  0.37787  0.85857  0.55310  1.0000
  C   C308      1.0  0.40715  0.87353  0.55125  1.0000
  C   C309      1.0  0.41941  0.87040  0.53598  1.0000
  H   H291      1.0  0.35982  0.82435  0.51357  1.0000
  H   H292      1.0  0.33825  0.82905  0.54087  1.0000
  H   H293      1.0  0.42039  0.88730  0.56163  1.0000
  H   H294      1.0  0.44209  0.88200  0.53462  1.0000
  C   C310      1.0  0.10452  0.55875  0.55735  1.0000
  C   C311      1.0  0.10387  0.58594  0.55696  1.0000
  C   C312      1.0  0.10980  0.60344  0.54127  1.0000
  C   C313      1.0  0.11631  0.59380  0.52592  1.0000
  C   C314      1.0  0.11607  0.56627  0.52615  1.0000
  C   C315      1.0  0.11024  0.54880  0.54186  1.0000
  H   H295      1.0  0.09971  0.59384  0.56892  1.0000
  H   H296      1.0  0.10984  0.62471  0.54112  1.0000
  H   H297      1.0  0.12119  0.55869  0.51445  1.0000
  H   H298      1.0  0.11080  0.52777  0.54213  1.0000
  N   N26       1.0  0.14479  0.72469  0.62363  1.0000
  C   C316      1.0  0.15015  0.75318  0.62425  1.0000
  C   C317      1.0  0.16029  0.71296  0.63471  1.0000
  C   C318      1.0  0.17144  0.77068  0.63623  1.0000
  C   C319      1.0  0.18144  0.72977  0.64705  1.0000
  C   C320      1.0  0.18708  0.75882  0.64772  1.0000
  C   C321      1.0  0.12242  0.70696  0.61084  1.0000
  H   H299      1.0  0.13784  0.76251  0.61553  1.0000
  H   H300      1.0  0.15588  0.69033  0.63444  1.0000
  H   H301      1.0  0.17561  0.79326  0.63681  1.0000
  H   H302      1.0  0.19289  0.72022  0.65636  1.0000
  H   H303      1.0  0.20336  0.77210  0.65727  1.0000
  H   H304      1.0  0.10181  0.70838  0.61284  1.0000
  H   H305      1.0  0.12838  0.71425  0.59692  1.0000
  H   H306      1.0  0.11869  0.68388  0.61258  1.0000
  H   H307      1.0  0.38214  0.52548  0.57290  1.0000
  C   C322      1.0  0.43260  0.66572  0.66079  1.0000
  H   H308      1.0  0.20431  0.65603  0.54825  1.0000
  C   C323      1.0  0.39577  0.80342  0.62210  1.0000
  C   C324      1.0  0.43244  0.49700  0.53698  1.0000
  C   C325      1.0  0.03057  0.51981  0.51430  1.0000
  C   C326      1.0  0.05457  0.61867  0.68005  1.0000
  H   H309      1.0  0.41495  0.62521  0.61391  1.0000
  H   H310      1.0  0.18726  0.54268  0.52726  1.0000
  C   C327      1.0  0.46336  0.68371  0.63048  1.0000
  H   H311      1.0  0.46116  0.62980  0.69769  1.0000
  H   H312      1.0  0.03967  0.58389  0.54219  1.0000
  H   H313      1.0  0.02769  0.59158  0.65925  1.0000
  C   C328      1.0  0.38774  0.81078  0.60484  1.0000
  C   C329      1.0  0.17912  0.56525  0.54793  1.0000
  H   H314      1.0  0.44253  0.56209  0.51704  1.0000
  C   C330      1.0  0.43811  0.63611  0.61783  1.0000
  C   C331      1.0  0.04465  0.59456  0.66964  1.0000
  H   H315      1.0  0.07733  0.53730  0.69195  1.0000
  H   H316      1.0  0.05896  0.85762  0.74161  1.0000
  C   C332      1.0  0.18250  0.64029  0.54441  1.0000
  Fe  Fe54      1.0  0.42152  0.50887  0.62486  1.0000
  C   C333      1.0  0.19301  0.58570  0.51854  1.0000
  C   C334      1.0  0.07881  0.83672  0.72659  1.0000
  C   C335      1.0  0.34555  0.95906  0.64321  1.0000
  H   H317      1.0  0.28692  0.93228  0.61447  1.0000
  H   H318      1.0  0.33986  0.49379  0.67698  1.0000
  C   C336      1.0  0.43314  0.51742  0.52339  1.0000
  H   H319      1.0  0.35210  0.95687  0.65719  1.0000
  C   C337      1.0  0.44058  0.50560  0.55461  1.0000
  H   H320      1.0  0.24814  0.49850  0.50707  1.0000
  C   C338      1.0  0.08953  0.60273  0.69510  1.0000
  C   C339      1.0  0.03686  0.56577  0.53437  1.0000
  Fe  Fe55      1.0  0.01032  0.53047  0.60069  1.0000
  H   H321      1.0  0.04974  0.55615  0.66416  1.0000
  H   H322      1.0  0.45337  0.56183  0.57945  1.0000
  H   H323      1.0  0.08872  0.48876  0.63657  1.0000
  H   H324      1.0  0.36535  0.80419  0.60041  1.0000
  C   C340      1.0  0.12996  0.88228  0.73578  1.0000
  H   H325      1.0  0.00915  0.49299  0.53669  1.0000
  N   N27       1.0  0.07977  0.57923  0.68474  1.0000
  H   H326      1.0  0.46754  0.83801  0.62049  1.0000
  H   H327      1.0  0.42138  0.65798  0.67292  1.0000
  S   S105      1.0  0.38262  0.50991  0.60920  1.0000
  H   H328      1.0  0.37965  0.79088  0.63125  1.0000
  C   C341      1.0  0.13002  0.86030  0.72542  1.0000
  S   S106      1.0  0.12571  0.61715  0.50699  1.0000
  C   C342      1.0  0.42467  0.81290  0.62766  1.0000
  H   H329      1.0  0.46399  0.77244  0.72720  1.0000
  C   C343      1.0  0.45956  0.77875  0.73969  1.0000
  H   H330      1.0  0.30211  0.92920  0.64662  1.0000
  C   C344      1.0  0.44515  0.82997  0.61591  1.0000
  H   H331      1.0  0.43738  0.83560  0.68129  1.0000
  C   C345      1.0  0.45674  0.54215  0.57714  1.0000
  S   S107      1.0  0.44696  0.58925  0.67024  1.0000
  Fe  Fe56      1.0  0.36806  0.51678  0.63518  1.0000
  C   C346      1.0  0.47465  0.64042  0.68683  1.0000
  H   H332      1.0  0.36557  0.50256  0.54379  1.0000
  C   C347      1.0  0.45540  0.84463  0.67301  1.0000
  C   C348      1.0  0.44249  0.54616  0.52748  1.0000
  C   C349      1.0  0.32849  0.96286  0.60740  1.0000
  H   H333      1.0  0.45655  0.57623  0.54840  1.0000
  H   H334      1.0  0.11222  0.56531  0.69628  1.0000
  C   C350      1.0  0.35038  0.89259  0.50178  1.0000
  C   C351      1.0  0.45333  0.69364  0.65944  1.0000
  H   H335      1.0  0.47622  0.69069  0.61898  1.0000
  C   C352      1.0  0.05746  0.57485  0.67228  1.0000
  H   H336      1.0  0.44635  0.61961  0.62275  1.0000
  C   C353      1.0  0.46885  0.70274  0.64421  1.0000
  H   H337      1.0  0.45133  0.85452  0.57316  1.0000
  S   S108      1.0  0.36839  0.52544  0.50774  1.0000
  S   S109      1.0  0.40523  0.51240  0.65125  1.0000
  C   C354      1.0  0.18663  0.56262  0.53094  1.0000
  C   C355      1.0  0.45023  0.55397  0.54526  1.0000
  C   C356      1.0  0.09293  0.55831  0.68688  1.0000
  C   C357      1.0  0.04717  0.57009  0.51728  1.0000
  N   N28       1.0  0.44289  0.65639  0.63187  1.0000
  C   C358      1.0  0.10443  0.88145  0.74182  1.0000
  C   C359      1.0  0.40881  0.82785  0.59347  1.0000
  H   H338      1.0  0.40234  0.83386  0.58024  1.0000
  C   C360      1.0  0.07882  0.85845  0.73722  1.0000
  H   H339      1.0  0.40142  0.97960  0.64880  1.0000
  S   S110      1.0  0.05190  0.50015  0.65967  1.0000
  H   H340      1.0  0.14985  0.86124  0.72093  1.0000
  N   N29       1.0  0.18363  0.61332  0.53980  1.0000
  H   H341      1.0  0.17332  0.64942  0.53282  1.0000
  H   H342      1.0  0.43126  0.80787  0.64117  1.0000
  C   C361      1.0  0.19141  0.61105  0.52321  1.0000
  C   C362      1.0  0.02321  0.53790  0.54142  1.0000
  S   S111      1.0  0.41819  0.85097  0.50284  1.0000
  H   H343      1.0  0.04540  0.63457  0.67777  1.0000
  H   H344      1.0  0.19586  0.62874  0.51337  1.0000
  H   H345      1.0  0.24274  0.48762  0.72720  1.0000
  C   C363      1.0  0.31717  0.94331  0.63730  1.0000
  H   H346      1.0  0.09940  0.55500  0.67375  1.0000
  H   H347      1.0  0.05885  0.81922  0.72293  1.0000
  H   H348      1.0  0.01509  0.53424  0.55466  1.0000
  H   H349      1.0  0.10851  0.78263  0.74725  1.0000
  H   H350      1.0  0.42595  0.51104  0.50973  1.0000
  H   H351      1.0  0.32224  0.96427  0.59330  1.0000
  C   C364      1.0  0.47258  0.62522  0.67150  1.0000
  H   H352      1.0  0.34223  0.88461  0.51484  1.0000
  H   H353      1.0  0.46374  0.87957  0.59101  1.0000
  H   H354      1.0  0.29947  0.50583  0.50872  1.0000
  C   C365      1.0  0.46735  0.80768  0.74266  1.0000
  N   N30       1.0  0.36501  0.97586  0.63143  1.0000
  H   H355      1.0  0.44005  0.48964  0.56514  1.0000
  C   C366      1.0  0.35668  0.97846  0.61380  1.0000
  H   H356      1.0  0.02780  0.50169  0.50648  1.0000
  H   H357      1.0  0.24314  0.75474  0.75314  1.0000
  C   C367      1.0  0.27119  0.62103  0.89793  1.0000
  S   S112      1.0  0.01883  0.90783  0.80735  1.0000
  Fe  Fe57      1.0  0.07067  0.90900  0.77212  1.0000
  S   S113      1.0  0.03362  0.86890  0.77992  1.0000
  C   C368      1.0  0.46172  0.81564  0.75881  1.0000
  Fe  Fe58      1.0  0.00881  0.89718  0.77850  1.0000
  Fe  Fe59      1.0  0.04723  0.88390  0.80804  1.0000
  S   S114      1.0  0.05861  0.85881  0.83122  1.0000
  S   S115      1.0  0.04505  0.93651  0.76847  1.0000
  S   S116      1.0  0.08536  0.92270  0.80042  1.0000
  Fe  Fe60      1.0  0.04109  0.85351  0.97211  1.0000
  S   S117      1.0  0.08911  0.86933  0.97651  1.0000
  H   H358      1.0  0.44413  0.80075  0.78436  1.0000
  Fe  Fe61      1.0  0.04496  0.86606  0.93161  1.0000
  S   S118      1.0  0.09271  0.88314  0.93293  1.0000
  S   S119      1.0  0.01715  0.86632  0.90669  1.0000
  Fe  Fe62      1.0  0.08673  0.84515  0.95180  1.0000
  S   S120      1.0  0.10879  0.81439  0.95035  1.0000
  Fe  Fe63      1.0  0.09118  0.90596  0.95724  1.0000
  S   S121      1.0  0.11427  0.95454  0.95869  1.0000
  S   S122      1.0  0.03850  0.82653  0.94905  1.0000
  S   S123      1.0  0.04364  0.89157  0.95422  1.0000
  Fe  Fe64      1.0  0.20416  0.53114  0.86658  1.0000
  S   S124      1.0  0.18062  0.55929  0.85681  1.0000
  S   S125      1.0  0.30229  0.57156  0.89487  1.0000
  S   S126      1.0  0.24579  0.54350  0.85398  1.0000
  H   H359      1.0  0.27543  0.60653  0.90795  1.0000
  Fe  Fe65      1.0  0.42463  0.75544  0.87879  1.0000
  S   S127      1.0  0.43688  0.72008  0.89127  1.0000
  S   S128      1.0  0.39193  0.76303  0.89369  1.0000
  Fe  Fe66      1.0  0.43063  0.70546  0.86324  1.0000
  S   S129      1.0  0.40822  0.65947  0.85496  1.0000
  S   S130      1.0  0.41622  0.73923  0.85096  1.0000
  Fe  Fe67      1.0  0.18539  0.73565  0.84435  1.0000
  S   S131      1.0  0.16314  0.72280  0.87003  1.0000
  S   S132      1.0  0.16181  0.72418  0.81735  1.0000
  Fe  Fe68      1.0  0.24415  0.76503  0.86320  1.0000
  S   S133      1.0  0.22711  0.75574  0.89048  1.0000
  S   S134      1.0  0.28922  0.78888  0.85487  1.0000
  Fe  Fe69      1.0  0.20050  0.71174  0.87996  1.0000
  S   S135      1.0  0.20006  0.67260  0.89643  1.0000
  Fe  Fe70      1.0  0.19105  0.76760  0.87844  1.0000
  S   S136      1.0  0.17570  0.80161  0.88596  1.0000
  S   S137      1.0  0.22008  0.72069  0.85356  1.0000
  S   S138      1.0  0.21092  0.78077  0.85190  1.0000
  C   C369      1.0  0.36269  0.76814  0.88216  1.0000
  C   C370      1.0  0.36350  0.77793  0.86425  1.0000
  C   C371      1.0  0.34065  0.78385  0.85590  1.0000
  C   C372      1.0  0.31648  0.77908  0.86521  1.0000
  C   C373      1.0  0.31522  0.76835  0.88292  1.0000
  C   C374      1.0  0.33852  0.76348  0.89146  1.0000
  H   H360      1.0  0.38216  0.78188  0.85705  1.0000
  H   H361      1.0  0.34188  0.79241  0.84225  1.0000
  H   H362      1.0  0.29679  0.76479  0.89024  1.0000
  H   H363      1.0  0.33797  0.75621  0.90538  1.0000
  C   C375      1.0  0.32817  0.59751  0.88173  1.0000
  C   C376      1.0  0.33617  0.59016  0.86613  1.0000
  C   C377      1.0  0.36011  0.60983  0.85758  1.0000
  C   C378      1.0  0.37582  0.63714  0.86434  1.0000
  C   C379      1.0  0.36685  0.64504  0.87937  1.0000
  C   C380      1.0  0.34326  0.62517  0.88813  1.0000
  H   H364      1.0  0.32479  0.56885  0.86116  1.0000
  H   H365      1.0  0.36694  0.60358  0.84596  1.0000
  H   H366      1.0  0.37877  0.66602  0.88468  1.0000
  H   H367      1.0  0.33727  0.63098  0.90023  1.0000
  C   C381      1.0  0.18585  0.59047  0.86813  1.0000
  C   C382      1.0  0.19446  0.59311  0.88636  1.0000
  C   C383      1.0  0.19827  0.61818  0.89495  1.0000
  C   C384      1.0  0.19388  0.64094  0.88537  1.0000
  C   C385      1.0  0.18536  0.63833  0.86714  1.0000
  C   C386      1.0  0.18110  0.61309  0.85862  1.0000
  H   H368      1.0  0.19784  0.57570  0.89388  1.0000
  H   H369      1.0  0.20469  0.61994  0.90908  1.0000
  H   H370      1.0  0.18154  0.65554  0.85966  1.0000
  H   H371      1.0  0.17410  0.61106  0.84458  1.0000
  C   C387      1.0  0.12850  0.81199  0.93271  1.0000
  C   C388      1.0  0.13803  0.78956  0.93339  1.0000
  C   C389      1.0  0.15241  0.78590  0.91921  1.0000
  C   C390      1.0  0.15776  0.80493  0.90429  1.0000
  C   C391      1.0  0.14852  0.82753  0.90370  1.0000
  C   C392      1.0  0.13381  0.83096  0.91775  1.0000
  H   H372      1.0  0.13393  0.77471  0.94488  1.0000
  H   H373      1.0  0.15935  0.76839  0.91987  1.0000
  H   H374      1.0  0.15256  0.84241  0.89222  1.0000
  H   H375      1.0  0.12654  0.84824  0.91700  1.0000
  C   C393      1.0  0.20683  0.70688  0.78531  1.0000
  H   H376      1.0  0.12199  0.93976  0.90468  1.0000
  C   C394      1.0  0.10085  0.84807  0.78355  1.0000
  C   C395      1.0  0.26258  0.50607  0.76957  1.0000
  C   C396      1.0  0.10389  0.81248  0.76449  1.0000
  C   C397      1.0  0.22426  0.72015  0.80021  1.0000
  C   C398      1.0  0.04803  0.86299  0.85205  1.0000
  C   C399      1.0  0.02223  0.86570  0.85337  1.0000
  C   C400      1.0  0.01309  0.86691  0.87023  1.0000
  C   C401      1.0  0.02994  0.86595  0.88582  1.0000
  C   C402      1.0  0.05631  0.86441  0.88447  1.0000
  C   C403      1.0  0.06519  0.86261  0.86761  1.0000
  H   H377      1.0  0.00881  0.86581  0.84142  1.0000
  H   H378      1.0  0.11970  0.93886  0.87155  1.0000
  H   H379      1.0  0.06943  0.86367  0.89642  1.0000
  H   H380      1.0  0.08524  0.86060  0.86663  1.0000
  C   C404      1.0  0.19926  0.78157  0.76850  1.0000
  C   C405      1.0  0.17394  0.75705  0.76668  1.0000
  C   C406      1.0  0.16188  0.74032  0.78187  1.0000
  C   C407      1.0  0.17515  0.74787  0.79894  1.0000
  C   C408      1.0  0.19992  0.77294  0.80082  1.0000
  C   C409      1.0  0.21195  0.78973  0.78564  1.0000
  H   H381      1.0  0.28063  0.49996  0.77165  1.0000
  H   H382      1.0  0.14274  0.72090  0.78033  1.0000
  H   H383      1.0  0.21022  0.77903  0.81390  1.0000
  H   H384      1.0  0.23151  0.80872  0.78713  1.0000
  H   H385      1.0  0.05435  0.92871  0.84250  1.0000
  N   N31       1.0  0.25456  0.84061  0.88773  1.0000
  C   C410      1.0  0.24538  0.83093  0.90448  1.0000
  C   C411      1.0  0.27761  0.83712  0.88214  1.0000
  C   C412      1.0  0.25992  0.81810  0.91629  1.0000
  C   C413      1.0  0.29281  0.82468  0.89367  1.0000
  C   C414      1.0  0.28389  0.81512  0.91084  1.0000
  C   C415      1.0  0.23925  0.85401  0.87540  1.0000
  H   H386      1.0  0.22652  0.83277  0.90874  1.0000
  H   H387      1.0  0.28426  0.84370  0.86863  1.0000
  H   H388      1.0  0.25236  0.81020  0.92947  1.0000
  H   H389      1.0  0.31111  0.82204  0.88913  1.0000
  H   H390      1.0  0.29526  0.80500  0.91978  1.0000
  H   H391      1.0  0.25445  0.87360  0.86864  1.0000
  H   H392      1.0  0.22603  0.83862  0.86517  1.0000
  H   H393      1.0  0.22461  0.86030  0.88248  1.0000
  C   C416      1.0  0.46524  0.66519  0.89108  1.0000
  H   H394      1.0  0.36781  0.58862  0.91553  1.0000
  H   H395      1.0  0.43949  0.66968  0.91962  1.0000
  C   C417      1.0  0.14667  0.85059  0.77444  1.0000
  C   C418      1.0  0.16287  0.83996  0.76541  1.0000
  H   H396      1.0  0.27332  0.77726  0.77986  1.0000
  S   S139      1.0  0.25342  0.49094  0.87845  1.0000
  C   C419      1.0  0.26537  0.75904  0.81402  1.0000
  N   N32       1.0  0.24828  0.74469  0.79816  1.0000
  C   C420      1.0  0.10297  0.93905  0.89675  1.0000
  C   C421      1.0  0.05512  0.93726  0.89497  1.0000
  C   C422      1.0  0.21394  0.71905  0.76824  1.0000
  S   S140      1.0  0.10578  0.90939  0.75524  1.0000
  N   N33       1.0  0.26840  0.66630  0.88977  1.0000
  C   C423      1.0  0.25991  0.65803  0.87254  1.0000
  C   C424      1.0  0.27418  0.64828  0.90238  1.0000
  C   C425      1.0  0.27230  0.69493  0.89481  1.0000
  H   H397      1.0  0.25479  0.67207  0.86263  1.0000
  C   C426      1.0  0.07661  0.93734  0.84855  1.0000
  H   H398      1.0  0.26264  0.70557  0.88441  1.0000
  H   H399      1.0  0.26154  0.69341  0.90730  1.0000
  H   H400      1.0  0.29541  0.70845  0.89692  1.0000
  C   C427      1.0  0.21520  0.51975  0.76527  1.0000
  H   H401      1.0  0.39443  0.63418  0.93116  1.0000
  C   C428      1.0  0.23320  0.52731  0.78079  1.0000
  C   C429      1.0  0.14908  0.81527  0.75569  1.0000
  Fe  Fe71      1.0  0.23252  0.49623  0.85165  1.0000
  C   C430      1.0  0.25678  0.63092  0.86763  1.0000
  H   H402      1.0  0.01896  0.80009  0.90942  1.0000
  H   H403      1.0  0.28775  0.77274  0.81100  1.0000
  C   C431      1.0  0.05303  0.78512  0.91249  1.0000
  Fe  Fe72      1.0  0.26283  0.53736  0.88174  1.0000
  S   S141      1.0  0.22170  0.52717  0.89462  1.0000
  H   H404      1.0  0.24911  0.62388  0.85415  1.0000
  Fe  Fe73      1.0  0.05612  0.94589  0.79754  1.0000
  C   C432      1.0  0.26249  0.61241  0.88044  1.0000
  N   N34       1.0  0.44075  0.76605  0.76873  1.0000
  H   H405      1.0  0.25969  0.59119  0.87693  1.0000
  H   H406      1.0  0.08080  0.80190  0.76371  1.0000
  S   S142      1.0  0.47031  0.78576  0.87488  1.0000
  C   C433      1.0  0.07211  0.77830  0.90351  1.0000
  H   H407      1.0  0.08704  0.77116  0.91130  1.0000
  S   S143      1.0  0.01350  0.84607  0.99584  1.0000
  C   C434      1.0  0.03358  0.79423  0.90265  1.0000
  H   H408      1.0  0.28091  0.65486  0.91602  1.0000
  H   H409      1.0  0.15747  0.87009  0.78170  1.0000
  C   C435      1.0  0.03344  0.79635  0.88401  1.0000
  N   N35       1.0  0.11753  0.83699  0.77376  1.0000
  N   N36       1.0  0.07230  0.78113  0.88526  1.0000
  H   H410      1.0  0.99269  0.86815  0.87122  1.0000
  H   H411      1.0  0.09664  0.83710  0.79696  1.0000
  C   C436      1.0  0.25704  0.52042  0.78300  1.0000
  C   C437      1.0  0.05345  0.79025  0.87550  1.0000
  C   C438      1.0  0.09373  0.77584  0.87609  1.0000
  H   H412      1.0  0.05400  0.79326  0.86105  1.0000
  H   H413      1.0  0.01864  0.80379  0.87624  1.0000
  H   H414      1.0  0.27040  0.52506  0.79540  1.0000
  H   H415      1.0  0.03650  0.93580  0.90148  1.0000
  C   C439      1.0  0.42404  0.61926  0.88936  1.0000
  C   C440      1.0  0.25520  0.75699  0.78148  1.0000
  H   H416      1.0  0.99578  0.95188  0.77022  1.0000
  H   H417      1.0  0.03519  0.93565  0.86847  1.0000
  H   H418      1.0  0.98668  0.97386  0.80645  1.0000
  H   H419      1.0  0.08018  0.84488  0.77605  1.0000
  H   H420      1.0  0.46163  0.67074  0.87674  1.0000
  H   H421      1.0  0.38667  0.57937  0.88846  1.0000
  H   H422      1.0  0.21776  0.71128  0.81346  1.0000
  H   H423      1.0  0.10367  0.76325  0.88477  1.0000
  C   C441      1.0  0.14094  0.96097  0.99298  1.0000
  C   C442      1.0  0.23826  0.74427  0.76628  1.0000
  C   C443      1.0  0.10151  0.93849  0.87806  1.0000
  H   H424      1.0  0.05369  0.78371  0.92702  1.0000
  H   H425      1.0  0.43125  0.72522  0.78215  1.0000
  C   C444      1.0  0.42537  0.74400  0.78206  1.0000
  H   H426      1.0  0.07469  0.97007  0.99364  1.0000
  H   H427      1.0  0.43157  0.61554  0.87712  1.0000
  N   N37       1.0  0.07735  0.93719  0.86812  1.0000
  C   C445      1.0  0.38806  0.60397  0.91091  1.0000
  Fe  Fe74      1.0  0.46296  0.76585  0.84805  1.0000
  C   C446      1.0  0.42827  0.64967  0.91291  1.0000
  H   H428      1.0  0.97927  0.79195  0.97826  1.0000
  H   H429      1.0  0.11108  0.79657  0.87227  1.0000
  C   C447      1.0  0.07957  0.93838  0.90522  1.0000
  H   H430      1.0  0.44099  0.73568  0.75066  1.0000
  C   C448      1.0  0.44813  0.79440  0.77174  1.0000
  H   H431      1.0  0.08028  0.93841  0.91973  1.0000
  C   C449      1.0  0.05443  0.93689  0.87631  1.0000
  H   H432      1.0  0.11213  0.87158  0.78520  1.0000
  C   C450      1.0  0.40287  0.62962  0.91957  1.0000
  H   H433      1.0  0.08773  0.95958  0.84303  1.0000
  C   C451      1.0  0.13322  0.97420  0.97766  1.0000
  H   H434      1.0  0.18978  0.48610  0.81902  1.0000
  H   H435      1.0  0.08395  0.76356  0.86388  1.0000
  H   H436      1.0  0.07665  0.92117  0.98816  1.0000
  H   H437      1.0  0.18594  0.85092  0.76566  1.0000
  H   H438      1.0  0.08688  0.92356  0.84422  1.0000
  N   N38       1.0  0.43850  0.64432  0.89796  1.0000
  H   H439      1.0  0.19579  0.52363  0.76380  1.0000
  H   H440      1.0  0.22803  0.53739  0.79142  1.0000
  H   H441      1.0  0.18721  0.68810  0.78711  1.0000
  H   H442      1.0  0.40202  0.73678  0.77903  1.0000
  H   H443      1.0  0.43084  0.75229  0.79580  1.0000
  H   H444      1.0  0.47387  0.68550  0.89837  1.0000
  H   H445      1.0  0.16425  0.75019  0.75359  1.0000
  H   H446      1.0  0.25585  0.77277  0.81928  1.0000
  H   H447      1.0  0.13588  0.93819  0.99333  1.0000
  C   C452      1.0  0.39868  0.59871  0.89571  1.0000
  H   H448      1.0  0.26634  0.74322  0.82478  1.0000
  C   C453      1.0  0.44629  0.75808  0.75295  1.0000
  C   C454      1.0  0.11943  0.80134  0.75525  1.0000
  C   C455      1.0  0.99023  0.96868  0.76349  1.0000
  H   H449      1.0  0.46798  0.83811  0.76132  1.0000
  N   N39       1.0  0.24496  0.49898  0.75432  1.0000
  S   S144      1.0  0.21684  0.80103  0.74966  1.0000
  H   H450      1.0  0.19998  0.70970  0.75661  1.0000
  C   C456      1.0  0.22132  0.50531  0.75215  1.0000
  H   H451      1.0  0.47265  0.73406  0.81879  1.0000
  S   S145      1.0  0.05957  0.98370  0.81305  1.0000
  S   S146      1.0  0.47677  0.73072  0.85799  1.0000
  H   H452      1.0  0.16134  0.80725  0.74827  1.0000
  H   H453      1.0  0.65603  0.32114  0.09902  1.0000
  Fe  Fe75      1.0  0.85246  0.04449  0.19834  1.0000
  S   S147      1.0  0.89095  0.06636  0.18247  1.0000
  C   C457      1.0  0.66073  0.42999  0.05963  1.0000
  Fe  Fe76      1.0  0.86256  0.09815  0.21889  1.0000
  S   S148      1.0  0.90281  0.12377  0.20494  1.0000
  Fe  Fe77      1.0  0.87718  0.10316  0.18000  1.0000
  S   S149      1.0  0.87908  0.13087  0.15480  1.0000
  Fe  Fe78      1.0  0.91306  0.08470  0.20858  1.0000
  S   S150      1.0  0.83628  0.07978  0.19367  1.0000
  Fe  Fe79      1.0  0.81739  0.09658  0.01585  1.0000
  S   S151      1.0  0.84266  0.14425  0.01123  1.0000
  S   S152      1.0  0.85210  0.11823  0.24215  1.0000
  Fe  Fe80      1.0  0.83800  0.09861  0.05516  1.0000
  S   S153      1.0  0.86526  0.14548  0.05331  1.0000
  S   S154      1.0  0.83576  0.07136  0.08053  1.0000
  Fe  Fe81      1.0  0.82712  0.14878  0.03770  1.0000
  S   S155      1.0  0.81808  0.18674  0.04519  1.0000
  Fe  Fe82      1.0  0.87844  0.13709  0.02729  1.0000
  H   H454      1.0  0.60605  0.36465  0.13273  1.0000
  S   S156      1.0  0.79888  0.10188  0.04089  1.0000
  S   S157      1.0  0.85415  0.08941  0.03053  1.0000
  Fe  Fe83      1.0  0.71738  0.46066  0.13249  1.0000
  C   C458      1.0  0.71866  0.18360  0.18457  1.0000
  S   S158      1.0  0.73083  0.42605  0.14507  1.0000
  S   S159      1.0  0.62773  0.43450  0.09538  1.0000
  S   S160      1.0  0.67600  0.46015  0.14055  1.0000
  S   S161      1.0  0.87511  0.06062  0.22464  1.0000
  C   C459      1.0  0.90293  0.07312  0.08097  1.0000
  S   S162      1.0  0.52630  0.23400  0.09472  1.0000
  Fe  Fe84      1.0  0.73495  0.24796  0.14258  1.0000
  S   S163      1.0  0.75195  0.26135  0.11535  1.0000
  S   S164      1.0  0.76428  0.24855  0.16694  1.0000
  Fe  Fe85      1.0  0.67311  0.23230  0.12841  1.0000
  S   S165      1.0  0.68485  0.24365  0.09993  1.0000
  S   S166      1.0  0.63042  0.21999  0.14013  1.0000
  Fe  Fe86      1.0  0.71525  0.22144  0.10615  1.0000
  S   S167      1.0  0.71753  0.18603  0.09011  1.0000
  Fe  Fe87      1.0  0.72051  0.28245  0.11156  1.0000
  S   S168      1.0  0.73150  0.32721  0.09912  1.0000
  S   S169      1.0  0.70013  0.20680  0.13386  1.0000
  S   S170      1.0  0.70696  0.27224  0.13959  1.0000
  C   C460      1.0  0.55691  0.23337  0.10722  1.0000
  C   C461      1.0  0.56063  0.23686  0.12568  1.0000
  C   C462      1.0  0.58415  0.23424  0.13551  1.0000
  C   C463      1.0  0.60402  0.22787  0.12700  1.0000
  C   C464      1.0  0.60096  0.22545  0.10843  1.0000
  C   C465      1.0  0.57738  0.22806  0.09860  1.0000
  H   H455      1.0  0.54493  0.24054  0.13255  1.0000
  H   H456      1.0  0.58649  0.23628  0.14986  1.0000
  H   H457      1.0  0.61612  0.22042  0.10174  1.0000
  H   H458      1.0  0.57470  0.22534  0.08430  1.0000
  C   C466      1.0  0.59748  0.40889  0.10566  1.0000
  C   C467      1.0  0.57918  0.38471  0.09623  1.0000
  C   C468      1.0  0.55471  0.36412  0.10389  1.0000
  C   C469      1.0  0.54793  0.36792  0.12090  1.0000
  C   C470      1.0  0.56628  0.39207  0.13030  1.0000
  C   C471      1.0  0.59110  0.41231  0.12282  1.0000
  H   H459      1.0  0.58388  0.38189  0.08293  1.0000
  H   H460      1.0  0.54071  0.34569  0.09649  1.0000
  H   H461      1.0  0.56120  0.39520  0.14346  1.0000
  H   H462      1.0  0.60489  0.43087  0.13020  1.0000
  C   C472      1.0  0.72736  0.39835  0.13121  1.0000
  C   C473      1.0  0.71682  0.37000  0.13811  1.0000
  C   C474      1.0  0.71688  0.34784  0.12807  1.0000
  C   C475      1.0  0.72797  0.35392  0.11119  1.0000
  C   C476      1.0  0.73767  0.38220  0.10405  1.0000
  C   C477      1.0  0.73724  0.40437  0.11399  1.0000
  H   H463      1.0  0.70899  0.36522  0.15138  1.0000
  H   H464      1.0  0.70876  0.32624  0.13358  1.0000
  H   H465      1.0  0.74625  0.38709  0.09099  1.0000
  H   H466      1.0  0.74569  0.42626  0.10865  1.0000
  H   H467      1.0  0.56159  0.29604  0.11621  1.0000
  S   S171      1.0  0.51698  0.34320  0.13096  1.0000
  C   C478      1.0  0.49429  0.16600  0.11376  1.0000
  C   C479      1.0  0.64360  0.37230  0.11909  1.0000
  H   H468      1.0  0.96855  0.10910  0.18562  1.0000
  C   C480      1.0  0.61782  0.31439  0.11219  1.0000
  C   C481      1.0  0.79703  0.11691  0.23604  1.0000
  C   C482      1.0  0.67921  0.19924  0.18429  1.0000
  C   C483      1.0  0.78982  0.18612  0.05753  1.0000
  C   C484      1.0  0.79236  0.21135  0.06540  1.0000
  C   C485      1.0  0.77062  0.21171  0.07554  1.0000
  C   C486      1.0  0.74585  0.18686  0.07773  1.0000
  C   C487      1.0  0.74329  0.16165  0.06982  1.0000
  C   C488      1.0  0.76511  0.16125  0.05978  1.0000
  H   H469      1.0  0.81129  0.23077  0.06363  1.0000
  H   H470      1.0  0.77283  0.23130  0.08143  1.0000
  H   H471      1.0  0.72411  0.14240  0.07129  1.0000
  H   H472      1.0  0.76257  0.14186  0.05352  1.0000
  C   C489      1.0  0.86772  0.11401  0.13427  1.0000
  C   C490      1.0  0.86870  0.13087  0.11854  1.0000
  C   C491      1.0  0.85879  0.11801  0.10200  1.0000
  C   C492      1.0  0.84806  0.08820  0.10107  1.0000
  C   C493      1.0  0.84722  0.07133  0.11680  1.0000
  C   C494      1.0  0.85697  0.08419  0.13338  1.0000
  H   H473      1.0  0.87678  0.15396  0.11919  1.0000
  H   H474      1.0  0.85934  0.13124  0.09005  1.0000
  H   H475      1.0  0.83883  0.04822  0.11619  1.0000
  H   H476      1.0  0.85596  0.07101  0.14549  1.0000
  C   C495      1.0  0.75441  0.25389  0.18779  1.0000
  C   C496      1.0  0.76815  0.24778  0.20353  1.0000
  C   C497      1.0  0.75951  0.25029  0.22034  1.0000
  C   C498      1.0  0.73755  0.25962  0.22145  1.0000
  C   C499      1.0  0.72438  0.26653  0.20572  1.0000
  C   C500      1.0  0.73255  0.26336  0.18893  1.0000
  H   H477      1.0  0.78513  0.24050  0.20275  1.0000
  H   H478      1.0  0.76989  0.24508  0.23242  1.0000
  H   H479      1.0  0.70741  0.27382  0.20655  1.0000
  H   H480      1.0  0.72180  0.26812  0.17693  1.0000
  H   H481      1.0  0.75672  0.16614  0.21939  1.0000
  H   H482      1.0  0.57729  0.29433  0.13868  1.0000
  H   H483      1.0  0.67833  0.37327  0.10460  1.0000
  H   H484      1.0  0.60794  0.29169  0.10953  1.0000
  H   H485      1.0  0.71547  0.46102  0.05453  1.0000
  N   N40       1.0  0.77138  0.34795  0.16441  1.0000
  C   C501      1.0  0.77724  0.37541  0.15791  1.0000
  C   C502      1.0  0.77525  0.32871  0.15429  1.0000
  C   C503      1.0  0.78769  0.38430  0.14095  1.0000
  C   C504      1.0  0.78536  0.33680  0.13719  1.0000
  C   C505      1.0  0.79156  0.36476  0.13051  1.0000
  C   C506      1.0  0.75919  0.33839  0.18184  1.0000
  H   H486      1.0  0.77298  0.39040  0.16552  1.0000
  H   H487      1.0  0.77012  0.30681  0.15929  1.0000
  H   H488      1.0  0.79143  0.40580  0.13563  1.0000
  H   H489      1.0  0.78765  0.32130  0.12899  1.0000
  H   H490      1.0  0.79832  0.37093  0.11699  1.0000
  H   H491      1.0  0.76885  0.32447  0.18932  1.0000
  H   H492      1.0  0.76315  0.35676  0.19033  1.0000
  H   H493      1.0  0.73576  0.32602  0.17989  1.0000
  N   N41       1.0  0.79856  0.13281  0.10469  1.0000
  C   C507      1.0  0.80195  0.16067  0.10588  1.0000
  C   C508      1.0  0.80174  0.11718  0.11971  1.0000
  C   C509      1.0  0.80988  0.17397  0.12230  1.0000
  C   C510      1.0  0.80999  0.12990  0.13631  1.0000
  C   C511      1.0  0.81429  0.15854  0.13755  1.0000
  C   C512      1.0  0.79073  0.11959  0.08726  1.0000
  H   H494      1.0  0.79880  0.17287  0.09407  1.0000
  H   H495      1.0  0.79899  0.09506  0.11881  1.0000
  H   H496      1.0  0.81278  0.19617  0.12309  1.0000
  H   H497      1.0  0.81390  0.11788  0.14804  1.0000
  H   H498      1.0  0.82122  0.16877  0.15030  1.0000
  H   H499      1.0  0.76761  0.11358  0.08373  1.0000
  H   H500      1.0  0.80315  0.13480  0.07670  1.0000
  H   H501      1.0  0.79543  0.10010  0.08718  1.0000
  C   C513      1.0  0.57555  0.30890  0.12735  1.0000
  S   S172      1.0  0.50490  0.26443  0.13469  1.0000
  C   C514      1.0  0.61673  0.35507  0.12513  1.0000
  C   C515      1.0  0.64490  0.33091  0.10614  1.0000
  H   H502      1.0  0.65344  0.39496  0.12190  1.0000
  C   C516      1.0  0.65757  0.36013  0.10940  1.0000
  N   N42       1.0  0.60393  0.32667  0.12128  1.0000
  H   H503      1.0  0.56474  0.32204  0.13190  1.0000
  H   H504      1.0  0.63740  0.46789  0.06291  1.0000
  H   H505      1.0  0.68785  0.21264  0.17212  1.0000
  C   C517      1.0  0.92351  0.00891  0.19910  1.0000
  H   H506      1.0  0.66648  0.42225  0.07302  1.0000
  N   N43       1.0  0.70062  0.19029  0.19396  1.0000
  C   C518      1.0  0.92144  0.12326  0.06989  1.0000
  H   H507      1.0  0.47961  0.14303  0.11338  1.0000
  C   C519      1.0  0.92047  0.11311  0.10125  1.0000
  N   N44       1.0  0.91484  0.10390  0.08411  1.0000
  N   N45       1.0  0.67480  0.46136  0.05816  1.0000
  H   H508      1.0  0.88926  0.06057  0.09188  1.0000
  H   H509      1.0  0.49834  0.19682  0.17057  1.0000
  H   H510      1.0  0.94708  0.18512  0.09231  1.0000
  N   N46       1.0  0.80062  0.02294  0.23475  1.0000
  H   H511      1.0  0.78340  0.01252  0.20806  1.0000
  H   H512      1.0  0.75350  0.11360  0.23344  1.0000
  H   H513      1.0  0.91733  0.11604  0.05628  1.0000
  H   H514      1.0  0.92040  0.06579  0.08003  1.0000
  Fe  Fe88      1.0  0.49478  0.24652  0.10749  1.0000
  C   C520      1.0  0.74076  0.17251  0.21216  1.0000
  H   H515      1.0  0.91519  0.09780  0.11256  1.0000
  C   C521      1.0  0.54531  0.17460  0.15395  1.0000
  C   C522      1.0  0.49541  0.18231  0.14389  1.0000
  Fe  Fe89      1.0  0.66673  0.46525  0.11108  1.0000
  S   S173      1.0  0.70743  0.46394  0.10306  1.0000
  C   C523      1.0  0.50801  0.18873  0.16119  1.0000
  C   C524      1.0  0.93320  0.15273  0.07261  1.0000
  H   H516      1.0  0.92189  0.02955  0.19787  1.0000
  N   N47       1.0  0.50781  0.17281  0.13182  1.0000
  H   H517      1.0  0.78107  0.02584  0.01941  1.0000
  H   H518      1.0  0.93569  0.14958  0.11809  1.0000
  S   S174      1.0  0.92568  0.15195  0.02251  1.0000
  H   H519      1.0  0.71794  0.18592  0.17009  1.0000
  C   C525      1.0  0.65985  0.47783  0.06029  1.0000
  H   H520      1.0  0.54232  0.16144  0.12708  1.0000
  C   C526      1.0  0.77431  0.01594  0.00660  1.0000
  S   S175      1.0  0.95295  0.07927  0.22025  1.0000
  C   C527      1.0  0.93214  0.14243  0.10447  1.0000
  H   H521      1.0  0.79406  0.10290  0.22523  1.0000
  C   C528      1.0  0.93838  0.16233  0.09002  1.0000
  H   H522      1.0  0.95541  0.02122  0.22085  1.0000
  H   H523      1.0  0.56532  0.17232  0.15750  1.0000
  C   C529      1.0  0.77408  0.12313  0.24069  1.0000
  H   H524      1.0  0.75787  0.00976  0.22402  1.0000
  C   C530      1.0  0.72191  0.17879  0.22157  1.0000
  H   H525      1.0  0.90365  0.09402  0.99990  1.0000
  H   H526      1.0  0.68784  0.19327  0.21980  1.0000
  C   C531      1.0  0.53316  0.18493  0.16620  1.0000
  H   H527      1.0  0.72327  0.17726  0.23603  1.0000
  H   H528      1.0  0.63707  0.42246  0.05826  1.0000
  Fe  Fe90      1.0  0.48996  0.29776  0.12233  1.0000
  C   C532      1.0  0.70186  0.18773  0.21225  1.0000
  C   C533      1.0  0.73918  0.17491  0.19351  1.0000
  H   H529      1.0  0.54337  0.19028  0.17949  1.0000
  C   C534      1.0  0.53223  0.16858  0.13671  1.0000
  H   H530      1.0  0.67291  0.21258  0.19265  1.0000
  S   S176      1.0  0.72591  0.26271  0.24220  1.0000
  H   H531      1.0  0.75409  0.17064  0.18604  1.0000
  H   H532      1.0  0.65997  0.18015  0.18019  1.0000
  H   H533      1.0  0.80365  0.06277  0.24400  1.0000
  H   H534      1.0  0.86663  0.00032  0.22357  1.0000
  H   H535      1.0  0.66718  0.42009  0.04907  1.0000
  C   C535      1.0  0.94330  0.17128  0.00338  1.0000
  H   H536      1.0  0.88882  0.06829  0.06844  1.0000
  C   C536      1.0  0.94241  0.00402  0.21216  1.0000
  H   H537      1.0  0.93793  0.16795  0.06121  1.0000
  C   C537      1.0  0.77986  0.02235  0.21989  1.0000
  H   H538      1.0  0.78199  0.04438  0.21547  1.0000
  S   S177      1.0  0.82581  0.99765  0.19362  1.0000
  C   C538      1.0  0.70335  0.47401  0.05554  1.0000
  C   C539      1.0  0.80908  0.00062  0.23763  1.0000
  C   C540      1.0  0.82343  0.12811  0.24580  1.0000
  C   C541      1.0  0.81053  0.04519  0.24610  1.0000
  H   H539      1.0  0.51064  0.17085  0.10382  1.0000
  H   H540      1.0  0.89108  0.99023  0.17810  1.0000
  H   H541      1.0  0.48216  0.17942  0.10940  1.0000
  C   C542      1.0  0.97177  0.17520  0.00173  1.0000
  S   S178      1.0  0.48185  0.28114  0.09462  1.0000
  C   C543      1.0  0.90646  0.98693  0.18792  1.0000
  C   C544      1.0  0.76050  0.98586  0.00583  1.0000
  H   H542      1.0  0.96570  0.98447  0.24001  1.0000
  Fe  Fe91      1.0  0.87231  0.42339  0.39820  1.0000
  S   S179      1.0  0.90334  0.41713  0.38119  1.0000
  S   S180      1.0  0.85826  0.39707  0.42380  1.0000
  H   H543      1.0  0.79529  0.46623  0.40457  1.0000
  Fe  Fe92      1.0  0.49290  0.41668  0.35276  1.0000
  Fe  Fe93      1.0  0.87187  0.41686  0.35814  1.0000
  S   S181      1.0  0.85779  0.38982  0.33335  1.0000
  H   H544      1.0  0.52432  0.42559  0.31041  1.0000
  S   S182      1.0  0.83967  0.41949  0.37544  1.0000
  H   H545      1.0  0.49966  0.47746  0.47281  1.0000
  H   H546      1.0  0.76607  0.41971  0.45995  1.0000
  S   S183      1.0  0.53372  0.07654  0.40148  1.0000
  H   H547      1.0  0.72279  0.45035  0.28532  1.0000
  S   S184      1.0  0.51637  0.11517  0.36920  1.0000
  Fe  Fe94      1.0  0.86236  0.46727  0.37188  1.0000
  Fe  Fe95      1.0  0.53653  0.08313  0.37157  1.0000
  S   S185      1.0  0.57583  0.08626  0.35787  1.0000
  Fe  Fe96      1.0  0.51017  0.10550  0.39869  1.0000
  Fe  Fe97      1.0  0.92167  0.46540  0.37787  1.0000
  H   H548      1.0  0.90785  0.39162  0.31401  1.0000
  C   C545      1.0  0.60536  0.45084  0.32177  1.0000
  Fe  Fe98      1.0  0.74428  0.18249  0.27641  1.0000
  S   S186      1.0  0.77400  0.22901  0.27324  1.0000
  S   S187      1.0  0.52733  0.48097  0.38535  1.0000
  Fe  Fe99      1.0  0.70071  0.19622  0.29641  1.0000
  S   S188      1.0  0.72732  0.24357  0.29362  1.0000
  S   S189      1.0  0.65998  0.18875  0.31010  1.0000
  Fe  Fe100     1.0  0.73376  0.23591  0.26566  1.0000
  Fe  Fe101     1.0  0.76485  0.23264  0.30168  1.0000
  S   S190      1.0  0.79461  0.25528  0.32530  1.0000
  S   S191      1.0  0.70420  0.18967  0.26763  1.0000
  S   S192      1.0  0.73820  0.18515  0.30571  1.0000
  C   C546      1.0  0.80409  0.15326  0.26410  1.0000
  H   H549      1.0  0.83873  0.37483  0.45867  1.0000
  C   C547      1.0  0.58683  0.42412  0.32836  1.0000
  Fe  Fe102     1.0  0.52563  0.43599  0.38891  1.0000
  S   S193      1.0  0.54185  0.41536  0.41250  1.0000
  S   S194      1.0  0.53969  0.43578  0.36145  1.0000
  C   C548      1.0  0.79246  0.48215  0.30029  1.0000
  C   C549      1.0  0.54385  0.42736  0.43417  1.0000
  C   C550      1.0  0.54272  0.45372  0.43682  1.0000
  C   C551      1.0  0.54357  0.46240  0.45427  1.0000
  C   C552      1.0  0.54486  0.44449  0.46914  1.0000
  C   C553      1.0  0.54621  0.41821  0.46651  1.0000
  C   C554      1.0  0.54601  0.40982  0.44905  1.0000
  C   C555      1.0  0.51988  0.09958  0.32095  1.0000
  S   S195      1.0  0.82083  0.45146  0.48463  1.0000
  C   C556      1.0  0.47803  0.11093  0.29994  1.0000
  C   C557      1.0  0.55372  0.47737  0.29643  1.0000
  C   C558      1.0  0.83036  0.04611  0.26034  1.0000
  H   H550      1.0  0.84707  0.15510  0.26748  1.0000
  H   H551      1.0  0.90625  0.36068  0.33860  1.0000
  N   N48       1.0  0.56546  0.45889  0.30707  1.0000
  C   C559      1.0  0.77178  0.41358  0.44780  1.0000
  H   H552      1.0  0.51822  0.17655  0.44551  1.0000
  H   H553      1.0  0.50637  0.06908  0.48379  1.0000
  C   C560      1.0  0.55757  0.41481  0.32398  1.0000
  C   C561      1.0  0.63578  0.15915  0.32228  1.0000
  C   C562      1.0  0.63888  0.13310  0.32504  1.0000
  C   C563      1.0  0.61999  0.11084  0.33571  1.0000
  C   C564      1.0  0.59792  0.11439  0.34376  1.0000
  C   C565      1.0  0.59456  0.14029  0.34078  1.0000
  C   C566      1.0  0.61332  0.16247  0.33001  1.0000
  H   H554      1.0  0.65596  0.13020  0.31910  1.0000
  H   H555      1.0  0.62267  0.09082  0.33789  1.0000
  H   H556      1.0  0.57784  0.14340  0.34701  1.0000
  H   H557      1.0  0.61082  0.18259  0.32797  1.0000
  C   C567      1.0  0.52979  0.14236  0.43888  1.0000
  C   C568      1.0  0.54288  0.12387  0.44525  1.0000
  C   C569      1.0  0.55366  0.12465  0.46318  1.0000
  C   C570      1.0  0.55082  0.14343  0.47491  1.0000
  C   C571      1.0  0.53820  0.16228  0.46847  1.0000
  C   C572      1.0  0.52806  0.16198  0.45043  1.0000
  H   H558      1.0  0.54444  0.10879  0.43644  1.0000
  H   H559      1.0  0.56357  0.11013  0.46807  1.0000
  H   H560      1.0  0.53612  0.17697  0.47738  1.0000
  C   C573      1.0  0.74517  0.46475  0.28566  1.0000
  C   C574      1.0  0.83544  0.35273  0.33237  1.0000
  C   C575      1.0  0.83340  0.33366  0.34708  1.0000
  C   C576      1.0  0.81956  0.30382  0.34491  1.0000
  C   C577      1.0  0.80723  0.29276  0.32814  1.0000
  C   C578      1.0  0.80784  0.31188  0.31369  1.0000
  C   C579      1.0  0.82211  0.34167  0.31578  1.0000
  H   H561      1.0  0.84366  0.34183  0.35991  1.0000
  H   H562      1.0  0.81924  0.28922  0.35617  1.0000
  H   H563      1.0  0.79840  0.30369  0.30071  1.0000
  H   H564      1.0  0.82338  0.35622  0.30434  1.0000
  C   C580      1.0  0.85164  0.41341  0.44180  1.0000
  C   C581      1.0  0.85480  0.44200  0.44031  1.0000
  C   C582      1.0  0.84641  0.45373  0.45396  1.0000
  C   C583      1.0  0.83479  0.43697  0.46921  1.0000
  C   C584      1.0  0.83262  0.40868  0.47108  1.0000
  C   C585      1.0  0.84109  0.39695  0.45739  1.0000
  H   H565      1.0  0.86316  0.45493  0.42850  1.0000
  H   H566      1.0  0.91172  0.37778  0.29343  1.0000
  H   H567      1.0  0.82376  0.39564  0.48283  1.0000
  H   H568      1.0  0.54699  0.38944  0.44704  1.0000
  N   N49       1.0  0.69946  0.20173  0.35031  1.0000
  C   C586      1.0  0.70610  0.17816  0.35158  1.0000
  C   C587      1.0  0.68846  0.15275  0.36025  1.0000
  C   C588      1.0  0.66408  0.15163  0.36775  1.0000
  C   C589      1.0  0.71803  0.22837  0.34129  1.0000
  H   H569      1.0  0.72487  0.17878  0.34564  1.0000
  H   H570      1.0  0.69330  0.13385  0.36079  1.0000
  H   H571      1.0  0.64968  0.13179  0.37402  1.0000
  H   H572      1.0  0.73449  0.22530  0.33404  1.0000
  H   H573      1.0  0.70522  0.23610  0.33120  1.0000
  H   H574      1.0  0.72923  0.24513  0.35117  1.0000
  H   H575      1.0  0.54133  0.46747  0.42544  1.0000
  H   H576      1.0  0.48123  0.28454  0.32937  1.0000
  C   C590      1.0  0.54718  0.43268  0.31338  1.0000
  C   C591      1.0  0.87209  0.29083  0.32823  1.0000
  H   H577      1.0  0.54719  0.40427  0.47788  1.0000
  C   C592      1.0  0.65764  0.17584  0.36653  1.0000
  H   H578      1.0  0.76466  0.37075  0.45788  1.0000
  C   C593      1.0  0.77112  0.38612  0.44667  1.0000
  H   H579      1.0  0.63828  0.17487  0.37188  1.0000
  H   H580      1.0  0.59504  0.41077  0.33697  1.0000
  C   C594      1.0  0.77743  0.14130  0.25476  1.0000
  H   H581      1.0  0.86435  0.26941  0.33446  1.0000
  C   C595      1.0  0.87419  0.32247  0.30240  1.0000
  C   C596      1.0  0.78045  0.37914  0.43150  1.0000
  S   S196      1.0  0.48184  0.00088  0.41478  1.0000
  H   H582      1.0  0.78147  0.35838  0.43085  1.0000
  H   H583      1.0  0.85535  0.02447  0.27397  1.0000
  H   H584      1.0  0.85264  0.27624  0.30222  1.0000
  C   C597      1.0  0.76375  0.46354  0.30015  1.0000
  S   S197      1.0  0.47907  0.41367  0.38064  1.0000
  H   H585      1.0  0.54284  0.39420  0.32915  1.0000
  S   S198      1.0  0.49126  0.45990  0.34682  1.0000
  C   C598      1.0  0.52549  0.12683  0.31298  1.0000
  N   N50       1.0  0.50454  0.13231  0.30286  1.0000
  H   H586      1.0  0.86825  0.32531  0.28840  1.0000
  S   S199      1.0  0.49520  0.04494  0.36606  1.0000
  H   H587      1.0  0.75596  0.44825  0.31126  1.0000
  N   N51       1.0  0.88893  0.34578  0.31255  1.0000
  H   H588      1.0  0.67005  0.21930  0.35626  1.0000
  H   H589      1.0  0.48130  0.17665  0.32611  1.0000
  C   C599      1.0  0.49274  0.07787  0.31838  1.0000
  C   C600      1.0  0.89554  0.34221  0.33038  1.0000
  H   H590      1.0  0.54075  0.46608  0.28453  1.0000
  C   C601      1.0  0.89709  0.37462  0.30417  1.0000
  Fe  Fe103     1.0  0.53758  0.47879  0.35686  1.0000
  H   H591      1.0  0.54663  0.14364  0.31512  1.0000
  H   H592      1.0  0.47897  0.37854  0.45114  1.0000
  H   H593      1.0  0.80700  0.16709  0.27502  1.0000
  C   C602      1.0  0.51091  0.16113  0.29479  1.0000
  H   H594      1.0  0.80710  0.48154  0.31154  1.0000
  S   S200      1.0  0.89282  0.46486  0.35314  1.0000
  H   H595      1.0  0.54001  0.48309  0.30473  1.0000
  H   H596      1.0  0.82591  0.45713  0.40571  1.0000
  H   H597      1.0  0.48191  0.40981  0.47554  1.0000
  C   C603      1.0  0.88732  0.31470  0.33847  1.0000
  S   S201      1.0  0.89247  0.47147  0.39626  1.0000
  N   N52       1.0  0.79054  0.42658  0.41874  1.0000
  C   C604      1.0  0.79027  0.39980  0.41761  1.0000
  H   H598      1.0  0.83899  0.06451  0.26879  1.0000
  H   H599      1.0  0.78338  0.45536  0.43504  1.0000
  H   H600      1.0  0.79877  0.39461  0.40627  1.0000
  C   C605      1.0  0.49380  0.07150  0.47190  1.0000
  C   C606      1.0  0.86550  0.29467  0.31008  1.0000
  C   C607      1.0  0.82679  0.14638  0.25980  1.0000
  C   C608      1.0  0.67562  0.20083  0.35765  1.0000
  H   H601      1.0  0.87769  0.37771  0.29848  1.0000
  C   C609      1.0  0.78177  0.43372  0.43367  1.0000
  C   C610      1.0  0.59427  0.46790  0.31092  1.0000
  Fe  Fe104     1.0  0.49068  0.04056  0.39583  1.0000
  S   S202      1.0  0.51355  0.14029  0.41703  1.0000
  H   H602      1.0  0.49109  0.16429  0.29012  1.0000
  Fe  Fe105     1.0  0.48129  0.45867  0.37562  1.0000
  H   H603      1.0  0.89171  0.31198  0.35272  1.0000
  H   H604      1.0  0.49692  0.03706  0.45822  1.0000
  S   S203      1.0  0.74722  0.14685  0.26073  1.0000
  H   H605      1.0  0.48850  0.10763  0.48144  1.0000
  S   S204      1.0  0.48314  0.38334  0.33161  1.0000
  H   H606      1.0  0.84827  0.47567  0.45251  1.0000
  C   C611      1.0  0.48371  0.09340  0.47043  1.0000
  H   H607      1.0  0.52247  0.17763  0.30479  1.0000
  H   H608      1.0  0.48778  0.05688  0.32494  1.0000
  H   H609      1.0  0.47970  0.13432  0.34513  1.0000
  H   H610      1.0  0.52416  0.16479  0.28321  1.0000
  C   C612      1.0  0.82872  0.00070  0.25184  1.0000
  C   C613      1.0  0.80222  0.44821  0.40437  1.0000
  H   H611      1.0  0.54280  0.48288  0.45622  1.0000
  C   C614      1.0  0.48870  0.05372  0.45757  1.0000
  H   H612      1.0  0.53633  0.09536  0.32927  1.0000
  S   S205      1.0  0.54234  0.45474  0.49060  1.0000
  C   C615      1.0  0.83957  0.02374  0.26317  1.0000
  H   H613      1.0  0.79506  0.43875  0.39102  1.0000
  H   H614      1.0  0.62815  0.45853  0.32520  1.0000
  H   H615      1.0  0.96493  0.48291  0.41612  1.0000
  S   S206      1.0  0.56138  0.14123  0.49776  1.0000
  C   C616      1.0  0.47761  0.46055  0.47246  1.0000
  Fe  Fe106     1.0  0.51524  0.19351  0.53191  1.0000
  S   S207      1.0  0.53707  0.19768  0.55936  1.0000
  H   H616      1.0  0.50968  0.23603  0.57186  1.0000
  Fe  Fe107     1.0  0.55264  0.16739  0.51776  1.0000
  S   S208      1.0  0.57843  0.17181  0.54407  1.0000
  H   H617      1.0  0.68777  0.46944  0.53279  1.0000
  Fe  Fe108     1.0  0.53578  0.15350  0.55625  1.0000
  S   S209      1.0  0.52973  0.11771  0.57785  1.0000
  Fe  Fe109     1.0  0.57727  0.21536  0.54447  1.0000
  S   S210      1.0  0.60996  0.25823  0.55419  1.0000
  S   S211      1.0  0.51030  0.14772  0.52995  1.0000
  S   S212      1.0  0.55512  0.21265  0.51701  1.0000
  H   H618      1.0  0.64206  0.38361  0.51728  1.0000
  S   S213      1.0  0.80858  0.38992  0.52497  1.0000
  Fe  Fe110     1.0  0.76232  0.42989  0.53677  1.0000
  S   S214      1.0  0.76638  0.39414  0.55444  1.0000
  S   S215      1.0  0.73615  0.45497  0.54171  1.0000
  Fe  Fe111     1.0  0.81347  0.41513  0.54943  1.0000
  S   S216      1.0  0.84660  0.42006  0.57288  1.0000
  Fe  Fe112     1.0  0.76115  0.37221  0.52868  1.0000
  S   S217      1.0  0.73157  0.32622  0.52273  1.0000
  S   S218      1.0  0.80948  0.45269  0.53389  1.0000
  S   S219      1.0  0.75418  0.40688  0.51132  1.0000
  Fe  Fe113     1.0  0.52851  0.42947  0.55413  1.0000
  C   C617      1.0  0.54986  0.27219  0.57033  1.0000
  H   H619      1.0  0.55813  0.34172  0.56986  1.0000
  Fe  Fe114     1.0  0.57081  0.40314  0.54530  1.0000
  S   S220      1.0  0.54585  0.38437  0.51988  1.0000
  S   S221      1.0  0.60556  0.38855  0.55628  1.0000
  Fe  Fe115     1.0  0.54038  0.42608  0.51535  1.0000
  C   C618      1.0  0.49767  0.46525  0.58297  1.0000
  Fe  Fe116     1.0  0.50832  0.37116  0.53661  1.0000
  Fe  Fe117     1.0  0.80170  0.42646  0.50972  1.0000
  S   S222      1.0  0.56896  0.44618  0.53941  1.0000
  S   S223      1.0  0.53322  0.38811  0.56237  1.0000
  H   H620      1.0  0.50985  0.05556  0.53089  1.0000
  H   H621      1.0  0.79232  0.41940  0.58984  1.0000
  H   H622      1.0  0.64073  0.43059  0.58477  1.0000
  C   C619      1.0  0.69942  0.43527  0.54412  1.0000
  C   C620      1.0  0.68011  0.44809  0.53901  1.0000
  C   C621      1.0  0.65094  0.43345  0.54192  1.0000
  C   C622      1.0  0.64121  0.40635  0.55058  1.0000
  C   C623      1.0  0.66044  0.39337  0.55547  1.0000
  C   C624      1.0  0.68940  0.40760  0.55202  1.0000
  N   N53       1.0  0.50480  0.27564  0.57221  1.0000
  H   H623      1.0  0.63618  0.44346  0.53793  1.0000
  H   H624      1.0  0.65300  0.37230  0.56209  1.0000
  H   H625      1.0  0.70413  0.39757  0.55606  1.0000
  C   C625      1.0  0.59339  0.46176  0.58546  1.0000
  C   C626      1.0  0.50411  0.26574  0.52849  1.0000
  C   C627      1.0  0.50312  0.29285  0.53018  1.0000
  H   H626      1.0  0.61709  0.12573  0.55320  1.0000
  C   C628      1.0  0.52292  0.07858  0.53318  1.0000
  C   C629      1.0  0.50253  0.06421  0.59398  1.0000
  H   H627      1.0  0.52434  0.26386  0.52833  1.0000
  H   H628      1.0  0.52265  0.31190  0.53138  1.0000
  H   H629      1.0  0.50586  0.31796  0.57213  1.0000
  C   C630      1.0  0.63301  0.36053  0.51608  1.0000
  C   C631      1.0  0.64439  0.27613  0.54609  1.0000
  C   C632      1.0  0.65451  0.26376  0.53378  1.0000
  C   C633      1.0  0.68158  0.27915  0.52710  1.0000
  C   C634      1.0  0.69866  0.30707  0.53252  1.0000
  C   C635      1.0  0.68860  0.31937  0.54492  1.0000
  C   C636      1.0  0.66159  0.30393  0.55168  1.0000
  H   H630      1.0  0.64150  0.24238  0.52938  1.0000
  H   H631      1.0  0.68924  0.26947  0.51754  1.0000
  H   H632      1.0  0.70159  0.34077  0.54928  1.0000
  H   H633      1.0  0.65391  0.31366  0.56119  1.0000
  C   C637      1.0  0.88190  0.44709  0.57433  1.0000
  C   C638      1.0  0.90012  0.44728  0.58954  1.0000
  C   C639      1.0  0.47869  0.24095  0.52725  1.0000
  H   H634      1.0  0.89284  0.43028  0.59974  1.0000
  C   C640      1.0  0.60964  0.30149  0.51341  1.0000
  C   C641      1.0  0.49994  0.08449  0.58093  1.0000
  C   C642      1.0  0.67992  0.36388  0.50907  1.0000
  H   H635      1.0  0.57225  0.45699  0.58977  1.0000
  H   H636      1.0  0.52224  0.06943  0.60221  1.0000
  H   H637      1.0  0.79147  0.44034  0.60815  1.0000
  H   H638      1.0  0.52282  0.04834  0.56349  1.0000
  C   C643      1.0  0.47984  0.03723  0.59654  1.0000
  C   C644      1.0  0.60435  0.34481  0.51952  1.0000
  C   C645      1.0  0.57365  0.10327  0.54274  1.0000
  C   C646      1.0  0.56360  0.30201  0.56960  1.0000
  H   H639      1.0  0.69127  0.37173  0.52217  1.0000
  S   S224      1.0  0.52552  0.46370  0.57108  1.0000
  C   C647      1.0  0.92767  0.46935  0.59173  1.0000
  N   N54       1.0  0.64955  0.34700  0.51151  1.0000
  C   C648      1.0  0.54372  0.06477  0.56095  1.0000
  C   C649      1.0  0.59666  0.10825  0.55541  1.0000
  H   H640      1.0  0.56278  0.05613  0.58626  1.0000
  C   C650      1.0  0.51816  0.30493  0.57189  1.0000
  C   C651      1.0  0.60479  0.44096  0.58841  1.0000
  H   H641      1.0  0.66769  0.47728  0.56927  1.0000
  H   H642      1.0  0.59143  0.35563  0.52336  1.0000
  H   H643      1.0  0.59254  0.42028  0.59471  1.0000
  H   H644      1.0  0.58651  0.31225  0.56833  1.0000
  H   H645      1.0  0.57065  0.30255  0.52116  1.0000
  C   C652      1.0  0.80490  0.43831  0.59798  1.0000
  H   H646      1.0  0.87779  0.46950  0.54955  1.0000
  H   H647      1.0  0.61027  0.09527  0.58129  1.0000
  C   C653      1.0  0.97633  0.01188  0.74646  1.0000
  C   C654      1.0  0.59282  0.09116  0.57115  1.0000
  H   H648      1.0  0.50952  0.08804  0.53887  1.0000
  C   C655      1.0  0.63816  0.31789  0.50996  1.0000
  C   C656      1.0  0.56624  0.06914  0.57391  1.0000
  H   H649      1.0  0.57670  0.11704  0.53072  1.0000
  H   H650      1.0  0.52962  0.08966  0.52002  1.0000
  S   S225      1.0  0.47771  0.20600  0.52619  1.0000
  H   H651      1.0  0.56207  0.25917  0.56976  1.0000
  H   H652      1.0  0.94138  0.46923  0.60352  1.0000
  N   N55       1.0  0.54754  0.08193  0.54570  1.0000
  C   C657      1.0  0.54770  0.31853  0.57047  1.0000
  C   C658      1.0  0.52028  0.25925  0.57166  1.0000
  S   S226      1.0  0.50005  0.41114  0.52976  1.0000
  C   C659      1.0  0.59270  0.31507  0.51828  1.0000
  H   H653      1.0  0.60099  0.27829  0.51277  1.0000
  H   H654      1.0  0.69033  0.35100  0.50367  1.0000
  H   H655      1.0  0.85900  0.47588  0.59483  1.0000
  C   C660      1.0  0.63183  0.44674  0.58280  1.0000
  C   C661      1.0  0.89154  0.46928  0.56130  1.0000
  N   N56       1.0  0.81507  0.46433  0.58634  1.0000
  C   C662      1.0  0.79573  0.47127  0.57546  1.0000
  C   C663      1.0  0.64693  0.47295  0.57407  1.0000
  H   H656      1.0  0.82288  0.43386  0.60491  1.0000
  H   H657      1.0  0.77315  0.45747  0.57521  1.0000
  H   H658      1.0  0.97047  0.02861  0.73989  1.0000
  C   C664      1.0  0.84358  0.48149  0.58637  1.0000
  H   H659      1.0  0.65126  0.30708  0.50645  1.0000
  H   H660      1.0  0.48216  0.02200  0.60670  1.0000
  H   H661      1.0  0.68280  0.38259  0.49970  1.0000
  S   S227      1.0  0.79520  0.07114  0.99113  1.0000
  H   H662      1.0  0.96246  0.04523  0.80834  1.0000
  H   H663      1.0  0.90767  0.17920  0.99075  1.0000
  H   H664      1.0  0.91187  0.01174  0.80739  1.0000
  H   H665      1.0  0.84144  0.13083  0.94831  1.0000
  C   C665      1.0  0.87360  0.10373  0.98150  1.0000
  S   S228      1.0  0.95790  0.06227  0.76501  1.0000
  C   C666      1.0  0.91896  0.13094  0.96000  1.0000
  C   C667      1.0  0.90040  0.10381  0.98704  1.0000
  C   C668      1.0  0.94399  0.19597  0.97431  1.0000
  H   H666      1.0  0.82598  0.09466  0.95774  1.0000
  C   C669      1.0  0.89192  0.13069  0.95496  1.0000
  H   H667      1.0  0.93307  0.20394  0.96369  1.0000
  C   C670      1.0  0.76978  0.01982  0.97432  1.0000
  H   H668      1.0  0.77317  0.03289  0.96205  1.0000
  C   C671      1.0  0.92319  0.11751  0.97620  1.0000
  C   C672      1.0  0.86433  0.00992  0.77734  1.0000
  C   C673      1.0  0.87799  0.03864  0.78222  1.0000
  C   C674      1.0  0.90684  0.05489  0.77887  1.0000
  C   C675      1.0  0.92198  0.04269  0.77017  1.0000
  H   H669      1.0  0.94431  0.11855  0.98061  1.0000
  N   N57       1.0  0.86971  0.11728  0.96572  1.0000
  H   H670      1.0  0.86619  0.04841  0.78859  1.0000
  H   H671      1.0  0.91710  0.07700  0.78265  1.0000
  C   C676      1.0  0.92816  0.00327  0.80714  1.0000
  H   H672      1.0  0.93680  0.14241  0.95175  1.0000
  H   H673      1.0  0.83345  0.12472  0.97141  1.0000
  C   C677      1.0  0.90828  0.01397  0.76528  1.0000
  H   H674      1.0  0.69598  0.99139  0.97077  1.0000
  C   C678      1.0  0.87971  0.99754  0.76902  1.0000
  C   C679      1.0  0.95683  0.02236  0.80776  1.0000
  C   C680      1.0  0.77888  0.03310  0.99084  1.0000
  H   H675      1.0  0.85596  0.09305  0.98997  1.0000
  S   S229      1.0  0.82784  0.99049  0.78118  1.0000
  H   H676      1.0  0.88901  0.14167  0.94251  1.0000
  H   H677      1.0  0.91979  0.00433  0.75858  1.0000
  C   C681      1.0  0.75634  0.98969  0.97354  1.0000
  C   C682      1.0  0.97228  0.19936  0.97250  1.0000
  C   C683      1.0  0.92952  0.18194  0.98963  1.0000
  C   C684      1.0  0.84136  0.11695  0.96042  1.0000
  H   H678      1.0  0.81321  0.66523  0.09577  1.0000
  Fe  Fe118     1.0  0.87948  0.81223  0.22020  1.0000
  S   S230      1.0  0.84257  0.82406  0.21101  1.0000
  C   C685      1.0  0.79592  0.81866  0.07435  1.0000
  Fe  Fe119     1.0  0.92213  0.86470  0.19919  1.0000
  S   S231      1.0  0.88750  0.87862  0.18798  1.0000
  Fe  Fe120     1.0  0.87313  0.86983  0.21588  1.0000
  S   S232      1.0  0.86962  0.90543  0.23054  1.0000
  Fe  Fe121     1.0  0.86101  0.83192  0.18401  1.0000
  S   S233      1.0  0.83226  0.81370  0.15933  1.0000
  S   S234      1.0  0.90896  0.85751  0.22739  1.0000
  S   S235      1.0  0.89670  0.81838  0.19291  1.0000
  Fe  Fe122     1.0  0.86520  0.74439  0.03412  1.0000
  S   S236      1.0  0.87079  0.78524  0.04622  1.0000
  C   C686      1.0  0.67342  0.50777  0.05951  1.0000
  Fe  Fe123     1.0  0.81104  0.70921  0.05403  1.0000
  S   S237      1.0  0.81286  0.74852  0.06703  1.0000
  S   S238      1.0  0.77232  0.66916  0.06195  1.0000
  Fe  Fe124     1.0  0.82356  0.77136  0.04028  1.0000
  S   S239      1.0  0.81071  0.80814  0.03093  1.0000
  Fe  Fe125     1.0  0.85949  0.75894  0.07185  1.0000
  S   S240      1.0  0.88516  0.77636  0.09756  1.0000
  S   S241      1.0  0.81807  0.73161  0.02660  1.0000
  S   S242      1.0  0.85760  0.71856  0.06040  1.0000
  Fe  Fe126     1.0  0.69874  0.50833  0.13985  1.0000
  S   S243      1.0  0.68557  0.51374  0.11077  1.0000
  S   S244      1.0  0.69961  0.54173  0.15844  1.0000
  Fe  Fe127     1.0  0.72720  0.51193  0.10568  1.0000
  S   S245      1.0  0.76057  0.54290  0.08751  1.0000
  C   C687      1.0  0.78663  0.80743  0.01234  1.0000
  S   S246      1.0  0.74109  0.50829  0.13463  1.0000
  C   C688      1.0  0.87357  0.83958  0.08725  1.0000
  H   H679      1.0  0.74029  0.51394  0.05281  1.0000
  C   C689      1.0  0.78190  0.83235  0.00738  1.0000
  H   H680      1.0  0.82948  0.66257  0.11781  1.0000
  H   H681      1.0  0.75679  0.97281  0.01812  1.0000
  C   C690      1.0  0.96626  0.81822  0.01525  1.0000
  H   H682      1.0  0.66164  0.52074  0.06154  1.0000
  C   C691      1.0  0.84694  0.82905  0.07775  1.0000
  H   H683      1.0  0.89650  0.85849  0.11169  1.0000
  C   C692      1.0  0.76921  0.63377  0.06809  1.0000
  C   C693      1.0  0.74401  0.61439  0.07554  1.0000
  C   C694      1.0  0.74121  0.58670  0.08180  1.0000
  C   C695      1.0  0.76333  0.57777  0.08020  1.0000
  C   C696      1.0  0.78820  0.59682  0.07227  1.0000
  C   C697      1.0  0.79126  0.62477  0.06637  1.0000
  H   H684      1.0  0.72675  0.62108  0.07681  1.0000
  H   H685      1.0  0.72190  0.57227  0.08780  1.0000
  H   H686      1.0  0.80534  0.59002  0.07082  1.0000
  H   H687      1.0  0.81068  0.63935  0.06053  1.0000
  C   C698      1.0  0.84670  0.80134  0.14295  1.0000
  C   C699      1.0  0.82879  0.78586  0.12875  1.0000
  C   C700      1.0  0.84015  0.77738  0.11493  1.0000
  C   C701      1.0  0.86950  0.78421  0.11532  1.0000
  C   C702      1.0  0.88723  0.79898  0.12978  1.0000
  C   C703      1.0  0.87593  0.80769  0.14348  1.0000
  H   H688      1.0  0.80614  0.78084  0.12828  1.0000
  H   H689      1.0  0.82627  0.76586  0.10393  1.0000
  H   H690      1.0  0.90997  0.80443  0.13012  1.0000
  H   H691      1.0  0.89003  0.82004  0.15416  1.0000
  C   C704      1.0  0.85841  0.93114  0.21937  1.0000
  C   C705      1.0  0.86790  0.95845  0.22639  1.0000
  H   H692      1.0  0.95867  0.95042  0.23124  1.0000
  N   N58       1.0  0.94424  0.97790  0.21407  1.0000
  C   C706      1.0  0.85886  0.97929  0.21815  1.0000
  C   C707      1.0  0.83972  0.92476  0.20404  1.0000
  H   H693      1.0  0.85387  0.86033  0.12402  1.0000
  H   H694      1.0  0.97555  0.83645  0.02370  1.0000
  C   C708      1.0  0.90876  0.96048  0.18978  1.0000
  H   H695      1.0  0.83215  0.90369  0.19861  1.0000
  C   C709      1.0  0.70606  0.53647  0.18165  1.0000
  C   C710      1.0  0.70520  0.51009  0.18887  1.0000
  C   C711      1.0  0.70926  0.50606  0.20747  1.0000
  C   C712      1.0  0.71468  0.52847  0.21895  1.0000
  C   C713      1.0  0.71620  0.55508  0.21172  1.0000
  C   C714      1.0  0.71166  0.55897  0.19311  1.0000
  H   H696      1.0  0.77794  0.81635  0.08241  1.0000
  C   C715      1.0  0.77241  0.78291  0.00241  1.0000
  H   H697      1.0  0.72023  0.57243  0.22046  1.0000
  H   H698      1.0  0.71227  0.57940  0.18761  1.0000
  H   H699      1.0  0.82310  0.63573  0.10154  1.0000
  N   N59       1.0  0.84536  0.73348  0.19457  1.0000
  C   C716      1.0  0.83385  0.75187  0.18680  1.0000
  C   C717      1.0  0.82953  0.71064  0.20521  1.0000
  C   C718      1.0  0.80577  0.74758  0.18950  1.0000
  C   C719      1.0  0.80121  0.70543  0.20799  1.0000
  C   C720      1.0  0.78938  0.72418  0.20018  1.0000
  C   C721      1.0  0.87532  0.73923  0.19236  1.0000
  H   H700      1.0  0.84645  0.77016  0.17857  1.0000
  H   H701      1.0  0.83899  0.69676  0.21203  1.0000
  H   H702      1.0  0.79705  0.76262  0.18349  1.0000
  H   H703      1.0  0.78892  0.68760  0.21673  1.0000
  H   H704      1.0  0.76774  0.72086  0.20268  1.0000
  H   H705      1.0  0.80735  0.84175  0.10665  1.0000
  C   C722      1.0  0.82590  0.84138  0.10097  1.0000
  H   H706      1.0  0.88253  0.75133  0.17954  1.0000
  H   H707      1.0  0.83101  0.78687  0.00199  1.0000
  N   N60       1.0  0.78626  0.63354  0.11381  1.0000
  C   C723      1.0  0.78042  0.60693  0.12179  1.0000
  C   C724      1.0  0.76644  0.64536  0.11294  1.0000
  C   C725      1.0  0.75406  0.59134  0.12902  1.0000
  C   C726      1.0  0.73977  0.63023  0.11993  1.0000
  C   C727      1.0  0.73363  0.60307  0.12804  1.0000
  C   C728      1.0  0.81444  0.65010  0.10697  1.0000
  H   H708      1.0  0.79595  0.59736  0.12235  1.0000
  H   H709      1.0  0.77090  0.66626  0.10635  1.0000
  H   H710      1.0  0.74934  0.57020  0.13529  1.0000
  H   H711      1.0  0.72389  0.63938  0.11890  1.0000
  H   H712      1.0  0.71304  0.59099  0.13353  1.0000
  C   C729      1.0  0.87176  0.82230  0.00262  1.0000
  H   H713      1.0  0.79625  0.83321  0.06251  1.0000
  H   H714      1.0  0.71334  0.54400  0.05606  1.0000
  C   C730      1.0  0.81898  0.74370  0.24416  1.0000
  C   C731      1.0  0.71750  0.50388  0.05451  1.0000
  H   H715      1.0  0.79275  0.85141  0.01500  1.0000
  H   H716      1.0  0.81481  0.94001  0.18461  1.0000
  S   S247      1.0  0.89396  0.74419  0.01263  1.0000
  H   H717      1.0  0.89181  0.83768  0.08207  1.0000
  H   H718      1.0  0.87858  0.71898  0.19234  1.0000
  C   C732      1.0  0.85226  0.85224  0.11080  1.0000
  C   C733      1.0  0.94001  0.79592  0.01934  1.0000
  H   H719      1.0  0.65428  0.90881  0.00863  1.0000
  H   H720      1.0  0.88246  0.96354  0.23819  1.0000
  N   N61       1.0  0.82350  0.82981  0.08471  1.0000
  H   H721      1.0  0.70795  0.48539  0.21297  1.0000
  S   S248      1.0  0.87594  0.77040  0.23552  1.0000
  S   S249      1.0  0.71856  0.52190  0.24225  1.0000
  H   H722      1.0  0.89524  0.94305  0.18139  1.0000
  C   C734      1.0  0.87619  0.85123  0.10389  1.0000
  H   H723      1.0  0.79157  0.79713  0.06943  1.0000
  C   C735      1.0  0.92783  0.77204  0.00866  1.0000
  C   C736      1.0  0.83942  0.97265  0.20320  1.0000
  C   C737      1.0  0.92800  0.95634  0.20295  1.0000
  H   H724      1.0  0.86574  0.83389  0.01194  1.0000
  C   C738      1.0  0.82990  0.94533  0.19616  1.0000
  H   H725      1.0  0.92928  0.79718  0.03080  1.0000
  C   C739      1.0  0.84543  0.74179  0.24394  1.0000
  C   C740      1.0  0.96478  0.97357  0.22754  1.0000
  S   S250      1.0  0.96549  0.89186  0.18865  1.0000
  C   C741      1.0  0.70238  0.52081  0.05648  1.0000
  H   H726      1.0  0.84499  0.81982  0.06489  1.0000
  H   H727      1.0  0.88897  0.75218  0.20355  1.0000
  H   H728      1.0  0.92951  0.93564  0.20441  1.0000
  H   H729      1.0  0.77558  0.76347  0.00621  1.0000
  H   H730      1.0  0.91501  0.85370  0.00129  1.0000
  H   H731      1.0  0.70083  0.49261  0.18017  1.0000
  H   H732      1.0  0.81681  0.76334  0.23944  1.0000
  H   H733      1.0  0.80110  0.98286  0.22870  1.0000
  H   H734      1.0  0.80461  0.51733  0.24801  1.0000
  C   C742      1.0  0.82395  0.69236  0.25640  1.0000
  N   N62       1.0  0.72348  0.63874  0.31589  1.0000
  S   S251      1.0  0.76664  0.66510  0.26417  1.0000
  Fe  Fe128     1.0  0.73545  0.55704  0.26220  1.0000
  S   S252      1.0  0.71507  0.58505  0.27135  1.0000
  Fe  Fe129     1.0  0.78434  0.57636  0.29091  1.0000
  S   S253      1.0  0.76831  0.60633  0.30215  1.0000
  S   S254      1.0  0.82481  0.56961  0.29985  1.0000
  Fe  Fe130     1.0  0.72444  0.57043  0.29927  1.0000
  S   S255      1.0  0.69730  0.55583  0.32365  1.0000
  Fe  Fe131     1.0  0.76035  0.61909  0.27344  1.0000
  H   H735      1.0  0.96435  0.54699  0.43011  1.0000
  S   S256      1.0  0.74157  0.53991  0.28998  1.0000
  S   S257      1.0  0.77967  0.59166  0.26232  1.0000
  H   H736      1.0  0.72233  0.61293  0.33976  1.0000
  C   C743      1.0  0.74004  0.66063  0.30494  1.0000
  H   H737      1.0  0.86744  0.54852  0.31276  1.0000
  H   H738      1.0  0.68097  0.61024  0.32171  1.0000
  H   H739      1.0  0.92907  0.55987  0.36194  1.0000
  C   C744      1.0  0.65992  0.54225  0.32635  1.0000
  C   C745      1.0  0.64921  0.52566  0.34193  1.0000
  C   C746      1.0  0.62018  0.51625  0.34543  1.0000
  C   C747      1.0  0.60163  0.52416  0.33366  1.0000
  C   C748      1.0  0.61230  0.54073  0.31806  1.0000
  C   C749      1.0  0.64110  0.54922  0.31422  1.0000
  C   C750      1.0  0.79752  0.69427  0.25663  1.0000
  C   C751      1.0  0.96860  0.55304  0.41618  1.0000
  H   H740      1.0  0.48761  0.54756  0.42511  1.0000
  H   H741      1.0  0.64882  0.56180  0.30212  1.0000
  H   H742      1.0  0.79151  0.51310  0.35562  1.0000
  C   C752      1.0  0.84775  0.71604  0.25021  1.0000
  H   H743      1.0  0.51009  0.57587  0.38010  1.0000
  C   C753      1.0  0.48720  0.53073  0.35972  1.0000
  C   C754      1.0  0.73517  0.63116  0.33148  1.0000
  S   S258      1.0  0.56521  0.51432  0.33785  1.0000
  H   H744      1.0  0.78218  0.69275  0.30060  1.0000
  C   C755      1.0  0.78104  0.66872  0.32564  1.0000
  H   H745      1.0  0.77672  0.52977  0.25009  1.0000
  C   C756      1.0  0.69354  0.62216  0.31021  1.0000
  C   C757      1.0  0.76405  0.64617  0.33666  1.0000
  H   H746      1.0  0.82614  0.67271  0.26107  1.0000
  H   H747      1.0  0.92469  0.53249  0.40672  1.0000
  C   C758      1.0  0.83165  0.51309  0.34917  1.0000
  C   C759      1.0  0.76902  0.67598  0.30965  1.0000
  C   C760      1.0  0.85069  0.54058  0.32202  1.0000
  C   C761      1.0  0.82699  0.54800  0.31902  1.0000
  C   C762      1.0  0.80545  0.53760  0.33105  1.0000
  C   C763      1.0  0.80798  0.52053  0.34618  1.0000
  H   H748      1.0  0.93069  0.52499  0.36345  1.0000
  H   H749      1.0  0.68338  0.63637  0.30384  1.0000
  H   H750      1.0  0.78707  0.54309  0.32887  1.0000
  H   H751      1.0  0.77334  0.63975  0.34885  1.0000
  N   N63       1.0  0.95172  0.55127  0.38520  1.0000
  H   H752      1.0  0.69234  0.60626  0.30048  1.0000
  H   H753      1.0  0.80364  0.68005  0.32921  1.0000
  H   H754      1.0  0.73110  0.66587  0.29221  1.0000
  S   S259      1.0  0.83443  0.49257  0.36876  1.0000
  H   H755      1.0  0.90704  0.53225  0.37677  1.0000
  H   H756      1.0  0.66357  0.52028  0.35148  1.0000
  C   C764      1.0  0.85288  0.52292  0.33691  1.0000
  H   H757      1.0  0.59818  0.54705  0.30886  1.0000
  C   C765      1.0  0.75559  0.48494  0.27161  1.0000
  C   C766      1.0  0.94628  0.54470  0.40285  1.0000
  H   H758      1.0  0.82441  0.51676  0.28633  1.0000
  H   H759      1.0  0.61237  0.50361  0.35752  1.0000
  H   H760      1.0  0.49674  0.52024  0.37029  1.0000
  H   H761      1.0  0.48484  0.59898  0.39581  1.0000
  C   C767      1.0  0.92844  0.54164  0.37120  1.0000
  H   H762      1.0  0.50442  0.54634  0.35171  1.0000
  C   C768      1.0  0.80212  0.50207  0.28602  1.0000
  H   H763      1.0  0.86811  0.71432  0.25021  1.0000
  H   H764      1.0  0.80986  0.54584  0.26283  1.0000
  H   H765      1.0  0.87124  0.51742  0.33909  1.0000
  H   H766      1.0  0.74101  0.48570  0.26040  1.0000
  H   H767      1.0  0.48938  0.51126  0.40542  1.0000
  C   C769      1.0  0.79526  0.72014  0.25055  1.0000
  C   C770      1.0  0.79425  0.52515  0.25752  1.0000
  C   C771      1.0  0.48704  0.56817  0.37824  1.0000
  S   S260      1.0  0.96906  0.49506  0.37741  1.0000
  H   H768      1.0  0.60888  0.48860  0.30589  1.0000
  H   H769      1.0  0.83588  0.98327  0.25378  1.0000
  N   N64       1.0  0.78360  0.50376  0.27216  1.0000
  H   H770      1.0  0.57074  0.49771  0.29176  1.0000
  H   H771      1.0  0.77496  0.72195  0.25069  1.0000
  H   H772      1.0  0.48603  0.72393  0.64353  1.0000
  Fe  Fe132     1.0  0.51206  0.79487  0.70263  1.0000
  S   S261      1.0  0.55132  0.79838  0.68974  1.0000
  H   H773      1.0  0.64806  0.81348  0.71513  1.0000
  Fe  Fe133     1.0  0.52173  0.75705  0.73394  1.0000
  S   S262      1.0  0.56115  0.75663  0.72325  1.0000
  Fe  Fe134     1.0  0.57329  0.80397  0.71761  1.0000
  S   S263      1.0  0.61332  0.84033  0.72913  1.0000
  Fe  Fe135     1.0  0.53608  0.75058  0.69641  1.0000
  S   S264      1.0  0.53411  0.72048  0.67471  1.0000
  S   S265      1.0  0.53480  0.80425  0.72983  1.0000
  S   S266      1.0  0.49582  0.74710  0.70771  1.0000
  C   C772      1.0  0.51126  0.68343  0.67426  1.0000
  H   H774      1.0  0.68735  0.92054  0.72895  1.0000
  H   H775      1.0  0.84131  0.53153  0.55448  1.0000
  H   H776      1.0  0.52114  0.51003  0.58820  1.0000
  H   H777      1.0  0.69562  0.89833  0.71511  1.0000
  C   C773      1.0  0.64898  0.84370  0.73399  1.0000
  C   C774      1.0  0.93721  0.49164  0.57875  1.0000
  H   H778      1.0  0.52353  0.67857  0.64839  1.0000
  C   C775      1.0  0.69000  0.83337  0.72872  1.0000
  H   H779      1.0  0.69924  0.82191  0.72152  1.0000
  H   H780      1.0  0.79319  0.92182  0.72714  1.0000
  C   C776      1.0  0.50176  0.86829  0.65165  1.0000
  C   C777      1.0  0.66095  0.82846  0.72512  1.0000
  S   S267      1.0  0.97123  0.52070  0.58091  1.0000
  H   H781      1.0  0.52002  0.84278  0.66848  1.0000
  C   C778      1.0  0.66613  0.86329  0.74678  1.0000
  C   C779      1.0  0.74102  0.95484  0.73805  1.0000
  H   H782      1.0  0.49466  0.68089  0.69993  1.0000
  H   H783      1.0  0.70082  0.93429  0.70720  1.0000
  H   H784      1.0  0.47955  0.54624  0.58040  1.0000
  C   C780      1.0  0.50192  0.84864  0.66584  1.0000
  C   C781      1.0  0.76930  0.96659  0.74522  1.0000
  C   C782      1.0  0.75050  0.92055  0.72301  1.0000
  H   H785      1.0  0.51979  0.87738  0.64339  1.0000
  C   C783      1.0  0.49367  0.66940  0.68816  1.0000
  S   S268      1.0  0.74381  0.85931  0.74518  1.0000
  H   H786      1.0  0.87621  0.51874  0.57454  1.0000
  H   H787      1.0  0.48474  0.51344  0.60659  1.0000
  C   C784      1.0  0.70255  0.92084  0.71918  1.0000
  H   H788      1.0  0.81024  0.96377  0.74667  1.0000
  C   C785      1.0  0.50981  0.66799  0.65913  1.0000
  H   H789      1.0  0.58279  0.50425  0.56030  1.0000
  H   H790      1.0  0.93989  0.97781  0.73419  1.0000
  C   C786      1.0  0.80482  0.49579  0.56406  1.0000
  H   H791      1.0  0.72636  0.96401  0.74134  1.0000
  C   C787      1.0  0.83391  0.51301  0.56370  1.0000
  C   C788      1.0  0.47871  0.83673  0.67659  1.0000
  N   N65       1.0  0.73194  0.93203  0.72716  1.0000
  H   H792      1.0  0.74329  0.90214  0.71463  1.0000
  C   C789      1.0  0.49042  0.63912  0.65767  1.0000
  C   C790      1.0  0.50163  0.49138  0.59025  1.0000
  C   C791      1.0  0.78831  0.95495  0.74108  1.0000
  C   C792      1.0  0.77886  0.93166  0.73002  1.0000
  C   C793      1.0  0.85346  0.50590  0.57494  1.0000
  H   H793      1.0  0.58117  0.50725  0.58386  1.0000
  H   H794      1.0  0.61216  0.53086  0.57283  1.0000
  C   C794      1.0  0.59565  0.50859  0.57331  1.0000
  C   C795      1.0  0.70716  0.85305  0.74148  1.0000
  H   H795      1.0  0.48947  0.62759  0.64595  1.0000
  C   C796      1.0  0.91896  0.49144  0.56355  1.0000
  H   H796      1.0  0.47878  0.85344  0.58943  1.0000
  H   H797      1.0  0.92610  0.50854  0.55341  1.0000
  H   H798      1.0  0.78943  0.50073  0.55510  1.0000
  C   C797      1.0  0.48091  0.49346  0.60058  1.0000
  C   C798      1.0  0.95884  0.98320  0.74324  1.0000
  H   H799      1.0  0.64624  0.51310  0.56384  1.0000
  C   C799      1.0  0.63470  0.49309  0.57107  1.0000
  S   S269      1.0  0.47756  0.81167  0.69446  1.0000
  C   C800      1.0  0.47838  0.87608  0.64804  1.0000
  S   S270      1.0  0.47808  0.89915  0.62925  1.0000
  H   H800      1.0  0.47785  0.82384  0.73245  1.0000
  N   N66       1.0  0.60845  0.48754  0.57702  1.0000
  H   H801      1.0  0.65941  0.78146  0.75741  1.0000
  C   C801      1.0  0.61211  0.78865  0.76321  1.0000
  Fe  Fe136     1.0  0.82313  0.89078  0.79515  1.0000
  S   S271      1.0  0.81927  0.91237  0.76846  1.0000
  S   S272      1.0  0.86007  0.88006  0.80700  1.0000
  Fe  Fe137     1.0  0.76867  0.89291  0.80771  1.0000
  S   S273      1.0  0.76145  0.91598  0.78238  1.0000
  S   S274      1.0  0.73382  0.87615  0.82724  1.0000
  Fe  Fe138     1.0  0.77192  0.88428  0.76861  1.0000
  C   C802      1.0  0.81598  0.88899  0.91971  1.0000
  Fe  Fe139     1.0  0.80899  0.94200  0.78457  1.0000
  S   S275      1.0  0.77708  0.85986  0.79384  1.0000
  S   S276      1.0  0.81505  0.92188  0.81130  1.0000
  Fe  Fe140     1.0  0.71702  0.84809  0.95550  1.0000
  S   S277      1.0  0.68606  0.86245  0.96701  1.0000
  S   S278      1.0  0.72516  0.80821  0.96399  1.0000
  Fe  Fe141     1.0  0.73414  0.89723  0.92775  1.0000
  S   S279      1.0  0.70529  0.91597  0.93723  1.0000
  S   S280      1.0  0.76523  0.91867  0.90653  1.0000
  Fe  Fe142     1.0  0.72101  0.90696  0.96489  1.0000
  C   C803      1.0  0.68953  0.80845  0.77691  1.0000
  Fe  Fe143     1.0  0.67266  0.87012  0.93836  1.0000
  S   S281      1.0  0.62772  0.86436  0.92721  1.0000
  S   S282      1.0  0.75253  0.89172  0.95533  1.0000
  S   S283      1.0  0.70091  0.85228  0.92690  1.0000
  H   H802      1.0  0.80114  0.88321  0.89211  1.0000
  C   C804      1.0  0.79723  0.87431  0.90565  1.0000
  C   C805      1.0  0.76839  0.83920  0.92616  1.0000
  S   S284      1.0  0.52191  0.75106  0.90196  1.0000
  C   C806      1.0  0.89925  0.83342  0.99660  1.0000
  C   C807      1.0  0.59810  0.83231  0.92117  1.0000
  C   C808      1.0  0.59907  0.80524  0.92373  1.0000
  C   C809      1.0  0.57537  0.78057  0.91809  1.0000
  C   C810      1.0  0.55053  0.78264  0.90972  1.0000
  C   C811      1.0  0.54953  0.80970  0.90726  1.0000
  C   C812      1.0  0.57312  0.83433  0.91303  1.0000
  H   H803      1.0  0.61805  0.80328  0.93002  1.0000
  H   H804      1.0  0.57636  0.75975  0.92013  1.0000
  H   H805      1.0  0.53054  0.81167  0.90097  1.0000
  H   H806      1.0  0.57205  0.85512  0.91105  1.0000
  C   C813      1.0  0.65032  0.93137  0.94999  1.0000
  H   H807      1.0  0.89288  0.77859  0.97122  1.0000
  C   C814      1.0  0.51076  0.78017  0.77795  1.0000
  N   N67       1.0  0.77353  0.85002  0.90901  1.0000
  C   C815      1.0  0.74869  0.80829  0.98277  1.0000
  C   C816      1.0  0.75357  0.78340  0.98765  1.0000
  H   H808      1.0  0.63353  0.88929  0.96257  1.0000
  C   C817      1.0  0.64448  0.82095  0.78567  1.0000
  C   C818      1.0  0.75152  0.97256  0.98933  1.0000
  C   C819      1.0  0.74247  0.88863  0.84914  1.0000
  C   C820      1.0  0.76959  0.90898  0.85407  1.0000
  C   C821      1.0  0.77607  0.91846  0.87164  1.0000
  C   C822      1.0  0.75558  0.90752  0.88440  1.0000
  C   C823      1.0  0.72837  0.88723  0.87948  1.0000
  C   C824      1.0  0.72184  0.87781  0.86187  1.0000
  H   H809      1.0  0.78554  0.91757  0.84434  1.0000
  H   H810      1.0  0.79710  0.93429  0.87535  1.0000
  H   H811      1.0  0.71240  0.87888  0.88922  1.0000
  H   H812      1.0  0.70079  0.86214  0.85808  1.0000
  H   H813      1.0  0.67175  0.97544  0.94087  1.0000
  H   H814      1.0  0.78255  0.84468  0.95411  1.0000
  C   C825      1.0  0.48373  0.74710  0.80763  1.0000
  H   H815      1.0  0.86939  0.97553  0.76509  1.0000
  H   H816      1.0  0.63782  0.87966  0.99381  1.0000
  H   H817      1.0  0.87024  0.88902  0.76895  1.0000
  H   H818      1.0  0.48148  0.71084  0.79348  1.0000
  C   C826      1.0  0.50153  0.75032  0.77815  1.0000
  H   H819      1.0  0.88547  0.94160  0.79294  1.0000
  C   C827      1.0  0.67126  0.83383  0.79482  1.0000
  H   H820      1.0  0.52093  0.79305  0.76652  1.0000
  C   C828      1.0  0.83924  0.75183  0.98040  1.0000
  C   C829      1.0  0.93657  0.88768  0.77641  1.0000
  C   C830      1.0  0.91234  0.88960  0.76708  1.0000
  C   C831      1.0  0.88888  0.88777  0.77628  1.0000
  C   C832      1.0  0.88919  0.88320  0.79486  1.0000
  C   C833      1.0  0.91333  0.88115  0.80418  1.0000
  C   C834      1.0  0.93706  0.88371  0.79503  1.0000
  H   H821      1.0  0.91360  0.87737  0.81854  1.0000
  H   H822      1.0  0.95533  0.88170  0.80234  1.0000
  H   H823      1.0  0.64018  0.92394  0.93695  1.0000
  S   S285      1.0  0.96566  0.89027  0.76435  1.0000
  H   H824      1.0  0.91153  0.89210  0.75264  1.0000
  C   C835      1.0  0.81073  0.87829  0.93725  1.0000
  C   C836      1.0  0.65672  0.90005  0.99606  1.0000
  H   H825      1.0  0.70781  0.88290  0.76051  1.0000
  N   N68       1.0  0.92076  0.97449  0.80584  1.0000
  C   C837      1.0  0.68147  0.96920  0.96896  1.0000
  C   C838      1.0  0.94225  0.77081  0.99385  1.0000
  H   H826      1.0  0.82468  0.88980  0.94833  1.0000
  H   H827      1.0  0.93542  0.94103  0.80469  1.0000
  C   C839      1.0  0.78701  0.85304  0.94050  1.0000
  C   C840      1.0  0.96842  0.79323  0.98967  1.0000
  C   C841      1.0  0.64659  0.91182  0.96459  1.0000
  H   H828      1.0  0.73157  0.83344  0.89676  1.0000
  S   S286      1.0  0.48284  0.79352  0.82389  1.0000
  H   H829      1.0  0.70725  0.80408  0.77303  1.0000
  H   H830      1.0  0.54066  0.79298  0.84468  1.0000
  H   H831      1.0  0.84101  0.74820  0.96624  1.0000
  C   C842      1.0  0.48859  0.73394  0.79320  1.0000
  C   C843      1.0  0.69496  0.86776  0.75064  1.0000
  H   H832      1.0  0.67472  0.84884  0.80523  1.0000
  S   S287      1.0  0.50386  0.73251  0.75946  1.0000
  C   C844      1.0  0.88648  0.79121  0.97954  1.0000
  H   H833      1.0  0.71473  0.83757  0.79726  1.0000
  C   C845      1.0  0.69385  0.82749  0.79037  1.0000
  H   H834      1.0  0.75299  0.81358  0.89317  1.0000
  H   H835      1.0  0.51252  0.81639  0.79197  1.0000
  C   C846      1.0  0.49193  0.77682  0.80712  1.0000
  H   H836      1.0  0.52736  0.78479  0.86679  1.0000
  C   C847      1.0  0.90666  0.81792  0.98488  1.0000
  H   H837      1.0  0.83391  0.90900  0.91702  1.0000
  N   N69       1.0  0.65968  0.92087  0.98103  1.0000
  C   C848      1.0  0.75332  0.83531  0.89430  1.0000
  H   H838      1.0  0.74953  0.82002  0.92889  1.0000
  N   N70       1.0  0.64046  0.80243  0.77238  1.0000
  H   H839      1.0  0.59936  0.76831  0.77044  1.0000
  C   C849      1.0  0.50601  0.79336  0.79242  1.0000
  H   H840      1.0  0.74245  0.76430  0.98011  1.0000
  C   C850      1.0  0.66247  0.79589  0.76806  1.0000
  N   N71       1.0  0.85955  0.78048  0.98548  1.0000
  N   N72       1.0  0.56979  0.81576  0.86571  1.0000
  C   C851      1.0  0.58279  0.84494  0.86678  1.0000
  C   C852      1.0  0.58380  0.79885  0.87222  1.0000
  C   C853      1.0  0.61041  0.85786  0.87483  1.0000
  C   C854      1.0  0.61148  0.81107  0.88025  1.0000
  C   C855      1.0  0.62477  0.84076  0.88163  1.0000
  C   C856      1.0  0.54064  0.80220  0.85764  1.0000
  H   H841      1.0  0.57160  0.85834  0.86179  1.0000
  H   H842      1.0  0.57311  0.77566  0.87184  1.0000
  H   H843      1.0  0.62037  0.88089  0.87626  1.0000
  H   H844      1.0  0.62208  0.79752  0.88604  1.0000
  H   H845      1.0  0.64577  0.85046  0.88850  1.0000
  C   C857      1.0  0.66802  0.96021  0.95220  1.0000
  S   S288      1.0  0.73294  0.93469  0.98922  1.0000
  H   H846      1.0  0.53012  0.81754  0.85510  1.0000
  H   H847      1.0  0.84381  0.73532  0.98907  1.0000
  H   H848      1.0  0.81683  0.74885  0.98192  1.0000
  H   H849      1.0  0.93311  0.75241  0.98552  1.0000
  H   H850      1.0  0.75894  0.84728  0.88124  1.0000
  H   H851      1.0  0.62702  0.82609  0.78910  1.0000
  C   C858      1.0  0.67691  0.94914  0.98332  1.0000
  H   H852      1.0  0.60035  0.80297  0.76222  1.0000
  H   H853      1.0  0.92829  0.82588  0.98061  1.0000
  H   H854      1.0  0.65705  0.87516  0.75373  1.0000
  C   C859      1.0  0.76302  0.83281  0.99267  1.0000
  C   C860      1.0  0.94137  0.96390  0.80554  1.0000
  Fe  Fe144     1.0  0.48193  0.74907  0.88501  1.0000
  H   H855      1.0  0.61379  0.78402  0.74921  1.0000
  H   H856      1.0  0.74948  0.97977  0.96075  1.0000
  H   H857      1.0  0.75940  0.85208  0.98910  1.0000
  H   H858      1.0  0.68826  0.95612  0.99616  1.0000
  C   C861      1.0  0.85211  0.79559  0.99694  1.0000
  C   C862      1.0  0.96600  0.96152  0.75175  1.0000
  H   H859      1.0  0.88613  0.93990  0.81705  1.0000
  C   C863      1.0  0.89066  0.95464  0.80499  1.0000
  H   H860      1.0  0.87604  0.96601  0.80426  1.0000
  C   C864      1.0  0.97033  0.98235  0.80645  1.0000
  H   H861      1.0  0.48170  0.65606  0.89235  1.0000
  H   H862      1.0  0.95296  0.93918  0.74919  1.0000
  H   H863      1.0  0.67611  0.89520  0.99788  1.0000
  H   H864      1.0  0.77649  0.98438  0.75413  1.0000
