data_image0
_chemical_formula_structural       CHSCHSFeS2CSHSCH2NFeSCH2C2FeC6H4CSHC2NC5HSCH3CHCNCHCH2FeHFeHC2HCHCSH5FeH2SCH2SHFeSFe3SHCHSCHFeSNH3C2H2C6H6CH2C2FeHC2HCS2CHNCS2C2H4C2HC2H4SHSHFeSFeSC2SNS2FeCFeSH2C2H2CH3C2HC4HC3H3C3HCFeCH2C2HC2NH2C2H2SHCSHCHC3SHCSH2C2FeCFeHSHCHS3CFeNSHCSCSHCHC3HNSHC2HCH3SH2C4HFeC2HCHCH2CH2CSHNHCFeC4H6CHC3HCSH2C2HCH2CHSC3HCHCH3FeS2FeS2FeS2Fe2S2HC7H4CH2CN2C6H5CH4C2H4CHCS2CHCHC3HCHFeCH2SCH2CHC3SH2C4SCNC3H2CHSCHCHCHCHSFeC3HCH2SH4SNSHC3H2FeS2HCHCHC2HSH2C3H2C4SCNHNCH2FeH4SFeC4H4CSFeSHFeS2FeSFeSFeS2CHCHC6H4N2HNC2HCHC2HCS2H2C3HC4H6C2HSHC4H3CH2CH2CHCH2CHFeCH2C3HCS2H2CH4S2HSC3H2C3Fe2HCH2CSH2C2H3CHCH2Fe2C2H5C2HCHC2HSNHC2HCFeHC2FeHC3NCHFeH2CHC2HS2HCHCSHNCSFeS2C4FeSHCSC2NHCSC3HC4H3NC2H2CHSFe2HCHCH2SH4C2H2CSHCH2C6HCHC3NH3CHSHCFeCFeHC3HCH2S2CHSNHCH2S2HCSHCH2SCNHC2HS2H3CHC6HC2HCHSC2Fe2HC2NH3C2H2C3H3CS2CFeSHCH2FeNH3S2CS2HFeSFeHCHC2HC2HC2HCH3CHCHCFeCH2NH2FeH3CSFeSHCH3C3HC2H4FeHCFeC3HCHSH3CH3CNC2H3CSH2CHCH2CH2FeHC2HC2FeSHC3HCSCH2CHCH2C2H3C2SCHCHC2HC3SCSHC3SCH5FeCS2CSCHC3SC2NH2Fe2HNS2CSFeH2SHC2SCHSHSHC2SH2S2CNFeHFeHFeC2FeNSC3H2SFeCFeS2NCSCSHCSFeSHFeS2FeS2FeCFeS5CFeC2HNCSHFeHC4H2CSH2SC3H2C6H8C2HC7HC4HCH2NC6H8C2H3CH2C11FeCHSHSHCNCHC2H2CHCHNSC2H3SH6C2SH4CH3SH4CHCHFeHC3HCFeS2FeSHSH2FeHFeSHSFeS2FeS2FeCFeS3CFeC2HC3HC2HC2H3NHSCSH2C7H4CNHC2H3C2H2C4HCH2C2HCHCH5CSC3S2HSHSH2CHCHCNCSC3FeHCNC6H10CH2CH2SCH2CSHCNC6H3C3H2CH4FeC2H6NH3CFeCS3NCH2FeSHSFeS2FeS2FeSFeS4CH2FeCHC2H3C3HFeCH3CH2CHC9H4C2FeSCSCHC3SH3C2NC5H5CH2CH3SH3CHC3S2C4HFeCNC2NC3HCHCH2CH2CFeHNC6H8C2H4C2H3CH2CHNH2CHC2H3CH2C3HCHC2HSNHFeHFeHSC2SCFeSCFe2S2FeS2FeCFeS5C6H4SHC2HC2H3FeC9H5C2HC5SH2FeC2H2SC2H3SCH4NH3SCH2FeSHCNC6H8NC6H5CH2CHC2SNHFeH2S2HC2HCSCHCH2CHC2HCH3C2HSH2C2NSFeSCHSFeSFeS2HFeCHFeCSFeNCS2HCH3CHFeSHNCH2C3H2CHCHCSH3CH2NS3H2NCHC4H3C2HCHCH2C3H3C3HCHCHCHC3H4CH2CHC2FeSC2SFeCFeSCSFeC2FeCSHC2S2H3CNCSNSC3H2CH2C2SH2C2HFeSH2CH3SH3CHCH2C2H2NCHCNH3FeC4HCSHC4SHS2HFeSH2SFeCFeSH2CSHS2FeSFeHSCH2CH2CHC6H4C2HC5NC2HCH2C2HCNFeHSC2HC2H2NH2CHCSHCHCHC5H3C2S2H2FeHC2H2C3H2SCHC2FeSCHSCFeSFeSHNFeSHCSFeCFeSH2CH2C8H4SCNCHCSHCH2S2CH4CH2CH4CSHC2HC3H2CHC3H3CH2NCHC
_chemical_formula_sum              "C864 H864 S288 Fe144 N72"
_cell_length_a       56.5905
_cell_length_b       56.4421
_cell_length_c       62.6142
_cell_angle_alpha    90.5549
_cell_angle_beta     90.2125
_cell_angle_gamma    116.47

_space_group_name_H-M_alt    "P 1"
_space_group_IT_number       1

loop_
  _space_group_symop_operation_xyz
  'x, y, z'

loop_
  _atom_site_type_symbol
  _atom_site_label
  _atom_site_symmetry_multiplicity
  _atom_site_fract_x
  _atom_site_fract_y
  _atom_site_fract_z
  _atom_site_occupancy
  C   C1        1.0  0.47214  0.46231  0.10123  1.0000
  H   H1        1.0  0.49539  0.44078  0.10259  1.0000
  S   S1        1.0  0.48478  0.33967  0.07912  1.0000
  C   C2        1.0  0.50551  0.33501  0.20483  1.0000
  H   H2        1.0  0.03188  0.47776  0.02420  1.0000
  S   S2        1.0  0.49822  0.38550  0.04271  1.0000
  Fe  Fe1       1.0  0.48027  0.37742  0.07540  1.0000
  S   S3        1.0  0.44517  0.38336  0.08730  1.0000
  S   S4        1.0  0.47486  0.20078  0.01181  1.0000
  C   C3        1.0  0.49368  0.31710  0.16295  1.0000
  S   S5        1.0  0.40512  0.51095  0.08916  1.0000
  H   H3        1.0  0.44809  0.50235  0.06193  1.0000
  S   S6        1.0  0.34267  0.47796  0.07243  1.0000
  C   C4        1.0  0.37367  0.49702  0.22580  1.0000
  H   H4        1.0  0.49847  0.48083  0.04405  1.0000
  H   H5        1.0  0.28088  0.47278  0.03479  1.0000
  N   N1        1.0  0.51216  0.31594  0.19735  1.0000
  Fe  Fe2       1.0  0.38322  0.48416  0.06163  1.0000
  S   S7        1.0  0.39806  0.45661  0.04593  1.0000
  C   C5        1.0  0.29076  0.51122  0.02191  1.0000
  H   H6        1.0  0.46197  0.23099  0.04285  1.0000
  H   H7        1.0  0.51096  0.34298  0.22089  1.0000
  C   C6        1.0  0.48983  0.45354  0.09312  1.0000
  C   C7        1.0  0.47540  0.24483  0.03157  1.0000
  Fe  Fe3       1.0  0.50632  0.35007  0.04780  1.0000
  C   C8        1.0  0.43234  0.40382  0.07555  1.0000
  C   C9        1.0  0.43820  0.41276  0.05457  1.0000
  C   C10       1.0  0.42729  0.42863  0.04575  1.0000
  C   C11       1.0  0.41102  0.43641  0.05794  1.0000
  C   C12       1.0  0.40545  0.42780  0.07902  1.0000
  C   C13       1.0  0.41576  0.41128  0.08764  1.0000
  H   H8        1.0  0.45070  0.40698  0.04501  1.0000
  H   H9        1.0  0.43146  0.43492  0.02935  1.0000
  H   H10       1.0  0.39273  0.43335  0.08851  1.0000
  H   H11       1.0  0.41092  0.40430  0.10383  1.0000
  C   C14       1.0  0.25702  0.48647  0.07523  1.0000
  S   S8        1.0  0.51826  0.40253  0.09275  1.0000
  H   H12       1.0  0.44984  0.48382  0.09470  1.0000
  C   C15       1.0  0.24726  0.47357  0.01863  1.0000
  C   C16       1.0  0.49961  0.46050  0.07253  1.0000
  N   N2        1.0  0.47357  0.48416  0.06816  1.0000
  C   C17       1.0  0.26683  0.47242  0.08781  1.0000
  C   C18       1.0  0.49122  0.47593  0.06019  1.0000
  C   C19       1.0  0.30271  0.51380  0.09916  1.0000
  C   C20       1.0  0.48521  0.23534  0.01462  1.0000
  C   C21       1.0  0.49272  0.34554  0.19156  1.0000
  H   H13       1.0  0.47443  0.27906  0.04677  1.0000
  S   S9        1.0  0.50655  0.32404  0.01961  1.0000
  C   C22       1.0  0.49930  0.29006  0.01910  1.0000
  H   H14       1.0  0.47790  0.34529  0.15974  1.0000
  H   H15       1.0  0.45768  0.49006  0.03901  1.0000
  H   H16       1.0  0.51271  0.29274  0.17039  1.0000
  C   C23       1.0  0.27374  0.48468  0.02592  1.0000
  H   H17       1.0  0.23422  0.45307  0.02195  1.0000
  C   C24       1.0  0.46422  0.47777  0.08849  1.0000
  N   N3        1.0  0.27010  0.51351  0.07434  1.0000
  C   C25       1.0  0.50652  0.30704  0.17665  1.0000
  H   H18       1.0  0.46387  0.45633  0.11700  1.0000
  C   C26       1.0  0.48250  0.27208  0.03388  1.0000
  H   H19       1.0  0.49027  0.31090  0.14630  1.0000
  H   H20       1.0  0.29767  0.47567  0.10978  1.0000
  Fe  Fe4       1.0  0.36531  0.50731  0.09876  1.0000
  H   H21       1.0  0.23914  0.47559  0.06588  1.0000
  Fe  Fe5       1.0  0.52428  0.36593  0.09413  1.0000
  H   H22       1.0  0.51681  0.30035  0.22707  1.0000
  C   C27       1.0  0.48681  0.33652  0.17048  1.0000
  C   C28       1.0  0.28979  0.48624  0.09990  1.0000
  H   H23       1.0  0.48854  0.36145  0.19736  1.0000
  C   C29       1.0  0.36495  0.49020  0.24668  1.0000
  H   H24       1.0  0.25677  0.45097  0.08815  1.0000
  C   C30       1.0  0.46491  0.50005  0.05475  1.0000
  S   S10       1.0  0.34810  0.50094  0.13222  1.0000
  H   H25       1.0  0.51320  0.45349  0.06606  1.0000
  H   H26       1.0  0.36087  0.48691  0.21233  1.0000
  H   H27       1.0  0.34528  0.47464  0.24964  1.0000
  H   H28       1.0  0.24460  0.51511  0.04958  1.0000
  H   H29       1.0  0.51464  0.27111  0.08869  1.0000
  Fe  Fe6       1.0  0.34895  0.51384  0.05309  1.0000
  H   H30       1.0  0.32993  0.50521  0.17426  1.0000
  H   H31       1.0  0.51972  0.23727  0.06619  1.0000
  S   S11       1.0  0.38733  0.51748  0.03997  1.0000
  C   C31       1.0  0.39887  0.51753  0.22231  1.0000
  H   H32       1.0  0.38785  0.37251  0.41019  1.0000
  H   H33       1.0  0.45605  0.22670  0.49408  1.0000
  S   S12       1.0  0.48274  0.33854  0.45321  1.0000
  H   H34       1.0  0.49803  0.24166  0.43845  1.0000
  Fe  Fe7       1.0  0.35453  0.50545  0.43465  1.0000
  S   S13       1.0  0.49156  0.38130  0.49205  1.0000
  Fe  Fe8       1.0  0.50189  0.34744  0.48594  1.0000
  Fe  Fe9       1.0  0.34298  0.51109  0.48203  1.0000
  Fe  Fe10      1.0  0.47617  0.37519  0.45831  1.0000
  S   S14       1.0  0.44080  0.38092  0.44646  1.0000
  H   H35       1.0  0.37938  0.34975  0.44494  1.0000
  C   C32       1.0  0.35804  0.37024  0.45757  1.0000
  H   H36       1.0  0.37241  0.40665  0.40385  1.0000
  S   S15       1.0  0.33442  0.47573  0.46067  1.0000
  C   C33       1.0  0.36767  0.39599  0.41877  1.0000
  H   H37       1.0  0.40151  0.41370  0.50185  1.0000
  Fe  Fe11      1.0  0.37578  0.48150  0.46851  1.0000
  S   S16       1.0  0.38420  0.44811  0.48111  1.0000
  N   N4        1.0  0.35438  0.40216  0.43437  1.0000
  H   H38       1.0  0.50751  0.37042  0.39124  1.0000
  H   H39       1.0  0.46856  0.27453  0.48895  1.0000
  H   H40       1.0  0.34048  0.39561  0.46645  1.0000
  C   C34       1.0  0.50793  0.28900  0.42220  1.0000
  C   C35       1.0  0.37151  0.36376  0.44173  1.0000
  H   H41       1.0  0.49973  0.30354  0.42396  1.0000
  H   H42       1.0  0.35530  0.36124  0.47316  1.0000
  C   C36       1.0  0.43213  0.40502  0.45776  1.0000
  C   C37       1.0  0.42289  0.40237  0.47873  1.0000
  C   C38       1.0  0.40965  0.41695  0.48593  1.0000
  C   C39       1.0  0.40571  0.43465  0.47243  1.0000
  C   C40       1.0  0.41629  0.43854  0.45184  1.0000
  C   C41       1.0  0.42912  0.42352  0.44448  1.0000
  H   H43       1.0  0.42452  0.38787  0.48901  1.0000
  H   H44       1.0  0.34164  0.42470  0.41419  1.0000
  H   H45       1.0  0.41350  0.45211  0.44125  1.0000
  H   H46       1.0  0.43583  0.42548  0.42815  1.0000
  H   H47       1.0  0.50135  0.37394  0.35227  1.0000
  H   H48       1.0  0.27213  0.48095  0.48794  1.0000
  C   C42       1.0  0.34726  0.42387  0.43110  1.0000
  H   H49       1.0  0.37475  0.49908  0.28011  1.0000
  H   H50       1.0  0.36429  0.44299  0.43554  1.0000
  C   C43       1.0  0.34964  0.38966  0.45363  1.0000
  C   C44       1.0  0.37632  0.37663  0.42217  1.0000
  Fe  Fe12      1.0  0.52264  0.36724  0.44108  1.0000
  H   H51       1.0  0.22474  0.46611  0.49630  1.0000
  C   C45       1.0  0.38146  0.50388  0.26377  1.0000
  C   C46       1.0  0.50990  0.25818  0.44890  1.0000
  H   H52       1.0  0.17487  0.51106  0.50560  1.0000
  C   C47       1.0  0.51942  0.36595  0.37993  1.0000
  S   S17       1.0  0.33529  0.50320  0.40234  1.0000
  S   S18       1.0  0.38279  0.51460  0.49188  1.0000
  C   C48       1.0  0.26662  0.49023  0.50092  1.0000
  H   H53       1.0  0.33024  0.42155  0.44117  1.0000
  N   N5        1.0  0.51634  0.28363  0.44303  1.0000
  C   C49       1.0  0.51598  0.36796  0.35784  1.0000
  S   S19       1.0  0.51489  0.40281  0.44380  1.0000
  S   S20       1.0  0.39496  0.50854  0.44092  1.0000
  C   C50       1.0  0.51835  0.25303  0.46861  1.0000
  C   C51       1.0  0.47721  0.26842  0.50191  1.0000
  H   H54       1.0  0.51271  0.23283  0.47354  1.0000
  H   H55       1.0  0.52513  0.29764  0.41132  1.0000
  H   H56       1.0  0.38802  0.51279  0.38798  1.0000
  H   H57       1.0  0.49238  0.27089  0.41456  1.0000
  C   C52       1.0  0.35222  0.51412  0.37792  1.0000
  C   C53       1.0  0.47017  0.24128  0.50486  1.0000
  H   H58       1.0  0.42426  0.02746  0.50111  1.0000
  C   C54       1.0  0.23971  0.48183  0.50573  1.0000
  C   C55       1.0  0.37793  0.51715  0.37503  1.0000
  H   H59       1.0  0.31946  0.51744  0.36299  1.0000
  H   H60       1.0  0.50950  0.22473  0.66893  1.0000
  H   H61       1.0  0.49839  0.02344  0.54552  1.0000
  H   H62       1.0  0.50786  0.24592  0.54854  1.0000
  S   S21       1.0  0.50176  0.14939  0.54093  1.0000
  H   H63       1.0  0.43216  0.04699  0.52552  1.0000
  S   S22       1.0  0.46172  0.15359  0.57686  1.0000
  H   H64       1.0  0.12402  0.42876  0.61059  1.0000
  Fe  Fe13      1.0  0.47978  0.12581  0.56950  1.0000
  S   S23       1.0  0.46603  0.08079  0.57001  1.0000
  Fe  Fe14      1.0  0.48665  0.17910  0.55001  1.0000
  S   S24       1.0  0.47105  0.19836  0.52504  1.0000
  C   C56       1.0  0.41718  0.18576  0.56916  1.0000
  C   C57       1.0  0.11152  0.40851  0.56406  1.0000
  S   S25       1.0  0.13470  0.48724  0.54192  1.0000
  N   N6        1.0  0.12825  0.41257  0.58105  1.0000
  S   S26       1.0  0.16501  0.48552  0.58579  1.0000
  S   S27       1.0  0.19779  0.48170  0.52814  1.0000
  Fe  Fe15      1.0  0.17660  0.49716  0.55152  1.0000
  C   C58       1.0  0.43162  0.17556  0.62577  1.0000
  Fe  Fe16      1.0  0.12399  0.47976  0.57643  1.0000
  S   S28       1.0  0.08646  0.44482  0.58809  1.0000
  H   H65       1.0  0.43874  0.21988  0.54974  1.0000
  H   H66       1.0  0.44025  0.16135  0.62436  1.0000
  C   C59       1.0  0.51016  0.19126  0.65249  1.0000
  C   C60       1.0  0.43822  0.02745  0.57706  1.0000
  H   H67       1.0  0.18615  0.43378  0.55470  1.0000
  H   H68       1.0  0.09631  0.39824  0.60330  1.0000
  C   C61       1.0  0.43629  0.05088  0.57236  1.0000
  H   H69       1.0  0.12623  0.39774  0.61251  1.0000
  H   H70       1.0  0.03546  0.40449  0.60074  1.0000
  H   H71       1.0  0.09061  0.40223  0.56657  1.0000
  C   C62       1.0  0.41139  0.04920  0.56760  1.0000
  C   C63       1.0  0.51437  0.20830  0.67014  1.0000
  H   H72       1.0  0.40952  0.06697  0.56393  1.0000
  C   C64       1.0  0.48120  0.23288  0.52163  1.0000
  C   C65       1.0  0.45525  0.22479  0.58148  1.0000
  C   C66       1.0  0.49512  0.28750  0.51594  1.0000
  C   C67       1.0  0.23207  0.49348  0.52264  1.0000
  H   H73       1.0  0.16811  0.42536  0.59134  1.0000
  C   C68       1.0  0.16504  0.42609  0.55722  1.0000
  C   C69       1.0  0.05377  0.43822  0.58018  1.0000
  C   C70       1.0  0.14814  0.42205  0.53982  1.0000
  H   H74       1.0  0.06541  0.47036  0.55810  1.0000
  H   H75       1.0  0.40036  0.15459  0.59199  1.0000
  H   H76       1.0  0.40356  0.17469  0.55642  1.0000
  C   C71       1.0  0.49922  0.25198  0.53555  1.0000
  C   C72       1.0  0.12120  0.41325  0.54322  1.0000
  C   C73       1.0  0.03205  0.41665  0.58907  1.0000
  H   H77       1.0  0.36990  0.02309  0.56261  1.0000
  C   C74       1.0  0.43707  0.21111  0.56536  1.0000
  Fe  Fe17      1.0  0.49790  0.17645  0.59735  1.0000
  C   C75       1.0  0.46407  0.02595  0.53276  1.0000
  H   H78       1.0  0.44292  0.19027  0.63844  1.0000
  H   H79       1.0  0.47354  0.04746  0.53320  1.0000
  C   C76       1.0  0.45307  0.21297  0.60139  1.0000
  C   C77       1.0  0.41552  0.17455  0.58928  1.0000
  H   H80       1.0  0.46760  0.22355  0.61372  1.0000
  C   C78       1.0  0.04898  0.45375  0.56513  1.0000
  C   C79       1.0  0.15472  0.42133  0.57786  1.0000
  N   N7        1.0  0.43320  0.18825  0.60514  1.0000
  H   H81       1.0  0.47121  0.24423  0.57844  1.0000
  H   H82       1.0  0.15610  0.42645  0.52380  1.0000
  C   C80       1.0  0.50594  0.27903  0.53281  1.0000
  C   C81       1.0  0.11824  0.40905  0.60295  1.0000
  H   H83       1.0  0.45729  0.02850  0.58100  1.0000
  H   H84       1.0  0.17121  0.49657  0.67953  1.0000
  S   S29       1.0  0.49777  0.19757  0.62837  1.0000
  H   H85       1.0  0.51291  0.15656  0.64092  1.0000
  C   C82       1.0  0.28630  0.51033  0.51308  1.0000
  S   S30       1.0  0.51412  0.14734  0.59210  1.0000
  H   H86       1.0  0.10798  0.41067  0.52986  1.0000
  C   C83       1.0  0.25171  0.51385  0.53461  1.0000
  H   H87       1.0  0.41085  0.16488  0.63112  1.0000
  C   C84       1.0  0.42369  0.02650  0.51880  1.0000
  C   C85       1.0  0.51630  0.16997  0.65430  1.0000
  C   C86       1.0  0.18449  0.51595  0.67372  1.0000
  S   S31       1.0  0.50474  0.32203  0.51333  1.0000
  H   H88       1.0  0.17042  0.50674  0.64103  1.0000
  C   C87       1.0  0.38898  0.02425  0.56674  1.0000
  S   S32       1.0  0.52138  0.20324  0.57104  1.0000
  H   H89       1.0  0.51978  0.29356  0.54379  1.0000
  H   H90       1.0  0.51900  0.38827  0.53842  1.0000
  C   C88       1.0  0.52525  0.20448  0.68931  1.0000
  C   C89       1.0  0.45745  0.28874  0.97882  1.0000
  Fe  Fe18      1.0  0.48943  0.18184  0.98588  1.0000
  C   C90       1.0  0.06134  0.49238  0.99979  1.0000
  Fe  Fe19      1.0  0.48366  0.12971  0.96454  1.0000
  H   H91       1.0  0.07634  0.38866  0.95409  1.0000
  S   S33       1.0  0.47118  0.08551  0.95862  1.0000
  H   H92       1.0  0.51009  0.24653  0.98696  1.0000
  C   C91       1.0  0.04476  0.48380  0.96359  1.0000
  H   H93       1.0  0.03632  0.42327  0.92433  1.0000
  S   S34       1.0  0.50586  0.15294  0.99372  1.0000
  S   S35       1.0  0.46425  0.15645  0.95850  1.0000
  S   S36       1.0  0.13852  0.48147  0.98794  1.0000
  C   C92       1.0  0.47484  0.13034  0.86443  1.0000
  Fe  Fe20      1.0  0.12919  0.47406  0.95301  1.0000
  N   N8        1.0  0.47645  0.10508  0.89464  1.0000
  S   S37       1.0  0.08996  0.44307  0.93926  1.0000
  H   H94       1.0  0.52217  0.29433  0.99068  1.0000
  C   C93       1.0  0.03199  0.36425  0.93264  1.0000
  S   S38       1.0  0.17036  0.47986  0.94465  1.0000
  C   C94       1.0  0.03588  0.42256  0.94160  1.0000
  S   S39       1.0  0.49474  0.19887  0.90753  1.0000
  H   H95       1.0  0.19180  0.48599  0.87948  1.0000
  C   C95       1.0  0.50246  0.25345  0.00013  1.0000
  H   H96       1.0  0.03413  0.41818  0.00324  1.0000
  C   C96       1.0  0.46421  0.22352  0.95023  1.0000
  C   C97       1.0  0.44342  0.05443  0.96323  1.0000
  C   C98       1.0  0.41915  0.05231  0.97034  1.0000
  H   H97       1.0  0.23645  0.51700  0.89271  1.0000
  N   N9        1.0  0.46004  0.26625  0.96916  1.0000
  S   S40       1.0  0.52321  0.20751  0.96527  1.0000
  H   H98       1.0  0.41691  0.07002  0.97373  1.0000
  C   C99       1.0  0.48568  0.08738  0.90478  1.0000
  C   C100      1.0  0.39759  0.02710  0.97303  1.0000
  H   H99       1.0  0.46915  0.07116  0.91317  1.0000
  C   C101      1.0  0.20685  0.49812  0.86829  1.0000
  H   H100      1.0  0.48082  0.13721  0.84827  1.0000
  H   H101      1.0  0.18098  0.48484  0.84076  1.0000
  H   H102      1.0  0.45708  0.10857  0.92280  1.0000
  S   S41       1.0  0.20347  0.47407  0.99951  1.0000
  H   H103      1.0  0.49540  0.10635  0.86491  1.0000
  H   H104      1.0  0.37890  0.02570  0.97848  1.0000
  C   C102      1.0  0.05978  0.43238  0.95319  1.0000
  C   C103      1.0  0.05896  0.43132  0.97549  1.0000
  C   C104      1.0  0.44579  0.03105  0.95891  1.0000
  C   C105      1.0  0.46003  0.13995  0.87623  1.0000
  H   H105      1.0  0.07718  0.43867  0.98461  1.0000
  Fe  Fe21      1.0  0.49965  0.18071  0.93838  1.0000
  C   C106      1.0  0.06127  0.37257  0.96374  1.0000
  C   C107      1.0  0.46191  0.11442  0.90631  1.0000
  H   H106      1.0  0.51778  0.21454  0.83167  1.0000
  C   C108      1.0  0.22005  0.51424  0.83261  1.0000
  H   H107      1.0  0.45451  0.15436  0.86932  1.0000
  C   C109      1.0  0.47830  0.24887  0.94209  1.0000
  H   H108      1.0  0.06670  0.35599  0.96477  1.0000
  H   H109      1.0  0.04831  0.48482  0.94652  1.0000
  C   C110      1.0  0.47590  0.27016  0.95177  1.0000
  H   H110      1.0  0.48701  0.28985  0.94543  1.0000
  H   H111      1.0  0.08611  0.50398  0.97201  1.0000
  C   C111      1.0  0.50927  0.28059  0.00228  1.0000
  S   S42       1.0  0.51727  0.15264  0.94235  1.0000
  H   H112      1.0  0.50126  0.09861  0.91684  1.0000
  N   N10       1.0  0.03483  0.36320  0.95428  1.0000
  H   H113      1.0  0.46610  0.20696  0.94294  1.0000
  C   C112      1.0  0.52036  0.20573  0.84623  1.0000
  Fe  Fe22      1.0  0.18074  0.49113  0.97942  1.0000
  C   C113      1.0  0.48317  0.11301  0.87401  1.0000
  C   C114      1.0  0.44591  0.24135  0.97708  1.0000
  C   C115      1.0  0.51168  0.19701  0.88433  1.0000
  C   C116      1.0  0.45354  0.13202  0.89731  1.0000
  H   H114      1.0  0.46446  0.03238  0.95347  1.0000
  H   H115      1.0  0.49111  0.25188  0.92845  1.0000
  H   H116      1.0  0.06215  0.38111  0.97997  1.0000
  H   H117      1.0  0.44203  0.29214  0.97029  1.0000
  H   H118      1.0  0.44282  0.14012  0.90681  1.0000
  H   H119      1.0  0.49834  0.22067  0.86560  1.0000
  C   C117      1.0  0.50928  0.20909  0.86547  1.0000
  H   H120      1.0  0.45221  0.28535  0.99602  1.0000
  C   C118      1.0  0.06601  0.49443  0.97788  1.0000
  C   C119      1.0  0.03451  0.41959  0.98600  1.0000
  C   C120      1.0  0.20080  0.49742  0.84660  1.0000
  H   H121      1.0  0.49380  0.07814  0.89304  1.0000
  C   C121      1.0  0.25467  0.51510  0.00276  1.0000
  S   S43       1.0  0.13849  0.51611  0.94563  1.0000
  H   H122      1.0  0.47650  0.30706  0.97833  1.0000
  H   H123      1.0  0.04925  0.37293  0.92253  1.0000
  C   C122      1.0  0.03535  0.47947  0.00713  1.0000
  C   C123      1.0  0.44792  0.21966  0.96783  1.0000
  H   H124      1.0  0.21481  0.51442  0.81593  1.0000
  C   C124      1.0  0.23748  0.48871  0.00712  1.0000
  H   H125      1.0  0.43749  0.20010  0.97466  1.0000
  H   H126      1.0  0.43362  0.23823  0.99104  1.0000
  C   C125      1.0  0.23199  0.51551  0.87572  1.0000
  H   H127      1.0  0.07789  0.50067  0.01095  1.0000
  S   S44       1.0  0.09208  0.65278  0.08189  1.0000
  C   C126      1.0  0.16668  0.78768  0.08854  1.0000
  C   C127      1.0  0.05949  0.64657  0.07409  1.0000
  C   C128      1.0  0.05419  0.65795  0.05606  1.0000
  H   H128      1.0  0.07038  0.67209  0.04685  1.0000
  C   C129      1.0  0.20952  0.79560  0.07534  1.0000
  H   H129      1.0  0.22321  0.80063  0.06216  1.0000
  C   C130      1.0  0.18467  0.79456  0.07182  1.0000
  H   H130      1.0  0.17924  0.79830  0.05599  1.0000
  H   H131      1.0  0.25747  0.80534  0.08866  1.0000
  H   H132      1.0  0.14713  0.78625  0.08589  1.0000
  Fe  Fe23      1.0  0.21592  0.69951  0.24571  1.0000
  S   S45       1.0  0.18212  0.69174  0.22272  1.0000
  S   S46       1.0  0.25756  0.71508  0.23491  1.0000
  Fe  Fe24      1.0  0.18734  0.71083  0.09768  1.0000
  S   S47       1.0  0.15925  0.72312  0.08121  1.0000
  S   S48       1.0  0.21178  0.73090  0.12720  1.0000
  Fe  Fe25      1.0  0.18449  0.67363  0.06093  1.0000
  S   S49       1.0  0.15621  0.68296  0.04167  1.0000
  S   S50       1.0  0.20335  0.64790  0.05005  1.0000
  Fe  Fe26      1.0  0.18277  0.72550  0.05142  1.0000
  Fe  Fe27      1.0  0.13522  0.67966  0.07302  1.0000
  S   S51       1.0  0.21201  0.71593  0.06851  1.0000
  S   S52       1.0  0.16246  0.66757  0.09160  1.0000
  H   H133      1.0  0.21340  0.60705  0.03096  1.0000
  C   C131      1.0  0.18231  0.61840  0.03679  1.0000
  C   C132      1.0  0.19019  0.70282  0.19617  1.0000
  C   C133      1.0  0.17125  0.69169  0.17977  1.0000
  C   C134      1.0  0.17743  0.70008  0.15850  1.0000
  C   C135      1.0  0.20251  0.71998  0.15360  1.0000
  C   C136      1.0  0.22128  0.73128  0.17004  1.0000
  C   C137      1.0  0.21524  0.72262  0.19117  1.0000
  H   H134      1.0  0.15176  0.67647  0.18352  1.0000
  H   H135      1.0  0.16278  0.69126  0.14595  1.0000
  H   H136      1.0  0.24069  0.74673  0.16642  1.0000
  H   H137      1.0  0.22982  0.73175  0.20366  1.0000
  C   C138      1.0  0.27819  0.80154  0.03120  1.0000
  H   H138      1.0  0.24778  0.79130  0.11473  1.0000
  H   H139      1.0  0.19601  0.62901  0.19876  1.0000
  C   C139      1.0  0.24170  0.78913  0.09764  1.0000
  N   N11       1.0  0.21623  0.78972  0.09489  1.0000
  N   N12       1.0  0.22466  0.66214  0.18192  1.0000
  C   C140      1.0  0.25053  0.68059  0.18123  1.0000
  C   C141      1.0  0.20832  0.65817  0.16468  1.0000
  C   C142      1.0  0.26077  0.69538  0.16279  1.0000
  C   C143      1.0  0.21801  0.67230  0.14587  1.0000
  C   C144      1.0  0.24435  0.69114  0.14501  1.0000
  C   C145      1.0  0.21412  0.64777  0.20173  1.0000
  H   H140      1.0  0.26332  0.68411  0.19508  1.0000
  H   H141      1.0  0.18754  0.64443  0.16552  1.0000
  H   H142      1.0  0.28116  0.71029  0.16244  1.0000
  H   H143      1.0  0.20491  0.66956  0.13235  1.0000
  H   H144      1.0  0.25172  0.70293  0.13076  1.0000
  C   C146      1.0  0.17372  0.78183  0.10850  1.0000
  H   H145      1.0  0.24789  0.76860  0.04780  1.0000
  H   H146      1.0  0.20365  0.77736  0.12672  1.0000
  H   H147      1.0  0.20923  0.66035  0.21283  1.0000
  H   H148      1.0  0.29400  0.80192  0.04118  1.0000
  C   C147      1.0  0.25198  0.78257  0.03501  1.0000
  C   C148      1.0  0.19866  0.78277  0.11136  1.0000
  H   H149      1.0  0.24007  0.76984  0.09169  1.0000
  H   H150      1.0  0.31756  0.60087  0.23393  1.0000
  H   H151      1.0  0.15967  0.77578  0.12148  1.0000
  H   H152      1.0  0.22881  0.64257  0.20961  1.0000
  C   C149      1.0  0.30005  0.62781  0.23322  1.0000
  H   H153      1.0  0.31009  0.63735  0.21878  1.0000
  C   C150      1.0  0.30448  0.60732  0.24188  1.0000
  S   S53       1.0  0.19745  0.76014  0.02807  1.0000
  S   S54       1.0  0.27876  0.66254  0.23234  1.0000
  C   C151      1.0  0.28285  0.63606  0.24322  1.0000
  H   H154      1.0  0.14745  0.62434  0.04002  1.0000
  C   C152      1.0  0.15563  0.61178  0.03354  1.0000
  H   H155      1.0  0.04189  0.61952  0.09995  1.0000
  C   C153      1.0  0.19276  0.60198  0.02842  1.0000
  C   C154      1.0  0.23116  0.78207  0.02254  1.0000
  C   C155      1.0  0.03808  0.62833  0.08590  1.0000
  H   H156      1.0  0.30308  0.54860  0.08537  1.0000
  C   C156      1.0  0.04015  0.58129  0.05917  1.0000
  H   H157      1.0  0.06093  0.59118  0.06365  1.0000
  Fe  Fe28      1.0  0.25848  0.68117  0.25229  1.0000
  C   C157      1.0  0.29266  0.52719  0.08610  1.0000
  H   H158      1.0  0.11891  0.58389  0.01919  1.0000
  H   H159      1.0  0.04506  0.60622  0.03224  1.0000
  S   S55       1.0  0.32366  0.52717  0.03224  1.0000
  C   C158      1.0  0.13951  0.58887  0.02180  1.0000
  H   H160      1.0  0.27541  0.54398  0.05243  1.0000
  H   H161      1.0  0.02882  0.55483  0.08589  1.0000
  C   C159      1.0  0.28415  0.82000  0.01464  1.0000
  H   H162      1.0  0.24976  0.53716  0.07206  1.0000
  C   C160      1.0  0.25938  0.52816  0.06154  1.0000
  C   C161      1.0  0.29156  0.59485  0.26050  1.0000
  C   C162      1.0  0.17669  0.57917  0.01655  1.0000
  S   S56       1.0  0.21585  0.66375  0.26116  1.0000
  H   H163      1.0  0.32051  0.52469  0.10862  1.0000
  H   H164      1.0  0.32509  0.72283  0.25689  1.0000
  C   C163      1.0  0.02781  0.65082  0.04984  1.0000
  C   C164      1.0  0.15006  0.57267  0.01316  1.0000
  C   C165      1.0  0.03103  0.58984  0.04145  1.0000
  C   C166      1.0  0.40640  0.52454  0.25969  1.0000
  S   S57       1.0  0.35443  0.54704  0.26021  1.0000
  C   C167      1.0  0.52030  0.77632  0.20020  1.0000
  N   N13       1.0  0.39961  0.59160  0.01253  1.0000
  C   C168      1.0  0.34982  0.52085  0.17282  1.0000
  C   C169      1.0  0.42269  0.84944  0.03936  1.0000
  C   C170      1.0  0.52047  0.85669  0.19166  1.0000
  H   H165      1.0  0.45655  0.54823  0.24184  1.0000
  H   H166      1.0  0.52511  0.79331  0.15969  1.0000
  C   C171      1.0  0.49408  0.86967  0.16852  1.0000
  H   H167      1.0  0.50038  0.64665  0.01281  1.0000
  S   S58       1.0  0.36989  0.61010  0.24927  1.0000
  C   C172      1.0  0.46994  0.80150  0.16724  1.0000
  H   H168      1.0  0.37271  0.75359  0.25328  1.0000
  C   C173      1.0  0.47613  0.61823  0.03606  1.0000
  H   H169      1.0  0.48137  0.52006  0.05238  1.0000
  C   C174      1.0  0.38914  0.54399  0.15187  1.0000
  H   H170      1.0  0.47772  0.77847  0.21526  1.0000
  C   C175      1.0  0.36670  0.73384  0.25939  1.0000
  H   H171      1.0  0.43724  0.55302  0.02561  1.0000
  S   S59       1.0  0.47620  0.85760  0.20958  1.0000
  Fe  Fe29      1.0  0.52277  0.90206  0.06775  1.0000
  C   C176      1.0  0.48328  0.89554  0.01993  1.0000
  C   C177      1.0  0.44092  0.55305  0.23543  1.0000
  C   C178      1.0  0.50792  0.79268  0.16776  1.0000
  H   H172      1.0  0.39900  0.60905  0.04302  1.0000
  C   C179      1.0  0.38152  0.84220  0.01183  1.0000
  H   H173      1.0  0.36909  0.86056  0.03655  1.0000
  H   H174      1.0  0.35100  0.53580  0.20502  1.0000
  S   S60       1.0  0.36918  0.54248  0.08011  1.0000
  H   H175      1.0  0.42757  0.88010  0.07207  1.0000
  H   H176      1.0  0.35447  0.81162  0.25225  1.0000
  H   H177      1.0  0.44239  0.57143  0.24325  1.0000
  H   H178      1.0  0.36843  0.58155  0.03479  1.0000
  S   S61       1.0  0.51689  0.84181  0.25476  1.0000
  N   N14       1.0  0.41475  0.53117  0.23916  1.0000
  S   S62       1.0  0.49774  0.76440  0.25313  1.0000
  H   H179      1.0  0.50687  0.87760  0.13569  1.0000
  C   C180      1.0  0.36347  0.52366  0.15355  1.0000
  C   C181      1.0  0.47470  0.90643  0.03658  1.0000
  C   C182      1.0  0.46810  0.71023  0.25530  1.0000
  H   H180      1.0  0.43918  0.85262  0.04986  1.0000
  H   H181      1.0  0.44844  0.92311  0.04539  1.0000
  Fe  Fe30      1.0  0.40697  0.54368  0.06803  1.0000
  S   S63       1.0  0.44339  0.58288  0.06510  1.0000
  S   S64       1.0  0.52283  0.86276  0.07341  1.0000
  H   H182      1.0  0.40530  0.52294  0.20601  1.0000
  C   C183      1.0  0.45077  0.57343  0.02293  1.0000
  H   H183      1.0  0.44397  0.66784  0.25705  1.0000
  C   C184      1.0  0.49868  0.86182  0.18873  1.0000
  H   H184      1.0  0.44452  0.55752  0.21814  1.0000
  C   C185      1.0  0.46493  0.79331  0.18839  1.0000
  C   C186      1.0  0.36169  0.53818  0.19027  1.0000
  H   H185      1.0  0.39393  0.85645  0.07775  1.0000
  S   S65       1.0  0.48595  0.90745  0.06298  1.0000
  H   H186      1.0  0.47727  0.87370  0.16614  1.0000
  H   H187      1.0  0.39989  0.54636  0.13715  1.0000
  C   C187      1.0  0.45777  0.59192  0.03968  1.0000
  C   C188      1.0  0.48687  0.62616  0.01563  1.0000
  C   C189      1.0  0.45490  0.91435  0.03264  1.0000
  H   H188      1.0  0.40113  0.88747  0.06471  1.0000
  H   H189      1.0  0.47754  0.70913  0.24060  1.0000
  C   C190      1.0  0.40682  0.87106  0.06602  1.0000
  C   C191      1.0  0.42117  0.83776  0.01926  1.0000
  C   C192      1.0  0.40115  0.56104  0.16941  1.0000
  C   C193      1.0  0.49148  0.80110  0.15678  1.0000
  S   S66       1.0  0.40443  0.57884  0.21077  1.0000
  C   C194      1.0  0.38753  0.55826  0.18868  1.0000
  N   N15       1.0  0.40455  0.85811  0.04518  1.0000
  H   H190      1.0  0.45769  0.80907  0.15925  1.0000
  N   N16       1.0  0.50274  0.78450  0.18848  1.0000
  C   C195      1.0  0.38382  0.85414  0.03189  1.0000
  H   H191      1.0  0.49846  0.88925  0.02286  1.0000
  H   H192      1.0  0.44879  0.79447  0.19690  1.0000
  Fe  Fe31      1.0  0.47955  0.84109  0.24181  1.0000
  H   H193      1.0  0.49611  0.80834  0.14057  1.0000
  H   H194      1.0  0.48164  0.63264  0.04897  1.0000
  H   H195      1.0  0.39606  0.57615  0.04350  1.0000
  H   H196      1.0  0.42116  0.57645  0.16804  1.0000
  S   S67       1.0  0.45412  0.79799  0.24821  1.0000
  Fe  Fe32      1.0  0.38617  0.58086  0.24268  1.0000
  C   C196      1.0  0.51079  0.87185  0.15125  1.0000
  C   C197      1.0  0.39029  0.58962  0.03453  1.0000
  C   C198      1.0  0.48156  0.78468  0.19878  1.0000
  C   C199      1.0  0.44286  0.91036  0.01242  1.0000
  H   H197      1.0  0.42946  0.63144  0.01626  1.0000
  H   H198      1.0  0.50866  0.75660  0.20749  1.0000
  H   H199      1.0  0.43640  0.83226  0.01424  1.0000
  H   H200      1.0  0.52425  0.85069  0.20712  1.0000
  C   C200      1.0  0.05002  0.66316  0.46054  1.0000
  S   S68       1.0  0.27284  0.70348  0.28319  1.0000
  Fe  Fe33      1.0  0.22978  0.68935  0.29087  1.0000
  S   S69       1.0  0.21282  0.67003  0.32259  1.0000
  H   H201      1.0  0.17283  0.78229  0.45412  1.0000
  Fe  Fe34      1.0  0.17244  0.70762  0.43421  1.0000
  S   S70       1.0  0.14801  0.72149  0.45463  1.0000
  S   S71       1.0  0.18010  0.72260  0.40005  1.0000
  Fe  Fe35      1.0  0.18364  0.68022  0.47156  1.0000
  S   S72       1.0  0.16051  0.69228  0.49431  1.0000
  Fe  Fe36      1.0  0.12975  0.68015  0.46801  1.0000
  S   S73       1.0  0.08809  0.64937  0.47747  1.0000
  Fe  Fe37      1.0  0.18086  0.73216  0.47909  1.0000
  S   S74       1.0  0.15227  0.66574  0.44598  1.0000
  S   S75       1.0  0.20606  0.72085  0.45789  1.0000
  C   C201      1.0  0.15847  0.69503  0.27674  1.0000
  H   H202      1.0  0.18722  0.81467  0.44193  1.0000
  C   C202      1.0  0.05536  0.64388  0.47036  1.0000
  H   H203      1.0  0.06614  0.68199  0.45646  1.0000
  C   C203      1.0  0.20704  0.68655  0.34467  1.0000
  C   C204      1.0  0.20671  0.71104  0.34252  1.0000
  C   C205      1.0  0.19878  0.72199  0.35976  1.0000
  C   C206      1.0  0.19150  0.70879  0.37935  1.0000
  C   C207      1.0  0.19255  0.68467  0.38169  1.0000
  C   C208      1.0  0.20018  0.67357  0.36438  1.0000
  H   H204      1.0  0.21195  0.72122  0.32744  1.0000
  H   H205      1.0  0.19812  0.74072  0.35783  1.0000
  H   H206      1.0  0.18696  0.67430  0.39667  1.0000
  H   H207      1.0  0.20031  0.65458  0.36615  1.0000
  N   N17       1.0  0.20560  0.57810  0.47653  1.0000
  N   N18       1.0  0.21378  0.79812  0.44737  1.0000
  H   H208      1.0  0.14848  0.70018  0.32963  1.0000
  N   N19       1.0  0.14958  0.66669  0.31441  1.0000
  C   C209      1.0  0.15077  0.69146  0.31473  1.0000
  C   C210      1.0  0.15283  0.65585  0.29567  1.0000
  H   H209      1.0  0.19300  0.77057  0.42243  1.0000
  C   C211      1.0  0.21170  0.78136  0.43077  1.0000
  H   H210      1.0  0.19302  0.81058  0.46984  1.0000
  C   C212      1.0  0.23745  0.81203  0.45766  1.0000
  C   C213      1.0  0.19063  0.80175  0.45354  1.0000
  H   H211      1.0  0.26391  0.59311  0.28473  1.0000
  C   C214      1.0  0.15547  0.70608  0.29596  1.0000
  S   S76       1.0  0.20470  0.65795  0.48525  1.0000
  S   S77       1.0  0.22643  0.72396  0.27611  1.0000
  H   H212      1.0  0.15691  0.72590  0.29630  1.0000
  H   H213      1.0  0.23917  0.82540  0.47079  1.0000
  C   C215      1.0  0.17876  0.56326  0.47659  1.0000
  C   C216      1.0  0.15716  0.66976  0.27657  1.0000
  C   C217      1.0  0.14335  0.65100  0.33394  1.0000
  H   H214      1.0  0.14875  0.62439  0.48054  1.0000
  C   C218      1.0  0.18342  0.62847  0.49775  1.0000
  C   C219      1.0  0.23348  0.77755  0.42450  1.0000
  C   C220      1.0  0.15666  0.61572  0.49220  1.0000
  C   C221      1.0  0.25750  0.79108  0.43530  1.0000
  H   H215      1.0  0.22911  0.60245  0.45164  1.0000
  H   H216      1.0  0.24481  0.76273  0.49232  1.0000
  H   H217      1.0  0.23156  0.76385  0.41154  1.0000
  H   H218      1.0  0.12215  0.63661  0.33397  1.0000
  H   H219      1.0  0.15558  0.64013  0.33508  1.0000
  H   H220      1.0  0.14782  0.66378  0.34849  1.0000
  C   C222      1.0  0.22162  0.56920  0.48654  1.0000
  C   C223      1.0  0.21082  0.54492  0.49708  1.0000
  H   H221      1.0  0.15242  0.63645  0.29549  1.0000
  S   S78       1.0  0.19763  0.77083  0.49867  1.0000
  H   H222      1.0  0.11951  0.58142  0.49683  1.0000
  C   C224      1.0  0.25959  0.80855  0.45194  1.0000
  C   C225      1.0  0.14014  0.59140  0.50141  1.0000
  C   C226      1.0  0.25048  0.78115  0.50103  1.0000
  C   C227      1.0  0.23133  0.78946  0.50628  1.0000
  H   H223      1.0  0.24289  0.58090  0.48648  1.0000
  H   H224      1.0  0.25654  0.62994  0.26965  1.0000
  H   H225      1.0  0.27809  0.81902  0.46063  1.0000
  C   C228      1.0  0.21753  0.60357  0.46556  1.0000
  H   H226      1.0  0.23066  0.61952  0.47671  1.0000
  H   H227      1.0  0.27439  0.78792  0.43081  1.0000
  C   C229      1.0  0.27713  0.79684  0.50680  1.0000
  H   H228      1.0  0.20243  0.60962  0.45974  1.0000
  H   H229      1.0  0.03768  0.60437  0.48303  1.0000
  C   C230      1.0  0.03395  0.61957  0.47560  1.0000
  H   H230      1.0  0.16597  0.57043  0.46898  1.0000
  C   C231      1.0  0.16731  0.53901  0.48713  1.0000
  H   H231      1.0  0.22348  0.53784  0.50509  1.0000
  H   H232      1.0  0.14599  0.52772  0.48780  1.0000
  C   C232      1.0  0.27400  0.60281  0.27035  1.0000
  H   H233      1.0  0.08005  0.59865  0.49911  1.0000
  Fe  Fe38      1.0  0.26863  0.73635  0.26642  1.0000
  C   C233      1.0  0.18349  0.52981  0.49736  1.0000
  H   H234      1.0  0.16224  0.70613  0.26202  1.0000
  H   H235      1.0  0.15977  0.66118  0.26171  1.0000
  C   C234      1.0  0.26985  0.62364  0.26186  1.0000
  C   C235      1.0  0.40104  0.60360  0.50277  1.0000
  C   C236      1.0  0.48903  0.91102  0.51087  1.0000
  H   H236      1.0  0.29177  0.79028  0.50246  1.0000
  C   C237      1.0  0.33252  0.69130  0.26968  1.0000
  S   S79       1.0  0.30112  0.77794  0.26485  1.0000
  S   S80       1.0  0.32066  0.52124  0.50833  1.0000
  H   H237      1.0  0.51855  0.84218  0.50941  1.0000
  H   H238      1.0  0.43143  0.64383  0.50516  1.0000
  C   C238      1.0  0.39036  0.52524  0.35512  1.0000
  H   H239      1.0  0.31172  0.67809  0.27135  1.0000
  H   H240      1.0  0.34446  0.64382  0.26973  1.0000
  H   H241      1.0  0.43522  0.55242  0.50168  1.0000
  H   H242      1.0  0.41883  0.53554  0.27307  1.0000
  S   S81       1.0  0.46859  0.85401  0.27293  1.0000
  S   S82       1.0  0.36340  0.58996  0.29906  1.0000
  H   H243      1.0  0.40651  0.73914  0.26437  1.0000
  S   S83       1.0  0.48061  0.89076  0.46980  1.0000
  C   C239      1.0  0.40468  0.57614  0.40892  1.0000
  C   C240      1.0  0.47453  0.73498  0.26489  1.0000
  C   C241      1.0  0.35522  0.79977  0.26548  1.0000
  H   H244      1.0  0.39781  0.81633  0.26571  1.0000
  H   H245      1.0  0.46290  0.78691  0.36352  1.0000
  C   C242      1.0  0.38563  0.72569  0.26551  1.0000
  C   C243      1.0  0.37744  0.70010  0.27327  1.0000
  C   C244      1.0  0.47216  0.84191  0.50728  1.0000
  Fe  Fe39      1.0  0.52305  0.89848  0.46568  1.0000
  Fe  Fe40      1.0  0.49073  0.79927  0.26295  1.0000
  H   H246      1.0  0.39215  0.69367  0.27760  1.0000
  C   C245      1.0  0.43719  0.68825  0.28380  1.0000
  H   H247      1.0  0.44904  0.80626  0.33367  1.0000
  H   H248      1.0  0.39328  0.58897  0.33534  1.0000
  C   C246      1.0  0.44915  0.68686  0.26461  1.0000
  S   S84       1.0  0.36024  0.54016  0.45552  1.0000
  H   H249      1.0  0.35778  0.75768  0.31314  1.0000
  H   H250      1.0  0.48276  0.81399  0.39639  1.0000
  C   C247      1.0  0.45397  0.85549  0.33105  1.0000
  C   C248      1.0  0.44894  0.57296  0.50410  1.0000
  H   H251      1.0  0.32278  0.64725  0.28916  1.0000
  H   H252      1.0  0.36343  0.56621  0.40510  1.0000
  H   H253      1.0  0.43087  0.88704  0.48342  1.0000
  C   C249      1.0  0.38549  0.58249  0.37632  1.0000
  H   H254      1.0  0.43302  0.83214  0.49537  1.0000
  C   C250      1.0  0.47117  0.90030  0.49388  1.0000
  H   H255      1.0  0.41004  0.52706  0.35287  1.0000
  H   H256      1.0  0.39511  0.60563  0.48666  1.0000
  Fe  Fe41      1.0  0.39467  0.62050  0.27908  1.0000
  Fe  Fe42      1.0  0.38065  0.56289  0.28934  1.0000
  C   C251      1.0  0.35204  0.52852  0.34120  1.0000
  C   C252      1.0  0.46219  0.73618  0.28386  1.0000
  H   H257      1.0  0.47492  0.87903  0.36816  1.0000
  H   H258      1.0  0.34184  0.53276  0.32824  1.0000
  H   H259      1.0  0.42700  0.59575  0.33574  1.0000
  H   H260      1.0  0.41770  0.62156  0.34337  1.0000
  H   H261      1.0  0.36819  0.58065  0.36752  1.0000
  C   C253      1.0  0.35713  0.76941  0.29979  1.0000
  C   C254      1.0  0.38270  0.57447  0.39762  1.0000
  H   H262      1.0  0.43470  0.71416  0.30823  1.0000
  C   C255      1.0  0.33270  0.76640  0.29196  1.0000
  H   H263      1.0  0.40280  0.56973  0.42534  1.0000
  C   C256      1.0  0.42913  0.58588  0.39894  1.0000
  C   C257      1.0  0.37972  0.80246  0.27309  1.0000
  H   H264      1.0  0.31470  0.75283  0.29956  1.0000
  S   S85       1.0  0.29768  0.56975  0.27181  1.0000
  N   N20       1.0  0.35121  0.68336  0.27545  1.0000
  H   H265      1.0  0.43854  0.84020  0.32073  1.0000
  C   C258      1.0  0.34330  0.65640  0.28303  1.0000
  C   C259      1.0  0.37747  0.53095  0.33813  1.0000
  H   H266      1.0  0.45024  0.60105  0.36984  1.0000
  C   C260      1.0  0.44476  0.89535  0.49654  1.0000
  Fe  Fe43      1.0  0.33999  0.57726  0.26868  1.0000
  H   H267      1.0  0.47900  0.83887  0.49179  1.0000
  C   C261      1.0  0.47182  0.61761  0.49089  1.0000
  C   C262      1.0  0.47604  0.82205  0.38334  1.0000
  Fe  Fe44      1.0  0.44720  0.81088  0.28045  1.0000
  H   H268      1.0  0.37355  0.56256  0.50462  1.0000
  C   C263      1.0  0.41210  0.60005  0.34422  1.0000
  C   C264      1.0  0.46510  0.80697  0.36489  1.0000
  C   C265      1.0  0.33166  0.78153  0.27477  1.0000
  N   N21       1.0  0.40947  0.59157  0.36650  1.0000
  C   C266      1.0  0.43121  0.59362  0.37758  1.0000
  H   H269      1.0  0.50939  0.91493  0.50895  1.0000
  Fe  Fe45      1.0  0.50421  0.85150  0.28657  1.0000
  H   H270      1.0  0.44625  0.58722  0.40776  1.0000
  H   H271      1.0  0.48816  0.86002  0.39877  1.0000
  C   C267      1.0  0.38064  0.78726  0.29029  1.0000
  H   H272      1.0  0.47187  0.86640  0.32129  1.0000
  C   C268      1.0  0.44391  0.71295  0.29342  1.0000
  C   C269      1.0  0.45320  0.59111  0.48780  1.0000
  H   H273      1.0  0.47531  0.63171  0.47826  1.0000
  S   S86       1.0  0.39362  0.54087  0.31330  1.0000
  S   S87       1.0  0.41376  0.59436  0.27119  1.0000
  H   H274      1.0  0.35655  0.65632  0.29618  1.0000
  C   C270      1.0  0.45742  0.81809  0.34797  1.0000
  H   H275      1.0  0.44607  0.86938  0.33633  1.0000
  C   C271      1.0  0.47154  0.85856  0.36733  1.0000
  S   S88       1.0  0.48213  0.80912  0.29589  1.0000
  H   H276      1.0  0.46709  0.75499  0.29149  1.0000
  N   N22       1.0  0.46064  0.84357  0.34937  1.0000
  C   C272      1.0  0.47908  0.84795  0.38468  1.0000
  S   S89       1.0  0.41307  0.65998  0.29615  1.0000
  Fe  Fe46      1.0  0.39918  0.54115  0.46387  1.0000
  S   S90       1.0  0.43448  0.58144  0.46398  1.0000
  S   S91       1.0  0.41068  0.78946  0.30000  1.0000
  C   C273      1.0  0.48526  0.62611  0.51054  1.0000
  C   C274      1.0  0.44606  0.83801  0.50921  1.0000
  C   C275      1.0  0.33996  0.71659  0.26148  1.0000
  C   C276      1.0  0.33937  0.51980  0.36091  1.0000
  Fe  Fe47      1.0  0.22067  0.55805  0.74239  1.0000
  S   S92       1.0  0.12870  0.54972  0.52785  1.0000
  H   H277      1.0  0.18475  0.58427  0.53394  1.0000
  C   C277      1.0  0.21867  0.56029  0.68047  1.0000
  S   S93       1.0  0.18793  0.54021  0.55713  1.0000
  C   C278      1.0  0.16388  0.56469  0.70270  1.0000
  C   C279      1.0  0.21826  0.56596  0.65865  1.0000
  N   N23       1.0  0.18020  0.58852  0.69397  1.0000
  H   H278      1.0  0.16555  0.56107  0.71949  1.0000
  C   C280      1.0  0.20066  0.54684  0.64432  1.0000
  S   S94       1.0  0.19852  0.55614  0.61768  1.0000
  C   C281      1.0  0.17919  0.59245  0.67252  1.0000
  C   C282      1.0  0.16123  0.57232  0.65927  1.0000
  C   C283      1.0  0.14287  0.64394  0.53793  1.0000
  H   H279      1.0  0.16512  0.63306  0.56046  1.0000
  C   C284      1.0  0.12625  0.60136  0.55475  1.0000
  C   C285      1.0  0.14646  0.62685  0.55207  1.0000
  C   C286      1.0  0.20144  0.53538  0.68818  1.0000
  C   C287      1.0  0.10285  0.59312  0.54289  1.0000
  H   H280      1.0  0.12920  0.58750  0.56503  1.0000
  H   H281      1.0  0.08791  0.57279  0.54422  1.0000
  H   H282      1.0  0.16134  0.57504  0.64212  1.0000
  N   N24       1.0  0.09947  0.61007  0.52911  1.0000
  C   C288      1.0  0.14571  0.54412  0.68993  1.0000
  C   C289      1.0  0.11906  0.63520  0.52657  1.0000
  H   H283      1.0  0.15868  0.66359  0.53534  1.0000
  H   H284      1.0  0.19293  0.61086  0.66539  1.0000
  C   C290      1.0  0.19993  0.60921  0.70758  1.0000
  H   H285      1.0  0.19089  0.61176  0.72262  1.0000
  S   S95       1.0  0.19916  0.52818  0.71582  1.0000
  Fe  Fe48      1.0  0.14552  0.52962  0.54994  1.0000
  Fe  Fe49      1.0  0.17398  0.52828  0.59095  1.0000
  H   H286      1.0  0.13364  0.52495  0.69683  1.0000
  C   C291      1.0  0.14443  0.54801  0.66807  1.0000
  H   H287      1.0  0.13126  0.53188  0.65781  1.0000
  C   C292      1.0  0.17689  0.59289  0.52226  1.0000
  H   H288      1.0  0.22793  0.76886  0.55070  1.0000
  H   H289      1.0  0.20898  0.62879  0.69971  1.0000
  S   S96       1.0  0.13243  0.52173  0.58402  1.0000
  H   H290      1.0  0.21601  0.60382  0.71173  1.0000
  H   H291      1.0  0.22458  0.82029  0.52158  1.0000
  H   H292      1.0  0.22094  0.80281  0.57161  1.0000
  H   H293      1.0  0.21424  0.62689  0.51711  1.0000
  C   C293      1.0  0.18404  0.52163  0.65188  1.0000
  C   C294      1.0  0.15019  0.57997  0.51648  1.0000
  H   H294      1.0  0.11647  0.64838  0.51532  1.0000
  H   H295      1.0  0.06765  0.61605  0.51646  1.0000
  C   C295      1.0  0.07545  0.60109  0.51601  1.0000
  S   S97       1.0  0.19959  0.57885  0.75835  1.0000
  H   H296      1.0  0.05962  0.58203  0.52157  1.0000
  C   C296      1.0  0.19353  0.61703  0.51277  1.0000
  H   H297      1.0  0.23134  0.58544  0.65289  1.0000
  H   H298      1.0  0.23212  0.57526  0.69135  1.0000
  C   C297      1.0  0.51424  0.71455  0.66569  1.0000
  C   C298      1.0  0.24355  0.78277  0.56099  1.0000
  C   C299      1.0  0.23968  0.80193  0.57264  1.0000
  C   C300      1.0  0.51613  0.71055  0.68763  1.0000
  C   C301      1.0  0.33429  0.61190  0.75096  1.0000
  C   C302      1.0  0.28500  0.82085  0.51816  1.0000
  H   H299      1.0  0.50013  0.72125  0.66011  1.0000
  C   C303      1.0  0.43603  0.90028  0.51631  1.0000
  H   H300      1.0  0.40335  0.83079  0.69181  1.0000
  C   C304      1.0  0.27862  0.52211  0.52989  1.0000
  C   C305      1.0  0.38231  0.63508  0.75014  1.0000
  C   C306      1.0  0.43748  0.84342  0.52870  1.0000
  N   N25       1.0  0.43825  0.01223  0.52638  1.0000
  H   H301      1.0  0.25763  0.83556  0.59411  1.0000
  H   H302      1.0  0.49898  0.64672  0.51308  1.0000
  H   H303      1.0  0.51610  0.57898  0.53467  1.0000
  C   C307      1.0  0.26025  0.82034  0.58517  1.0000
  H   H304      1.0  0.33909  0.81826  0.65870  1.0000
  S   S98       1.0  0.47852  0.65880  0.76018  1.0000
  H   H305      1.0  0.38499  0.83933  0.71105  1.0000
  C   C308      1.0  0.41022  0.91422  0.68864  1.0000
  Fe  Fe50      1.0  0.50783  0.69750  0.74681  1.0000
  C   C309      1.0  0.48098  0.85623  0.54349  1.0000
  Fe  Fe51      1.0  0.44899  0.67467  0.75504  1.0000
  H   H306      1.0  0.46508  0.75569  0.74056  1.0000
  C   C310      1.0  0.38908  0.57916  0.51295  1.0000
  C   C311      1.0  0.46596  0.98487  0.53992  1.0000
  C   C312      1.0  0.45784  0.76814  0.74855  1.0000
  H   H307      1.0  0.41763  0.84158  0.53017  1.0000
  C   C313      1.0  0.39118  0.00073  0.57051  1.0000
  H   H308      1.0  0.48695  0.62670  0.71995  1.0000
  H   H309      1.0  0.36486  0.53794  0.53730  1.0000
  S   S99       1.0  0.39390  0.85736  0.75815  1.0000
  S   S100      1.0  0.34475  0.87010  0.72394  1.0000
  C   C314      1.0  0.48004  0.63326  0.70606  1.0000
  H   H310      1.0  0.29362  0.53764  0.53946  1.0000
  S   S101      1.0  0.49399  0.61811  0.55269  1.0000
  N   N26       1.0  0.46356  0.65222  0.67110  1.0000
  H   H311      1.0  0.44889  0.85819  0.56084  1.0000
  C   C315      1.0  0.34073  0.83679  0.66515  1.0000
  H   H312      1.0  0.47648  0.97401  0.54551  1.0000
  H   H313      1.0  0.41794  0.98474  0.57919  1.0000
  S   S102      1.0  0.51552  0.69450  0.56566  1.0000
  S   S103      1.0  0.44311  0.91439  0.55892  1.0000
  H   H314      1.0  0.39726  0.53915  0.53825  1.0000
  C   C316      1.0  0.51660  0.85534  0.52189  1.0000
  S   S104      1.0  0.40894  0.80040  0.73411  1.0000
  H   H315      1.0  0.33866  0.82445  0.69794  1.0000
  C   C317      1.0  0.27264  0.70629  0.74638  1.0000
  H   H316      1.0  0.32444  0.80834  0.55992  1.0000
  H   H317      1.0  0.38529  0.55156  0.56039  1.0000
  S   S105      1.0  0.31898  0.83955  0.52490  1.0000
  C   C318      1.0  0.34060  0.84028  0.68742  1.0000
  N   N27       1.0  0.40648  0.87013  0.68953  1.0000
  H   H318      1.0  0.40442  0.85146  0.65929  1.0000
  C   C319      1.0  0.44074  0.77588  0.73770  1.0000
  C   C320      1.0  0.31366  0.79972  0.57489  1.0000
  H   H319      1.0  0.31548  0.60568  0.74296  1.0000
  S   S106      1.0  0.24439  0.65261  0.74278  1.0000
  S   S107      1.0  0.41126  0.65417  0.73596  1.0000
  H   H320      1.0  0.43026  0.94968  0.53301  1.0000
  H   H321      1.0  0.50344  0.71401  0.69876  1.0000
  H   H322      1.0  0.24624  0.52301  0.54770  1.0000
  C   C321      1.0  0.28444  0.81921  0.58592  1.0000
  H   H323      1.0  0.41143  0.93020  0.65728  1.0000
  C   C322      1.0  0.42613  0.98515  0.52632  1.0000
  C   C323      1.0  0.46238  0.58139  0.52366  1.0000
  C   C324      1.0  0.43984  0.97111  0.53299  1.0000
  C   C325      1.0  0.42141  0.62499  0.51315  1.0000
  C   C326      1.0  0.34464  0.88427  0.68204  1.0000
  C   C327      1.0  0.38564  0.54992  0.54272  1.0000
  H   H324      1.0  0.44605  0.63273  0.72193  1.0000
  C   C328      1.0  0.40807  0.89216  0.70004  1.0000
  C   C329      1.0  0.28577  0.73039  0.75760  1.0000
  H   H325      1.0  0.30034  0.83366  0.59562  1.0000
  C   C330      1.0  0.40672  0.86926  0.66768  1.0000
  H   H326      1.0  0.49651  0.65189  0.65479  1.0000
  S   S108      1.0  0.32772  0.88992  0.57588  1.0000
  C   C331      1.0  0.42961  0.62169  0.53347  1.0000
  C   C332      1.0  0.35776  0.62689  0.73996  1.0000
  Fe  Fe52      1.0  0.40013  0.90465  0.56305  1.0000
  Fe  Fe53      1.0  0.35169  0.84370  0.74788  1.0000
  H   H327      1.0  0.32605  0.81125  0.58868  1.0000
  C   C333      1.0  0.43096  0.79182  0.74795  1.0000
  C   C334      1.0  0.26048  0.68238  0.75740  1.0000
  N   N28       1.0  0.39721  0.57609  0.53289  1.0000
  H   H328      1.0  0.29487  0.74876  0.74899  1.0000
  H   H329      1.0  0.47075  0.67141  0.64076  1.0000
  H   H330      1.0  0.40671  0.89239  0.71733  1.0000
  C   C335      1.0  0.41062  0.91357  0.66635  1.0000
  C   C336      1.0  0.48013  0.60804  0.52708  1.0000
  H   H331      1.0  0.27160  0.84763  0.53216  1.0000
  H   H332      1.0  0.31103  0.77910  0.57634  1.0000
  C   C337      1.0  0.45504  0.85269  0.54596  1.0000
  C   C338      1.0  0.26585  0.82914  0.52353  1.0000
  C   C339      1.0  0.48035  0.91609  0.53059  1.0000
  H   H333      1.0  0.43751  0.64599  0.64492  1.0000
  H   H334      1.0  0.43471  0.76914  0.72144  1.0000
  H   H335      1.0  0.30051  0.66279  0.75384  1.0000
  C   C340      1.0  0.44941  0.64673  0.68962  1.0000
  S   S109      1.0  0.37494  0.91365  0.53996  1.0000
  S   S110      1.0  0.34516  0.85209  0.62344  1.0000
  C   C341      1.0  0.34508  0.88090  0.65972  1.0000
  Fe  Fe54      1.0  0.38480  0.81465  0.75413  1.0000
  S   S111      1.0  0.34333  0.80132  0.74222  1.0000
  H   H336      1.0  0.45854  0.56730  0.53635  1.0000
  C   C342      1.0  0.40371  0.84719  0.70198  1.0000
  H   H337      1.0  0.51199  0.63600  0.68600  1.0000
  H   H338      1.0  0.27131  0.76816  0.55217  1.0000
  Fe  Fe55      1.0  0.34183  0.87381  0.54833  1.0000
  N   N29       1.0  0.28803  0.80030  0.57449  1.0000
  H   H339      1.0  0.43200  0.65009  0.69098  1.0000
  H   H340      1.0  0.44617  0.63788  0.54134  1.0000
  H   H341      1.0  0.42482  0.59420  0.55841  1.0000
  S   S112      1.0  0.36297  0.96957  0.56706  1.0000
  S   S113      1.0  0.47788  0.71212  0.73973  1.0000
  C   C343      1.0  0.26811  0.78244  0.56191  1.0000
  S   S114      1.0  0.36868  0.86398  0.56901  1.0000
  S   S115      1.0  0.39012  0.92189  0.59208  1.0000
  H   H342      1.0  0.41059  0.93127  0.69705  1.0000
  Fe  Fe56      1.0  0.36335  0.92931  0.56930  1.0000
  S   S116      1.0  0.25946  0.59436  0.74032  1.0000
  Fe  Fe57      1.0  0.35603  0.88158  0.59632  1.0000
  H   H343      1.0  0.27190  0.70621  0.72911  1.0000
  C   C344      1.0  0.41740  0.59688  0.54307  1.0000
  H   H344      1.0  0.34615  0.90273  0.68856  1.0000
  C   C345      1.0  0.41591  0.00255  0.57603  1.0000
  C   C346      1.0  0.48527  0.64760  0.66947  1.0000
  H   H345      1.0  0.44932  0.67809  0.65802  1.0000
  C   C347      1.0  0.40883  0.89096  0.65577  1.0000
  C   C348      1.0  0.45480  0.66233  0.65276  1.0000
  H   H346      1.0  0.42039  0.85289  0.71351  1.0000
  C   C349      1.0  0.49404  0.63839  0.68700  1.0000
  C   C350      1.0  0.34336  0.85718  0.65122  1.0000
  H   H347      1.0  0.49474  0.86416  0.55677  1.0000
  C   C351      1.0  0.34287  0.86417  0.69600  1.0000
  H   H348      1.0  0.49414  0.92392  0.54381  1.0000
  H   H349      1.0  0.40799  0.88982  0.63844  1.0000
  H   H350      1.0  0.34687  0.89666  0.64917  1.0000
  C   C352      1.0  0.45733  0.63701  0.70729  1.0000
  H   H351      1.0  0.35688  0.63222  0.72352  1.0000
  C   C353      1.0  0.45377  0.91029  0.53345  1.0000
  H   H352      1.0  0.51058  0.79256  0.71467  1.0000
  C   C354      1.0  0.47822  0.01249  0.53984  1.0000
  Fe  Fe58      1.0  0.23903  0.61459  0.75810  1.0000
  C   C355      1.0  0.23919  0.81358  0.51750  1.0000
  H   H353      1.0  0.40557  0.97425  0.52149  1.0000
  H   H354      1.0  0.41548  0.89572  0.51839  1.0000
  N   N30       1.0  0.48909  0.85048  0.52441  1.0000
  H   H355      1.0  0.32596  0.71262  0.75813  1.0000
  H   H356      1.0  0.37129  0.74955  0.75889  1.0000
  Fe  Fe59      1.0  0.52438  0.66029  0.55895  1.0000
  H   H357      1.0  0.52481  0.85148  0.53689  1.0000
  H   H358      1.0  0.40277  0.01646  0.52404  1.0000
  H   H359      1.0  0.52175  0.80522  0.75255  1.0000
  C   C356      1.0  0.52433  0.78715  0.72292  1.0000
  S   S117      1.0  0.52529  0.71325  0.62340  1.0000
  Fe  Fe60      1.0  0.14979  0.52382  0.98021  1.0000
  S   S118      1.0  0.12986  0.54528  0.99723  1.0000
  H   H360      1.0  0.14702  0.58562  0.95983  1.0000
  C   C357      1.0  0.17020  0.53500  0.85783  1.0000
  H   H361      1.0  0.16426  0.62412  0.98461  1.0000
  H   H362      1.0  0.15099  0.52173  0.85137  1.0000
  H   H363      1.0  0.15996  0.52133  0.89023  1.0000
  C   C358      1.0  0.16816  0.59728  0.96201  1.0000
  C   C359      1.0  0.36785  0.72979  0.76361  1.0000
  C   C360      1.0  0.25080  0.53202  0.86127  1.0000
  H   H364      1.0  0.37263  0.55160  0.00500  1.0000
  C   C361      1.0  0.46145  0.58132  0.00254  1.0000
  C   C362      1.0  0.17805  0.61903  0.97609  1.0000
  H   H365      1.0  0.19899  0.65833  0.00282  1.0000
  H   H366      1.0  0.22807  0.65397  0.00638  1.0000
  H   H367      1.0  0.29409  0.54673  0.00678  1.0000
  H   H368      1.0  0.17832  0.57350  0.94020  1.0000
  Fe  Fe61      1.0  0.52377  0.65795  0.96822  1.0000
  H   H369      1.0  0.43138  0.81290  0.77693  1.0000
  C   C363      1.0  0.46571  0.77680  0.76954  1.0000
  Fe  Fe62      1.0  0.18010  0.52279  0.94025  1.0000
  C   C364      1.0  0.33527  0.60480  0.77215  1.0000
  C   C365      1.0  0.18566  0.59025  0.95123  1.0000
  C   C366      1.0  0.17522  0.53475  0.87987  1.0000
  H   H370      1.0  0.22635  0.59900  0.94663  1.0000
  C   C367      1.0  0.38335  0.62801  0.77134  1.0000
  H   H371      1.0  0.36523  0.83938  0.00131  1.0000
  S   S119      1.0  0.23100  0.54555  0.77376  1.0000
  H   H372      1.0  0.22122  0.80046  0.99626  1.0000
  H   H373      1.0  0.25882  0.56536  0.82084  1.0000
  H   H374      1.0  0.28446  0.55845  0.83189  1.0000
  C   C368      1.0  0.21273  0.60468  0.95484  1.0000
  H   H375      1.0  0.26474  0.53867  0.81021  1.0000
  H   H376      1.0  0.24303  0.63730  0.97197  1.0000
  H   H377      1.0  0.35520  0.65976  0.78074  1.0000
  C   C369      1.0  0.31110  0.66247  0.76875  1.0000
  N   N31       1.0  0.33806  0.68394  0.76891  1.0000
  C   C370      1.0  0.43871  0.80043  0.76897  1.0000
  C   C371      1.0  0.22196  0.62621  0.96915  1.0000
  H   H378      1.0  0.24752  0.52701  0.99391  1.0000
  H   H379      1.0  0.51561  0.66648  0.89795  1.0000
  H   H380      1.0  0.18490  0.56669  0.01002  1.0000
  C   C372      1.0  0.21500  0.65616  0.99404  1.0000
  S   S120      1.0  0.39824  0.87053  0.82130  1.0000
  H   H381      1.0  0.30018  0.66464  0.78271  1.0000
  H   H382      1.0  0.29074  0.76301  0.84182  1.0000
  C   C373      1.0  0.37984  0.87124  0.84388  1.0000
  H   H383      1.0  0.28317  0.78571  0.85762  1.0000
  C   C374      1.0  0.39305  0.88181  0.86331  1.0000
  H   H384      1.0  0.23890  0.58209  0.88106  1.0000
  H   H385      1.0  0.44588  0.63421  0.97940  1.0000
  C   C375      1.0  0.26411  0.54926  0.82510  1.0000
  H   H386      1.0  0.22626  0.67461  0.98502  1.0000
  H   H387      1.0  0.29953  0.89576  0.90743  1.0000
  Fe  Fe63      1.0  0.33247  0.79546  0.77692  1.0000
  H   H388      1.0  0.30212  0.91942  0.92753  1.0000
  C   C376      1.0  0.34233  0.70885  0.76312  1.0000
  C   C377      1.0  0.23710  0.80051  0.00597  1.0000
  H   H389      1.0  0.40223  0.63413  0.77927  1.0000
  C   C378      1.0  0.38438  0.69968  0.77620  1.0000
  C   C379      1.0  0.19000  0.55180  0.84401  1.0000
  Fe  Fe64      1.0  0.48671  0.68006  0.79208  1.0000
  S   S121      1.0  0.51860  0.71762  0.77916  1.0000
  H   H390      1.0  0.42628  0.59503  0.95533  1.0000
  C   C380      1.0  0.47933  0.60773  0.99878  1.0000
  C   C381      1.0  0.26341  0.81920  0.00190  1.0000
  C   C382      1.0  0.42925  0.61628  0.98471  1.0000
  H   H391      1.0  0.45561  0.56698  0.98957  1.0000
  C   C383      1.0  0.35985  0.61267  0.78225  1.0000
  S   S122      1.0  0.48996  0.61740  0.97249  1.0000
  C   C384      1.0  0.32863  0.80238  0.87672  1.0000
  H   H392      1.0  0.39536  0.82579  0.87849  1.0000
  H   H393      1.0  0.25173  0.66425  0.78833  1.0000
  C   C385      1.0  0.41827  0.59417  0.97119  1.0000
  H   H394      1.0  0.38919  0.88883  0.89688  1.0000
  C   C386      1.0  0.45638  0.79322  0.77965  1.0000
  H   H395      1.0  0.29769  0.79516  0.83172  1.0000
  H   H396      1.0  0.31255  0.80094  0.88686  1.0000
  C   C387      1.0  0.38894  0.72508  0.77022  1.0000
  C   C388      1.0  0.37058  0.80842  0.85087  1.0000
  H   H397      1.0  0.49252  0.64250  0.86478  1.0000
  H   H398      1.0  0.27001  0.54605  0.86729  1.0000
  H   H399      1.0  0.39022  0.98192  0.92555  1.0000
  C   C389      1.0  0.35421  0.81325  0.88534  1.0000
  C   C390      1.0  0.41989  0.61454  0.00556  1.0000
  S   S123      1.0  0.30617  0.58717  0.78669  1.0000
  C   C391      1.0  0.21965  0.56892  0.87462  1.0000
  H   H400      1.0  0.31685  0.85228  0.86070  1.0000
  C   C392      1.0  0.37097  0.93987  0.88274  1.0000
  H   H401      1.0  0.47751  0.88268  0.98691  1.0000
  C   C393      1.0  0.42435  0.00587  0.96181  1.0000
  C   C394      1.0  0.52090  0.70509  0.84563  1.0000
  H   H402      1.0  0.34272  0.95732  0.93319  1.0000
  C   C395      1.0  0.51713  0.67732  0.88345  1.0000
  C   C396      1.0  0.40059  0.83443  0.00534  1.0000
  C   C397      1.0  0.39769  0.57081  0.97847  1.0000
  S   S124      1.0  0.20811  0.55051  0.91559  1.0000
  C   C398      1.0  0.35129  0.87030  0.88108  1.0000
  S   S125      1.0  0.48765  0.76783  0.78317  1.0000
  H   H403      1.0  0.22998  0.58225  0.84215  1.0000
  C   C399      1.0  0.35233  0.86088  0.84302  1.0000
  C   C400      1.0  0.40003  0.00371  0.96885  1.0000
  C   C401      1.0  0.50410  0.66378  0.86464  1.0000
  S   S126      1.0  0.43397  0.89071  0.97112  1.0000
  C   C402      1.0  0.37531  0.81644  0.87225  1.0000
  H   H404      1.0  0.33120  0.91053  0.87680  1.0000
  H   H405      1.0  0.27436  0.70690  0.80824  1.0000
  H   H406      1.0  0.34116  0.79154  0.82617  1.0000
  H   H407      1.0  0.40878  0.74107  0.77082  1.0000
  H   H408      1.0  0.46254  0.80008  0.79586  1.0000
  Fe  Fe65      1.0  0.26792  0.58406  0.77307  1.0000
  C   C403      1.0  0.47131  0.89171  0.99962  1.0000
  S   S127      1.0  0.30184  0.76063  0.79439  1.0000
  S   S128      1.0  0.37753  0.90830  0.99390  1.0000
  C   C404      1.0  0.34406  0.92644  0.88739  1.0000
  S   S129      1.0  0.33241  0.86774  0.90414  1.0000
  C   C405      1.0  0.27410  0.70675  0.79096  1.0000
  H   H409      1.0  0.52249  0.71594  0.83113  1.0000
  C   C406      1.0  0.34474  0.79744  0.84284  1.0000
  C   C407      1.0  0.20009  0.55153  0.88832  1.0000
  C   C408      1.0  0.45066  0.89857  0.99595  1.0000
  S   S130      1.0  0.37189  0.97244  0.97171  1.0000
  C   C409      1.0  0.26134  0.68260  0.77972  1.0000
  C   C410      1.0  0.33816  0.86060  0.86150  1.0000
  N   N32       1.0  0.33429  0.93226  0.90559  1.0000
  H   H410      1.0  0.34195  0.85290  0.82813  1.0000
  H   H411      1.0  0.26756  0.83331  0.98919  1.0000
  Fe  Fe66      1.0  0.21291  0.56925  0.78968  1.0000
  Fe  Fe67      1.0  0.48543  0.72848  0.77312  1.0000
  H   H412      1.0  0.35775  0.82020  0.90182  1.0000
  N   N33       1.0  0.24473  0.53107  0.83999  1.0000
  S   S131      1.0  0.45409  0.69221  0.78800  1.0000
  S   S132      1.0  0.18332  0.54954  0.81618  1.0000
  C   C411      1.0  0.38775  0.95992  0.89655  1.0000
  S   S133      1.0  0.19254  0.53439  0.97461  1.0000
  Fe  Fe68      1.0  0.39630  0.89508  0.96792  1.0000
  H   H413      1.0  0.42665  0.98814  0.95861  1.0000
  H   H414      1.0  0.36073  0.60719  0.79864  1.0000
  S   S134      1.0  0.49073  0.65962  0.82204  1.0000
  H   H415      1.0  0.40876  0.97015  0.89341  1.0000
  C   C412      1.0  0.37741  0.96647  0.91460  1.0000
  C   C413      1.0  0.50601  0.67758  0.84563  1.0000
  S   S135      1.0  0.33647  0.83664  0.78175  1.0000
  C   C414      1.0  0.35047  0.95237  0.91890  1.0000
  H   H416      1.0  0.29436  0.92419  0.90033  1.0000
  S   S136      1.0  0.25050  0.60723  0.79087  1.0000
  H   H417      1.0  0.37877  0.93428  0.86878  1.0000
  S   S137      1.0  0.35925  0.85843  0.95981  1.0000
  H   H418      1.0  0.41435  0.88992  0.86410  1.0000
  C   C415      1.0  0.29759  0.78415  0.84641  1.0000
  C   C416      1.0  0.28634  0.73067  0.77992  1.0000
  S   S138      1.0  0.39033  0.91966  0.94225  1.0000
  H   H419      1.0  0.39968  0.82633  0.98940  1.0000
  H   H420      1.0  0.38692  0.81156  0.84037  1.0000
  S   S139      1.0  0.37342  0.80520  0.78825  1.0000
  S   S140      1.0  0.32925  0.89645  0.96041  1.0000
  C   C417      1.0  0.37884  0.88122  0.88189  1.0000
  N   N34       1.0  0.32425  0.79490  0.85564  1.0000
  Fe  Fe69      1.0  0.35148  0.88404  0.93649  1.0000
  H   H421      1.0  0.38921  0.55339  0.96818  1.0000
  Fe  Fe70      1.0  0.33957  0.87284  0.98437  1.0000
  H   H422      1.0  0.31083  0.64268  0.76949  1.0000
  Fe  Fe71      1.0  0.37801  0.84670  0.79149  1.0000
  C   C418      1.0  0.30615  0.91727  0.91042  1.0000
  C   C419      1.0  0.21470  0.56899  0.85255  1.0000
  Fe  Fe72      1.0  0.36912  0.93080  0.96780  1.0000
  N   N35       1.0  0.20467  0.63315  0.97951  1.0000
  S   S141      1.0  0.51973  0.69532  0.96285  1.0000
  C   C420      1.0  0.35862  0.67930  0.77568  1.0000
  C   C421      1.0  0.38849  0.56989  0.99931  1.0000
  C   C422      1.0  0.28112  0.52622  0.01008  1.0000
  H   H423      1.0  0.40068  0.69576  0.78121  1.0000
  H   H424      1.0  0.42744  0.91626  0.00966  1.0000
  S   S142      1.0  0.31760  0.84423  0.01141  1.0000
  Fe  Fe73      1.0  0.57292  0.38556  0.24364  1.0000
  C   C423      1.0  0.55759  0.38955  0.18858  1.0000
  Fe  Fe74      1.0  0.83980  0.48094  0.23945  1.0000
  S   S143      1.0  0.53975  0.35064  0.12172  1.0000
  S   S144      1.0  0.60705  0.37544  0.24482  1.0000
  N   N36       1.0  0.59327  0.11856  0.02819  1.0000
  C   C424      1.0  0.62609  0.48664  0.01224  1.0000
  S   S145      1.0  0.79752  0.45154  0.24451  1.0000
  C   C425      1.0  0.57800  0.18666  0.01932  1.0000
  S   S146      1.0  0.68107  0.25203  0.24110  1.0000
  H   H425      1.0  0.77004  0.26553  0.06036  1.0000
  C   C426      1.0  0.55756  0.29133  0.03814  1.0000
  S   S147      1.0  0.56036  0.40199  0.21507  1.0000
  Fe  Fe75      1.0  0.67887  0.21140  0.23809  1.0000
  S   S148      1.0  0.65863  0.18610  0.20893  1.0000
  H   H426      1.0  0.88930  0.50926  0.13565  1.0000
  Fe  Fe76      1.0  0.66160  0.17850  0.06640  1.0000
  S   S149      1.0  0.67330  0.16295  0.03754  1.0000
  S   S150      1.0  0.62630  0.18709  0.06755  1.0000
  Fe  Fe77      1.0  0.70413  0.17490  0.09347  1.0000
  S   S151      1.0  0.71899  0.15852  0.06615  1.0000
  S   S152      1.0  0.72370  0.18717  0.12610  1.0000
  Fe  Fe78      1.0  0.71544  0.19035  0.04656  1.0000
  C   C427      1.0  0.80175  0.48604  0.07903  1.0000
  Fe  Fe79      1.0  0.67539  0.13244  0.05938  1.0000
  S   S153      1.0  0.64911  0.09072  0.04607  1.0000
  S   S154      1.0  0.70307  0.20784  0.07426  1.0000
  S   S155      1.0  0.66144  0.14699  0.08795  1.0000
  S   S156      1.0  0.92823  0.49579  0.05605  1.0000
  S   S157      1.0  0.56314  0.45055  0.05081  1.0000
  C   C428      1.0  0.56539  0.36997  0.18319  1.0000
  Fe  Fe80      1.0  0.79375  0.48516  0.26085  1.0000
  C   C429      1.0  0.57138  0.12158  0.02257  1.0000
  C   C430      1.0  0.58835  0.45565  0.03236  1.0000
  H   H427      1.0  0.88056  0.47911  0.16651  1.0000
  N   N37       1.0  0.81745  0.32419  0.02635  1.0000
  C   C431      1.0  0.91293  0.47355  0.03467  1.0000
  S   S158      1.0  0.75139  0.30125  0.23701  1.0000
  H   H428      1.0  0.53716  0.31843  0.07853  1.0000
  Fe  Fe81      1.0  0.72231  0.26395  0.25286  1.0000
  H   H429      1.0  0.83606  0.25126  0.02973  1.0000
  C   C432      1.0  0.65503  0.05405  0.07244  1.0000
  C   C433      1.0  0.63976  0.05875  0.05697  1.0000
  C   C434      1.0  0.61706  0.03710  0.04884  1.0000
  C   C435      1.0  0.81966  0.50633  0.11318  1.0000
  H   H430      1.0  0.67266  0.07040  0.07872  1.0000
  H   H431      1.0  0.60512  0.04046  0.03684  1.0000
  C   C436      1.0  0.61413  0.18921  0.04210  1.0000
  S   S159      1.0  0.54612  0.37423  0.06300  1.0000
  H   H432      1.0  0.66058  0.02458  0.09061  1.0000
  H   H433      1.0  0.53030  0.22586  0.03113  1.0000
  S   S160      1.0  0.72085  0.22373  0.24810  1.0000
  C   C437      1.0  0.64810  0.02797  0.07915  1.0000
  C   C438      1.0  0.55487  0.31080  0.05048  1.0000
  C   C439      1.0  0.62982  0.19320  0.02405  1.0000
  H   H434      1.0  0.70724  0.31304  0.26104  1.0000
  H   H435      1.0  0.70443  0.47338  0.23998  1.0000
  C   C440      1.0  0.70543  0.18409  0.14968  1.0000
  C   C441      1.0  0.67789  0.16996  0.14992  1.0000
  C   C442      1.0  0.66385  0.16994  0.16846  1.0000
  C   C443      1.0  0.67718  0.18413  0.18686  1.0000
  C   C444      1.0  0.70477  0.19758  0.18682  1.0000
  C   C445      1.0  0.71881  0.19741  0.16834  1.0000
  H   H436      1.0  0.66738  0.15918  0.13581  1.0000
  H   H437      1.0  0.64253  0.15925  0.16844  1.0000
  H   H438      1.0  0.71528  0.20843  0.20090  1.0000
  H   H439      1.0  0.74012  0.20819  0.16836  1.0000
  H   H440      1.0  0.55795  0.18396  0.01754  1.0000
  H   H441      1.0  0.64999  0.19631  0.02573  1.0000
  H   H442      1.0  0.66950  0.39250  0.25089  1.0000
  H   H443      1.0  0.76257  0.35459  0.22698  1.0000
  C   C446      1.0  0.54832  0.36740  0.14679  1.0000
  C   C447      1.0  0.65935  0.35107  0.25402  1.0000
  H   H444      1.0  0.75218  0.28427  0.03262  1.0000
  C   C448      1.0  0.67625  0.37808  0.25566  1.0000
  C   C449      1.0  0.58830  0.18634  0.03975  1.0000
  C   C450      1.0  0.56072  0.35893  0.16240  1.0000
  C   C451      1.0  0.87583  0.49565  0.16763  1.0000
  C   C452      1.0  0.82748  0.31365  0.04141  1.0000
  C   C453      1.0  0.60737  0.48158  0.02840  1.0000
  C   C454      1.0  0.79074  0.31405  0.02326  1.0000
  H   H445      1.0  0.80940  0.46572  0.10517  1.0000
  C   C455      1.0  0.78334  0.28260  0.05135  1.0000
  C   C456      1.0  0.53945  0.30351  0.06882  1.0000
  C   C457      1.0  0.60209  0.26972  0.24986  1.0000
  C   C458      1.0  0.84412  0.41204  0.23181  1.0000
  H   H446      1.0  0.55743  0.12112  0.03457  1.0000
  C   C459      1.0  0.76229  0.32983  0.25305  1.0000
  H   H447      1.0  0.81862  0.28397  0.06566  1.0000
  H   H448      1.0  0.60030  0.09596  0.05211  1.0000
  N   N38       1.0  0.67241  0.22401  0.13996  1.0000
  C   C460      1.0  0.65861  0.22496  0.15760  1.0000
  C   C461      1.0  0.69935  0.23777  0.13973  1.0000
  C   C462      1.0  0.67186  0.23938  0.17583  1.0000
  C   C463      1.0  0.71322  0.25241  0.15769  1.0000
  C   C464      1.0  0.69935  0.25306  0.17589  1.0000
  C   C465      1.0  0.65835  0.20851  0.12106  1.0000
  H   H449      1.0  0.63731  0.21366  0.15801  1.0000
  H   H450      1.0  0.71034  0.23644  0.12596  1.0000
  H   H451      1.0  0.66094  0.23885  0.19019  1.0000
  H   H452      1.0  0.73463  0.26220  0.15779  1.0000
  H   H453      1.0  0.70988  0.26340  0.19026  1.0000
  H   H454      1.0  0.63885  0.19220  0.12526  1.0000
  H   H455      1.0  0.65532  0.22142  0.10917  1.0000
  H   H456      1.0  0.66969  0.19897  0.11345  1.0000
  C   C466      1.0  0.61116  0.11982  0.01306  1.0000
  C   C467      1.0  0.59458  0.28732  0.26040  1.0000
  H   H457      1.0  0.57394  0.41461  0.02334  1.0000
  H   H458      1.0  0.84865  0.32054  0.04290  1.0000
  H   H459      1.0  0.57612  0.18338  0.05370  1.0000
  C   C468      1.0  0.82126  0.37920  0.20448  1.0000
  H   H460      1.0  0.88414  0.48775  0.02795  1.0000
  H   H461      1.0  0.54713  0.32187  0.21406  1.0000
  C   C469      1.0  0.54599  0.39862  0.17278  1.0000
  C   C470      1.0  0.58858  0.43467  0.02043  1.0000
  C   C471      1.0  0.79388  0.23614  0.02550  1.0000
  C   C472      1.0  0.92238  0.45530  0.02877  1.0000
  C   C473      1.0  0.76687  0.35397  0.24376  1.0000
  C   C474      1.0  0.77330  0.29317  0.03573  1.0000
  C   C475      1.0  0.77765  0.37743  0.25597  1.0000
  C   C476      1.0  0.83421  0.40570  0.21094  1.0000
  C   C477      1.0  0.52982  0.25795  0.06177  1.0000
  C   C478      1.0  0.86500  0.49996  0.18663  1.0000
  C   C479      1.0  0.88084  0.51273  0.15010  1.0000
  Fe  Fe82      1.0  0.53647  0.40851  0.06023  1.0000
  C   C480      1.0  0.81000  0.48415  0.09971  1.0000
  H   H462      1.0  0.85422  0.43273  0.23661  1.0000
  S   S161      1.0  0.73954  0.21901  0.02019  1.0000
  H   H463      1.0  0.78907  0.22211  0.03835  1.0000
  S   S162      1.0  0.83517  0.51532  0.25359  1.0000
  H   H464      1.0  0.62318  0.24598  0.25229  1.0000
  C   C481      1.0  0.80335  0.51021  0.07213  1.0000
  N   N39       1.0  0.54488  0.26525  0.04374  1.0000
  C   C482      1.0  0.81858  0.35940  0.21883  1.0000
  H   H465      1.0  0.56527  0.24221  0.03732  1.0000
  C   C483      1.0  0.54136  0.38761  0.15198  1.0000
  C   C484      1.0  0.82054  0.25274  0.02056  1.0000
  H   H466      1.0  0.54007  0.41388  0.17676  1.0000
  H   H467      1.0  0.78162  0.39600  0.24857  1.0000
  C   C485      1.0  0.82870  0.36645  0.23959  1.0000
  H   H468      1.0  0.60732  0.49788  0.03759  1.0000
  C   C486      1.0  0.81060  0.29292  0.05428  1.0000
  H   H469      1.0  0.57480  0.36321  0.19509  1.0000
  N   N40       1.0  0.84090  0.39247  0.24592  1.0000
  S   S163      1.0  0.54359  0.34750  0.25779  1.0000
  C   C487      1.0  0.77356  0.23790  0.01387  1.0000
  C   C488      1.0  0.54841  0.24513  0.03096  1.0000
  H   H470      1.0  0.93885  0.45504  0.03740  1.0000
  H   H471      1.0  0.79472  0.46912  0.06821  1.0000
  H   H472      1.0  0.59624  0.26416  0.23339  1.0000
  S   S164      1.0  0.85932  0.47810  0.20839  1.0000
  H   H473      1.0  0.82671  0.50533  0.12914  1.0000
  H   H474      1.0  0.83652  0.42135  0.19994  1.0000
  H   H475      1.0  0.56640  0.34349  0.15848  1.0000
  H   H476      1.0  0.56948  0.29720  0.02385  1.0000
  H   H477      1.0  0.58211  0.11340  0.06122  1.0000
  H   H478      1.0  0.61671  0.13136  0.05623  1.0000
  C   C489      1.0  0.89154  0.47372  0.02352  1.0000
  C   C490      1.0  0.59818  0.11453  0.05054  1.0000
  S   S165      1.0  0.57618  0.30058  0.24660  1.0000
  H   H479      1.0  0.55215  0.25093  0.01392  1.0000
  H   H480      1.0  0.82591  0.35088  0.25079  1.0000
  H   H481      1.0  0.53185  0.39436  0.14015  1.0000
  H   H482      1.0  0.63935  0.34419  0.24790  1.0000
  C   C491      1.0  0.61736  0.25946  0.26052  1.0000
  H   H483      1.0  0.56430  0.33137  0.04567  1.0000
  H   H484      1.0  0.80799  0.33866  0.21419  1.0000
  H   H485      1.0  0.81319  0.37402  0.18842  1.0000
  S   S166      1.0  0.75875  0.49265  0.25326  1.0000
  H   H486      1.0  0.79739  0.51167  0.05589  1.0000
  H   H487      1.0  0.62843  0.11728  0.01753  1.0000
  H   H488      1.0  0.98626  0.44180  0.01417  1.0000
  H   H489      1.0  0.85336  0.35903  0.02123  1.0000
  C   C492      1.0  0.70482  0.46429  0.25504  1.0000
  H   H490      1.0  0.66233  0.44202  0.25666  1.0000
  C   C493      1.0  0.66837  0.33283  0.26037  1.0000
  H   H491      1.0  0.65533  0.31191  0.25870  1.0000
  Fe  Fe83      1.0  0.57820  0.33834  0.26059  1.0000
  H   H492      1.0  0.56581  0.51588  0.01434  1.0000
  C   C494      1.0  0.52684  0.27694  0.07455  1.0000
  C   C495      1.0  0.83555  0.34488  0.01229  1.0000
  C   C496      1.0  0.52666  0.30617  0.21135  1.0000
  H   H493      1.0  0.52800  0.28858  0.20451  1.0000
  C   C497      1.0  0.91044  0.43720  0.01189  1.0000
  Fe  Fe84      1.0  0.61429  0.39273  0.27805  1.0000
  S   S167      1.0  0.58812  0.35457  0.29401  1.0000
  S   S168      1.0  0.65230  0.41342  0.29678  1.0000
  Fe  Fe85      1.0  0.55640  0.36759  0.28990  1.0000
  S   S169      1.0  0.58302  0.40678  0.27559  1.0000
  H   H494      1.0  0.58723  0.42171  0.49749  1.0000
  S   S170      1.0  0.80360  0.47622  0.29359  1.0000
  H   H495      1.0  0.67037  0.04613  0.49298  1.0000
  H   H496      1.0  0.83876  0.48543  0.42182  1.0000
  Fe  Fe86      1.0  0.81093  0.44497  0.27663  1.0000
  H   H497      1.0  0.91687  0.44965  0.48185  1.0000
  Fe  Fe87      1.0  0.70529  0.21588  0.28190  1.0000
  S   S171      1.0  0.71344  0.19055  0.30617  1.0000
  H   H498      1.0  0.63040  0.39487  0.36560  1.0000
  S   S172      1.0  0.71113  0.25752  0.28746  1.0000
  Fe  Fe88      1.0  0.70347  0.18492  0.43551  1.0000
  S   S173      1.0  0.72879  0.17575  0.45887  1.0000
  S   S174      1.0  0.71658  0.21172  0.40652  1.0000
  Fe  Fe89      1.0  0.65851  0.16997  0.46764  1.0000
  S   S175      1.0  0.68036  0.16032  0.49324  1.0000
  S   S176      1.0  0.61724  0.16609  0.46995  1.0000
  Fe  Fe90      1.0  0.71643  0.19715  0.48365  1.0000
  C   C498      1.0  0.85161  0.39945  0.26768  1.0000
  Fe  Fe91      1.0  0.69051  0.13926  0.46661  1.0000
  S   S177      1.0  0.68563  0.09798  0.47564  1.0000
  S   S178      1.0  0.69308  0.20795  0.45999  1.0000
  S   S179      1.0  0.66654  0.14723  0.44141  1.0000
  C   C499      1.0  0.84045  0.47566  0.40678  1.0000
  Fe  Fe92      1.0  0.66959  0.24215  0.27521  1.0000
  C   C500      1.0  0.53353  0.27411  0.48224  1.0000
  C   C501      1.0  0.91383  0.50170  0.40976  1.0000
  H   H499      1.0  0.62139  0.38596  0.33812  1.0000
  C   C502      1.0  0.65821  0.04356  0.47895  1.0000
  C   C503      1.0  0.58972  0.09894  0.47372  1.0000
  C   C504      1.0  0.59650  0.44103  0.50507  1.0000
  H   H500      1.0  0.58199  0.11958  0.51036  1.0000
  C   C505      1.0  0.77812  0.50980  0.49301  1.0000
  C   C506      1.0  0.66154  0.06591  0.46709  1.0000
  H   H501      1.0  0.71532  0.40743  0.26450  1.0000
  C   C507      1.0  0.64565  0.06217  0.44896  1.0000
  C   C508      1.0  0.90100  0.50075  0.37286  1.0000
  H   H502      1.0  0.64799  0.07906  0.43958  1.0000
  H   H503      1.0  0.60780  0.41766  0.31755  1.0000
  H   H504      1.0  0.81318  0.23354  0.44076  1.0000
  N   N41       1.0  0.86812  0.48635  0.40030  1.0000
  H   H505      1.0  0.55191  0.43434  0.35268  1.0000
  S   S180      1.0  0.52779  0.36728  0.31542  1.0000
  C   C509      1.0  0.57687  0.42240  0.37121  1.0000
  S   S181      1.0  0.66297  0.20018  0.27133  1.0000
  H   H506      1.0  0.87238  0.40250  0.26814  1.0000
  H   H507      1.0  0.53655  0.32453  0.45156  1.0000
  C   C510      1.0  0.70192  0.38647  0.26345  1.0000
  C   C511      1.0  0.71485  0.19674  0.33405  1.0000
  C   C512      1.0  0.71689  0.22068  0.34229  1.0000
  C   C513      1.0  0.71781  0.22496  0.36452  1.0000
  C   C514      1.0  0.71593  0.20510  0.37876  1.0000
  C   C515      1.0  0.71372  0.18105  0.37058  1.0000
  C   C516      1.0  0.71354  0.17705  0.34829  1.0000
  H   H508      1.0  0.71812  0.23605  0.33152  1.0000
  H   H509      1.0  0.71982  0.24374  0.37068  1.0000
  H   H510      1.0  0.71256  0.16572  0.38137  1.0000
  H   H511      1.0  0.71213  0.15854  0.34202  1.0000
  C   C517      1.0  0.62411  0.09556  0.49526  1.0000
  N   N42       1.0  0.69323  0.34120  0.26866  1.0000
  H   H512      1.0  0.78880  0.49852  0.49703  1.0000
  C   C518      1.0  0.62742  0.40244  0.35003  1.0000
  C   C519      1.0  0.77833  0.35251  0.28699  1.0000
  H   H513      1.0  0.87473  0.49462  0.49757  1.0000
  H   H514      1.0  0.78291  0.35190  0.30371  1.0000
  H   H515      1.0  0.56243  0.35063  0.33897  1.0000
  C   C520      1.0  0.60210  0.29435  0.28171  1.0000
  C   C521      1.0  0.61684  0.28366  0.29250  1.0000
  H   H516      1.0  0.64651  0.41862  0.34482  1.0000
  H   H517      1.0  0.62241  0.28902  0.30905  1.0000
  C   C522      1.0  0.68145  0.43520  0.28410  1.0000
  C   C523      1.0  0.70569  0.44132  0.29414  1.0000
  C   C524      1.0  0.72944  0.45844  0.28448  1.0000
  C   C525      1.0  0.57934  0.42738  0.33295  1.0000
  H   H518      1.0  0.81684  0.51458  0.37184  1.0000
  C   C526      1.0  0.92073  0.50667  0.38832  1.0000
  H   H519      1.0  0.70611  0.43257  0.30935  1.0000
  H   H520      1.0  0.74796  0.46287  0.29235  1.0000
  C   C527      1.0  0.88726  0.49147  0.41550  1.0000
  C   C528      1.0  0.87461  0.49023  0.37915  1.0000
  H   H521      1.0  0.90607  0.50477  0.35613  1.0000
  C   C529      1.0  0.90251  0.45252  0.49148  1.0000
  H   H522      1.0  0.56767  0.42276  0.38632  1.0000
  C   C530      1.0  0.62464  0.26637  0.28190  1.0000
  H   H523      1.0  0.94132  0.51523  0.38373  1.0000
  H   H524      1.0  0.57684  0.10915  0.47376  1.0000
  H   H525      1.0  0.83220  0.45400  0.40917  1.0000
  H   H526      1.0  0.75988  0.29907  0.45726  1.0000
  H   H527      1.0  0.73003  0.37436  0.27623  1.0000
  C   C531      1.0  0.87870  0.47782  0.50022  1.0000
  S   S182      1.0  0.91605  0.49786  0.46881  1.0000
  C   C532      1.0  0.78367  0.37677  0.27755  1.0000
  C   C533      1.0  0.53135  0.30439  0.45627  1.0000
  C   C534      1.0  0.88978  0.43496  0.50811  1.0000
  S   S183      1.0  0.64419  0.25445  0.29560  1.0000
  S   S184      1.0  0.73956  0.23238  0.50623  1.0000
  H   H528      1.0  0.56823  0.34653  0.37791  1.0000
  S   S185      1.0  0.79867  0.40590  0.29299  1.0000
  H   H529      1.0  0.83374  0.26908  0.46845  1.0000
  S   S186      1.0  0.55335  0.44788  0.49198  1.0000
  H   H530      1.0  0.59615  0.30761  0.29003  1.0000
  H   H531      1.0  0.82837  0.47974  0.39465  1.0000
  C   C535      1.0  0.59666  0.41397  0.37032  1.0000
  H   H532      1.0  0.57746  0.07747  0.47061  1.0000
  C   C536      1.0  0.59921  0.41906  0.33267  1.0000
  H   H533      1.0  0.97164  0.46753  0.50154  1.0000
  C   C537      1.0  0.89738  0.47427  0.48780  1.0000
  N   N43       1.0  0.60730  0.41207  0.35114  1.0000
  C   C538      1.0  0.53168  0.36279  0.34293  1.0000
  S   S187      1.0  0.85367  0.47158  0.27065  1.0000
  C   C539      1.0  0.56803  0.42890  0.35235  1.0000
  C   C540      1.0  0.81432  0.26441  0.46196  1.0000
  C   C541      1.0  0.68100  0.44654  0.26444  1.0000
  Fe  Fe93      1.0  0.84539  0.50354  0.28541  1.0000
  H   H534      1.0  0.74048  0.27123  0.47410  1.0000
  C   C542      1.0  0.62716  0.03641  0.44259  1.0000
  N   N44       1.0  0.65213  0.19585  0.36741  1.0000
  C   C543      1.0  0.65077  0.20976  0.35005  1.0000
  C   C544      1.0  0.65150  0.17147  0.36479  1.0000
  C   C545      1.0  0.64912  0.19946  0.32939  1.0000
  C   C546      1.0  0.64991  0.16061  0.34434  1.0000
  C   C547      1.0  0.64889  0.17481  0.32656  1.0000
  C   C548      1.0  0.65448  0.20745  0.38884  1.0000
  H   H535      1.0  0.65143  0.22916  0.35201  1.0000
  H   H536      1.0  0.65321  0.16067  0.37847  1.0000
  H   H537      1.0  0.64856  0.21078  0.31566  1.0000
  H   H538      1.0  0.65056  0.14182  0.34220  1.0000
  H   H539      1.0  0.64867  0.16703  0.31060  1.0000
  H   H540      1.0  0.65723  0.19502  0.40137  1.0000
  H   H541      1.0  0.67211  0.22704  0.38974  1.0000
  H   H542      1.0  0.63650  0.20982  0.39266  1.0000
  H   H543      1.0  0.56775  0.16245  0.48403  1.0000
  H   H544      1.0  0.55111  0.31645  0.48687  1.0000
  C   C549      1.0  0.55361  0.35253  0.37237  1.0000
  H   H545      1.0  0.85945  0.48597  0.36703  1.0000
  H   H546      1.0  0.80949  0.29334  0.48150  1.0000
  C   C550      1.0  0.60731  0.17271  0.49498  1.0000
  H   H547      1.0  0.57209  0.43165  0.31813  1.0000
  H   H548      1.0  0.82576  0.51000  0.33363  1.0000
  S   S188      1.0  0.54452  0.35703  0.41487  1.0000
  C   C551      1.0  0.76764  0.32904  0.27476  1.0000
  H   H549      1.0  0.60384  0.10756  0.46038  1.0000
  H   H550      1.0  0.77010  0.29751  0.48440  1.0000
  C   C552      1.0  0.58114  0.16848  0.49759  1.0000
  S   S189      1.0  0.54216  0.37430  0.47347  1.0000
  H   H551      1.0  0.76420  0.31046  0.28200  1.0000
  C   C553      1.0  0.54000  0.29996  0.47611  1.0000
  N   N45       1.0  0.77554  0.27163  0.46181  1.0000
  C   C554      1.0  0.80045  0.27807  0.46932  1.0000
  C   C555      1.0  0.76427  0.25240  0.44644  1.0000
  C   C556      1.0  0.53840  0.35841  0.38728  1.0000
  C   C557      1.0  0.77766  0.23852  0.43856  1.0000
  C   C558      1.0  0.80276  0.24445  0.44652  1.0000
  C   C559      1.0  0.76087  0.28569  0.46973  1.0000
  H   H552      1.0  0.62916  0.08705  0.48149  1.0000
  H   H553      1.0  0.74470  0.24759  0.44027  1.0000
  H   H554      1.0  0.60265  0.40802  0.38498  1.0000
  C   C560      1.0  0.71013  0.36764  0.27000  1.0000
  C   C561      1.0  0.55042  0.35489  0.35029  1.0000
  C   C562      1.0  0.75561  0.50643  0.50441  1.0000
  H   H555      1.0  0.85082  0.41778  0.27341  1.0000
  H   H556      1.0  0.78003  0.51369  0.29806  1.0000
  C   C563      1.0  0.70193  0.32149  0.27529  1.0000
  H   H557      1.0  0.88209  0.48803  0.43224  1.0000
  H   H558      1.0  0.68598  0.30513  0.28401  1.0000
  H   H559      1.0  0.76845  0.22314  0.42646  1.0000
  H   H560      1.0  0.71925  0.33019  0.28626  1.0000
  Fe  Fe94      1.0  0.53059  0.40715  0.47730  1.0000
  C   C564      1.0  0.58460  0.45801  0.50382  1.0000
  C   C565      1.0  0.72909  0.47014  0.26499  1.0000
  H   H561      1.0  0.53961  0.27034  0.49780  1.0000
  H   H562      1.0  0.96315  0.50500  0.50413  1.0000
  H   H563      1.0  0.92894  0.50622  0.42200  1.0000
  H   H564      1.0  0.78573  0.22122  0.50500  1.0000
  H   H565      1.0  0.83967  0.38376  0.27913  1.0000
  H   H566      1.0  0.70141  0.50743  0.50241  1.0000
  N   N46       1.0  0.60425  0.10300  0.49393  1.0000
  H   H567      1.0  0.61540  0.03380  0.42831  1.0000
  H   H568      1.0  0.64480  0.18401  0.51067  1.0000
  H   H569      1.0  0.89421  0.41856  0.51116  1.0000
  C   C566      1.0  0.59778  0.11370  0.51133  1.0000
  Fe  Fe95      1.0  0.69151  0.48844  0.74071  1.0000
  C   C567      1.0  0.77345  0.40589  0.71881  1.0000
  S   S190      1.0  0.71712  0.46949  0.73111  1.0000
  S   S191      1.0  0.57806  0.18261  0.56099  1.0000
  S   S192      1.0  0.59716  0.24645  0.74179  1.0000
  N   N47       1.0  0.58329  0.22134  0.65867  1.0000
  C   C568      1.0  0.58917  0.17928  0.53540  1.0000
  H   H570      1.0  0.58763  0.16545  0.64429  1.0000
  H   H571      1.0  0.90908  0.50681  0.55108  1.0000
  Fe  Fe96      1.0  0.84274  0.35916  0.75159  1.0000
  S   S193      1.0  0.87055  0.35342  0.72821  1.0000
  H   H572      1.0  0.71913  0.37247  0.73143  1.0000
  S   S194      1.0  0.82205  0.38283  0.74119  1.0000
  Fe  Fe97      1.0  0.87570  0.33938  0.55508  1.0000
  S   S195      1.0  0.84914  0.35412  0.57034  1.0000
  S   S196      1.0  0.85846  0.29815  0.53949  1.0000
  Fe  Fe98      1.0  0.92596  0.39046  0.56728  1.0000
  S   S197      1.0  0.90184  0.40787  0.58388  1.0000
  S   S198      1.0  0.96866  0.42004  0.55950  1.0000
  Fe  Fe99      1.0  0.87818  0.36759  0.59771  1.0000
  S   S199      1.0  0.85444  0.36121  0.62826  1.0000
  Fe  Fe100     1.0  0.87482  0.39304  0.55553  1.0000
  S   S200      1.0  0.85677  0.41861  0.54286  1.0000
  S   S201      1.0  0.90407  0.35062  0.58329  1.0000
  S   S202      1.0  0.89954  0.37758  0.53798  1.0000
  S   S203      1.0  0.65999  0.48197  0.54318  1.0000
  C   C569      1.0  0.58843  0.23940  0.67701  1.0000
  H   H573      1.0  0.60853  0.47649  0.57924  1.0000
  H   H574      1.0  0.70903  0.37961  0.70600  1.0000
  Fe  Fe101     1.0  0.56174  0.20669  0.74289  1.0000
  C   C570      1.0  0.63172  0.37273  0.75602  1.0000
  H   H575      1.0  0.65583  0.27664  0.74567  1.0000
  C   C571      1.0  0.00110  0.42629  0.56798  1.0000
  C   C572      1.0  0.65298  0.36868  0.74869  1.0000
  H   H576      1.0  0.90336  0.40533  0.74842  1.0000
  H   H577      1.0  0.66655  0.33963  0.74088  1.0000
  H   H578      1.0  0.98941  0.39412  0.59005  1.0000
  C   C573      1.0  0.93717  0.50916  0.52704  1.0000
  C   C574      1.0  0.57113  0.21056  0.62172  1.0000
  C   C575      1.0  0.81782  0.25564  0.51952  1.0000
  H   H579      1.0  0.95411  0.43975  0.51838  1.0000
  Fe  Fe102     1.0  0.78782  0.35422  0.76004  1.0000
  C   C576      1.0  0.67534  0.28250  0.75226  1.0000
  H   H580      1.0  0.58779  0.49637  0.51249  1.0000
  H   H581      1.0  0.93581  0.44669  0.55259  1.0000
  H   H582      1.0  0.71747  0.50696  0.52710  1.0000
  C   C577      1.0  0.80744  0.29097  0.53071  1.0000
  H   H583      1.0  0.62913  0.43554  0.51795  1.0000
  H   H584      1.0  0.92595  0.41164  0.71007  1.0000
  C   C578      1.0  0.82584  0.28081  0.52900  1.0000
  H   H585      1.0  0.54349  0.39770  0.51775  1.0000
  C   C579      1.0  0.58002  0.41479  0.55695  1.0000
  C   C580      1.0  0.57497  0.22692  0.63965  1.0000
  C   C581      1.0  0.63207  0.47376  0.52684  1.0000
  C   C582      1.0  0.86527  0.35377  0.70031  1.0000
  C   C583      1.0  0.88395  0.35289  0.68595  1.0000
  C   C584      1.0  0.88105  0.35497  0.66372  1.0000
  C   C585      1.0  0.85926  0.35770  0.65578  1.0000
  C   C586      1.0  0.84032  0.35788  0.67012  1.0000
  C   C587      1.0  0.84333  0.35603  0.69224  1.0000
  H   H586      1.0  0.90090  0.35094  0.69206  1.0000
  H   H587      1.0  0.89566  0.35457  0.65283  1.0000
  H   H588      1.0  0.82325  0.35967  0.66410  1.0000
  H   H589      1.0  0.82856  0.35623  0.70301  1.0000
  C   C588      1.0  0.59825  0.43666  0.56858  1.0000
  C   C589      1.0  0.61200  0.11804  0.53049  1.0000
  Fe  Fe103     1.0  0.74049  0.48850  0.76068  1.0000
  S   S204      1.0  0.78470  0.50907  0.75877  1.0000
  C   C590      1.0  0.58808  0.19971  0.66038  1.0000
  S   S205      1.0  0.74787  0.34332  0.74550  1.0000
  C   C591      1.0  0.93641  0.46437  0.54546  1.0000
  H   H590      1.0  0.60732  0.12737  0.54399  1.0000
  C   C592      1.0  0.62454  0.18058  0.51256  1.0000
  C   C593      1.0  0.65017  0.34285  0.74649  1.0000
  C   C594      1.0  0.78122  0.27582  0.52358  1.0000
  S   S206      1.0  0.67351  0.50566  0.71657  1.0000
  H   H591      1.0  0.62490  0.30141  0.75081  1.0000
  H   H592      1.0  0.65402  0.51869  0.67814  1.0000
  H   H593      1.0  0.89479  0.43165  0.75476  1.0000
  C   C595      1.0  0.59402  0.45907  0.57090  1.0000
  C   C596      1.0  0.87056  0.43058  0.69481  1.0000
  N   N48       1.0  0.74901  0.40463  0.71545  1.0000
  C   C597      1.0  0.74608  0.42734  0.71398  1.0000
  C   C598      1.0  0.76810  0.45215  0.71525  1.0000
  C   C599      1.0  0.79584  0.43034  0.72033  1.0000
  C   C600      1.0  0.79311  0.45359  0.71835  1.0000
  C   C601      1.0  0.72572  0.37881  0.71485  1.0000
  H   H594      1.0  0.72657  0.42630  0.71208  1.0000
  H   H595      1.0  0.76583  0.47024  0.71449  1.0000
  H   H596      1.0  0.81016  0.47274  0.72014  1.0000
  H   H597      1.0  0.73020  0.36350  0.70710  1.0000
  H   H598      1.0  0.57082  0.24384  0.63833  1.0000
  C   C602      1.0  0.62023  0.44892  0.51659  1.0000
  H   H599      1.0  0.59415  0.19499  0.67559  1.0000
  H   H600      1.0  0.62958  0.51019  0.53291  1.0000
  C   C603      1.0  0.69660  0.30583  0.74542  1.0000
  H   H601      1.0  0.53180  0.14958  0.67474  1.0000
  H   H602      1.0  0.86870  0.43735  0.72846  1.0000
  H   H603      1.0  0.58541  0.22865  0.69235  1.0000
  S   S207      1.0  0.54811  0.17929  0.71374  1.0000
  H   H604      1.0  0.98418  0.46658  0.52807  1.0000
  H   H605      1.0  0.62883  0.18988  0.54631  1.0000
  H   H606      1.0  0.54196  0.37444  0.53788  1.0000
  C   C604      1.0  0.57175  0.45942  0.56156  1.0000
  H   H607      1.0  0.61612  0.43673  0.57502  1.0000
  C   C605      1.0  0.72194  0.31363  0.75393  1.0000
  C   C606      1.0  0.00586  0.41072  0.58305  1.0000
  C   C607      1.0  0.57593  0.18846  0.62331  1.0000
  S   S208      1.0  0.66448  0.45386  0.76048  1.0000
  S   S209      1.0  0.68379  0.39524  0.74307  1.0000
  C   C608      1.0  0.86566  0.46002  0.51660  1.0000
  C   C609      1.0  0.62062  0.49105  0.52498  1.0000
  C   C610      1.0  0.58433  0.18287  0.64277  1.0000
  C   C611      1.0  0.57209  0.17174  0.51774  1.0000
  H   H608      1.0  0.91331  0.41080  0.67207  1.0000
  Fe  Fe104     1.0  0.53476  0.17209  0.56403  1.0000
  C   C612      1.0  0.90642  0.42545  0.74371  1.0000
  N   N49       1.0  0.55813  0.41523  0.54797  1.0000
  C   C613      1.0  0.95195  0.49703  0.51854  1.0000
  C   C614      1.0  0.55402  0.43727  0.54991  1.0000
  N   N50       1.0  0.89839  0.42497  0.72137  1.0000
  C   C615      1.0  0.60531  0.32506  0.75963  1.0000
  C   C616      1.0  0.63257  0.11085  0.53188  1.0000
  C   C617      1.0  0.90374  0.41708  0.68433  1.0000
  H   H609      1.0  0.83187  0.24755  0.51816  1.0000
  C   C618      1.0  0.91088  0.41771  0.70582  1.0000
  H   H610      1.0  0.87679  0.42163  0.66230  1.0000
  C   C619      1.0  0.92152  0.49830  0.54490  1.0000
  H   H611      1.0  0.60904  0.25524  0.67660  1.0000
  H   H612      1.0  0.58388  0.39777  0.55469  1.0000
  C   C620      1.0  0.87156  0.43888  0.52086  1.0000
  H   H613      1.0  0.56423  0.21480  0.60671  1.0000
  H   H614      1.0  0.57294  0.17563  0.60947  1.0000
  C   C621      1.0  0.53981  0.39279  0.53492  1.0000
  Fe  Fe105     1.0  0.69233  0.43670  0.75298  1.0000
  H   H615      1.0  0.01954  0.45997  0.54740  1.0000
  N   N51       1.0  0.82098  0.28412  0.59305  1.0000
  C   C622      1.0  0.80573  0.29632  0.59874  1.0000
  C   C623      1.0  0.81104  0.26232  0.57987  1.0000
  C   C624      1.0  0.77996  0.28704  0.59077  1.0000
  C   C625      1.0  0.78522  0.25226  0.57188  1.0000
  C   C626      1.0  0.76970  0.26487  0.57723  1.0000
  C   C627      1.0  0.84784  0.29370  0.60162  1.0000
  H   H616      1.0  0.81355  0.31356  0.60928  1.0000
  H   H617      1.0  0.82336  0.25302  0.57500  1.0000
  H   H618      1.0  0.76816  0.29714  0.59495  1.0000
  H   H619      1.0  0.77765  0.23540  0.56095  1.0000
  H   H620      1.0  0.74992  0.25768  0.57058  1.0000
  H   H621      1.0  0.86162  0.29458  0.58867  1.0000
  H   H622      1.0  0.85524  0.31395  0.60863  1.0000
  H   H623      1.0  0.84828  0.28029  0.61430  1.0000
  C   C628      1.0  0.88322  0.42321  0.67885  1.0000
  C   C629      1.0  0.53186  0.18346  0.69096  1.0000
  H   H624      1.0  0.81504  0.43131  0.72378  1.0000
  H   H625      1.0  0.55192  0.16847  0.51955  1.0000
  H   H626      1.0  0.64402  0.11443  0.54652  1.0000
  H   H627      1.0  0.77565  0.38790  0.72062  1.0000
  C   C630      1.0  0.61547  0.18386  0.53273  1.0000
  C   C631      1.0  0.62651  0.32112  0.75207  1.0000
  H   H628      1.0  0.57460  0.24851  0.67708  1.0000
  H   H629      1.0  0.81322  0.31024  0.53800  1.0000
  H   H630      1.0  0.90849  0.46669  0.56775  1.0000
  C   C632      1.0  0.87860  0.43158  0.71612  1.0000
  H   H631      1.0  0.85446  0.43519  0.69073  1.0000
  H   H632      1.0  0.52881  0.21793  0.70271  1.0000
  C   C633      1.0  0.92121  0.47583  0.55427  1.0000
  H   H633      1.0  0.92758  0.43953  0.74588  1.0000
  N   N52       1.0  0.95106  0.47465  0.52757  1.0000
  H   H634      1.0  0.69341  0.31781  0.73345  1.0000
  H   H635      1.0  0.85154  0.46308  0.52641  1.0000
  C   C634      1.0  0.02285  0.44779  0.55909  1.0000
  H   H636      1.0  0.56881  0.47710  0.56261  1.0000
  C   C635      1.0  0.96609  0.46164  0.51836  1.0000
  C   C636      1.0  0.71958  0.51827  0.51220  1.0000
  H   H637      1.0  0.53744  0.43813  0.54176  1.0000
  H   H638      1.0  0.65468  0.09384  0.51492  1.0000
  H   H639      1.0  0.76704  0.28368  0.52547  1.0000
  C   C637      1.0  0.59694  0.48318  0.51348  1.0000
  H   H640      1.0  0.63355  0.39257  0.75745  1.0000
  H   H641      1.0  0.74870  0.49200  0.51708  1.0000
  C   C638      1.0  0.77313  0.25058  0.51424  1.0000
  C   C639      1.0  0.79166  0.24064  0.51207  1.0000
  C   C640      1.0  0.52692  0.16600  0.67352  1.0000
  H   H642      1.0  0.72615  0.51907  0.70012  1.0000
  C   C641      1.0  0.68861  0.51749  0.69155  1.0000
  H   H643      1.0  0.65066  0.51651  0.75293  1.0000
  C   C642      1.0  0.63855  0.09931  0.51422  1.0000
  C   C643      1.0  0.60791  0.35092  0.76146  1.0000
  H   H644      1.0  0.66721  0.25075  0.82350  1.0000
  S   S210      1.0  0.71794  0.45428  0.78190  1.0000
  N   N53       1.0  0.58590  0.48157  0.96917  1.0000
  H   H645      1.0  0.60804  0.14070  0.79745  1.0000
  Fe  Fe106     1.0  0.69208  0.47433  0.78805  1.0000
  H   H646      1.0  0.59322  0.44976  0.95783  1.0000
  Fe  Fe107     1.0  0.55891  0.20762  0.79238  1.0000
  H   H647      1.0  0.65677  0.16843  0.79798  1.0000
  S   S211      1.0  0.59386  0.24749  0.79486  1.0000
  C   C644      1.0  0.01140  0.41126  0.95214  1.0000
  C   C645      1.0  0.78033  0.25617  0.99708  1.0000
  S   S212      1.0  0.80007  0.37839  0.79021  1.0000
  C   C646      1.0  0.67952  0.26671  0.76741  1.0000
  Fe  Fe108     1.0  0.82218  0.35463  0.79756  1.0000
  S   S213      1.0  0.81635  0.33984  0.83173  1.0000
  C   C647      1.0  0.87946  0.45546  0.00674  1.0000
  Fe  Fe109     1.0  0.67454  0.51405  0.96936  1.0000
  Fe  Fe110     1.0  0.89018  0.38594  0.97250  1.0000
  S   S214      1.0  0.90528  0.36750  0.99705  1.0000
  S   S215      1.0  0.87296  0.41403  0.98011  1.0000
  Fe  Fe111     1.0  0.90160  0.35756  0.93580  1.0000
  S   S216      1.0  0.91735  0.33627  0.95777  1.0000
  S   S217      1.0  0.90690  0.35838  0.89984  1.0000
  Fe  Fe112     1.0  0.88231  0.32956  0.97863  1.0000
  C   C648      1.0  0.98769  0.34319  0.95829  1.0000
  Fe  Fe113     1.0  0.93881  0.37575  0.97440  1.0000
  S   S218      1.0  0.98057  0.39310  0.98842  1.0000
  S   S219      1.0  0.86500  0.34774  0.95516  1.0000
  S   S220      1.0  0.92531  0.39738  0.95139  1.0000
  S   S221      1.0  0.64815  0.47169  0.97860  1.0000
  S   S222      1.0  0.58095  0.18816  0.97526  1.0000
  C   C649      1.0  0.57097  0.50628  0.00136  1.0000
  C   C650      1.0  0.61657  0.16006  0.80513  1.0000
  C   C651      1.0  0.00686  0.35510  0.92333  1.0000
  C   C652      1.0  0.67411  0.48913  0.86149  1.0000
  C   C653      1.0  0.64387  0.17556  0.80547  1.0000
  C   C654      1.0  0.01063  0.40923  0.97440  1.0000
  H   H648      1.0  0.79088  0.51582  0.00658  1.0000
  H   H649      1.0  0.99316  0.40343  0.94301  1.0000
  H   H650      1.0  0.96500  0.33789  0.92935  1.0000
  H   H651      1.0  0.66504  0.40717  0.78909  1.0000
  S   S223      1.0  0.57900  0.19217  0.76912  1.0000
  H   H652      1.0  0.65550  0.51310  0.82110  1.0000
  C   C655      1.0  0.98757  0.45560  0.00115  1.0000
  C   C656      1.0  0.71311  0.51424  0.84071  1.0000
  H   H653      1.0  0.65466  0.47270  0.86283  1.0000
  C   C657      1.0  0.01901  0.47113  0.97147  1.0000
  C   C658      1.0  0.56643  0.46664  0.98304  1.0000
  H   H654      1.0  0.63184  0.19643  0.98980  1.0000
  H   H655      1.0  0.67558  0.21308  0.81451  1.0000
  H   H656      1.0  0.57895  0.15803  0.81408  1.0000
  Fe  Fe114     1.0  0.53785  0.17720  0.97108  1.0000
  C   C659      1.0  0.58550  0.12807  0.98588  1.0000
  C   C660      1.0  0.59362  0.19001  0.00124  1.0000
  C   C661      1.0  0.83452  0.46467  0.76884  1.0000
  C   C662      1.0  0.84172  0.34365  0.85008  1.0000
  C   C663      1.0  0.86819  0.35415  0.84403  1.0000
  C   C664      1.0  0.88786  0.35798  0.85940  1.0000
  C   C665      1.0  0.88130  0.35167  0.88093  1.0000
  C   C666      1.0  0.85481  0.34094  0.88693  1.0000
  C   C667      1.0  0.83512  0.33679  0.87152  1.0000
  H   H657      1.0  0.87348  0.35932  0.82755  1.0000
  H   H658      1.0  0.90830  0.36611  0.85461  1.0000
  H   H659      1.0  0.84948  0.33569  0.90339  1.0000
  H   H660      1.0  0.81465  0.32844  0.87627  1.0000
  H   H661      1.0  0.64487  0.39215  0.81179  1.0000
  C   C668      1.0  0.64956  0.23729  0.83265  1.0000
  C   C669      1.0  0.80700  0.45092  0.77092  1.0000
  H   H662      1.0  0.67428  0.50331  0.89379  1.0000
  C   C670      1.0  0.01309  0.35253  0.96706  1.0000
  C   C671      1.0  0.59343  0.46843  0.95206  1.0000
  C   C672      1.0  0.60749  0.43975  0.00434  1.0000
  C   C673      1.0  0.68516  0.50646  0.87907  1.0000
  C   C674      1.0  0.70492  0.27440  0.77581  1.0000
  S   S224      1.0  0.53874  0.21908  0.76607  1.0000
  H   H663      1.0  0.86278  0.45553  0.99829  1.0000
  H   H664      1.0  0.91786  0.42323  0.00750  1.0000
  Fe  Fe115     1.0  0.83595  0.40465  0.77210  1.0000
  C   C675      1.0  0.62614  0.46578  0.00005  1.0000
  C   C676      1.0  0.56701  0.12605  0.00131  1.0000
  H   H665      1.0  0.54652  0.16588  0.86434  1.0000
  H   H666      1.0  0.81176  0.28706  0.97953  1.0000
  S   S225      1.0  0.85518  0.44891  0.77083  1.0000
  C   C677      1.0  0.52585  0.18207  0.88393  1.0000
  C   C678      1.0  0.55864  0.47875  0.99931  1.0000
  H   H667      1.0  0.78279  0.32148  0.01062  1.0000
  H   H668      1.0  0.60746  0.42350  0.99502  1.0000
  H   H669      1.0  0.59854  0.20275  0.83046  1.0000
  S   S226      1.0  0.85945  0.38326  0.78175  1.0000
  C   C679      1.0  0.84617  0.49172  0.76447  1.0000
  H   H670      1.0  0.63530  0.24586  0.83178  1.0000
  H   H671      1.0  0.70826  0.26221  0.78750  1.0000
  H   H672      1.0  0.58291  0.13284  0.96955  1.0000
  H   H673      1.0  0.65525  0.23684  0.84957  1.0000
  N   N54       1.0  0.63816  0.21050  0.82338  1.0000
  H   H674      1.0  0.01526  0.35193  0.98424  1.0000
  H   H675      1.0  0.97058  0.33562  0.96862  1.0000
  H   H676      1.0  0.76480  0.25756  0.98786  1.0000
  S   S227      1.0  0.54362  0.18107  0.82139  1.0000
  C   C680      1.0  0.60024  0.16978  0.81444  1.0000
  H   H677      1.0  0.52791  0.17271  0.89830  1.0000
  H   H678      1.0  0.62239  0.12669  0.97995  1.0000
  Fe  Fe116     1.0  0.57578  0.25811  0.76684  1.0000
  S   S228      1.0  0.67284  0.47106  0.82039  1.0000
  H   H679      1.0  0.84189  0.33560  0.99924  1.0000
  C   C681      1.0  0.65441  0.20078  0.81494  1.0000
  N   N55       1.0  0.86225  0.40168  0.89369  1.0000
  C   C682      1.0  0.88342  0.41219  0.88031  1.0000
  C   C683      1.0  0.83728  0.39477  0.88610  1.0000
  C   C684      1.0  0.87982  0.41550  0.85861  1.0000
  C   C685      1.0  0.83296  0.39759  0.86445  1.0000
  C   C686      1.0  0.85438  0.40797  0.85064  1.0000
  C   C687      1.0  0.86653  0.39837  0.91636  1.0000
  H   H680      1.0  0.90314  0.41717  0.88626  1.0000
  H   H681      1.0  0.82046  0.38622  0.89662  1.0000
  H   H682      1.0  0.89651  0.42292  0.84789  1.0000
  H   H683      1.0  0.81305  0.39082  0.85820  1.0000
  H   H684      1.0  0.85113  0.40938  0.83369  1.0000
  H   H685      1.0  0.87205  0.41721  0.92534  1.0000
  H   H686      1.0  0.84860  0.38266  0.92368  1.0000
  H   H687      1.0  0.88250  0.39216  0.91832  1.0000
  N   N56       1.0  0.66878  0.37385  0.80063  1.0000
  C   C688      1.0  0.64872  0.34898  0.80339  1.0000
  C   C689      1.0  0.69290  0.37711  0.79356  1.0000
  C   C690      1.0  0.65278  0.32660  0.79961  1.0000
  C   C691      1.0  0.69759  0.35515  0.78947  1.0000
  C   C692      1.0  0.67743  0.32978  0.79273  1.0000
  C   C693      1.0  0.66437  0.39725  0.80445  1.0000
  H   H688      1.0  0.62919  0.34622  0.80796  1.0000
  H   H689      1.0  0.70845  0.39676  0.79051  1.0000
  H   H690      1.0  0.63661  0.30693  0.80125  1.0000
  H   H691      1.0  0.71654  0.35773  0.78338  1.0000
  H   H692      1.0  0.68075  0.31261  0.78950  1.0000
  C   C694      1.0  0.68802  0.49288  0.84227  1.0000
  H   H693      1.0  0.97328  0.44329  0.98860  1.0000
  H   H694      1.0  0.67980  0.41156  0.81535  1.0000
  C   C695      1.0  0.80698  0.27300  0.99233  1.0000
  H   H695      1.0  0.59150  0.35408  0.76718  1.0000
  C   C696      1.0  0.61143  0.19517  0.82360  1.0000
  C   C697      1.0  0.82729  0.27151  0.00416  1.0000
  S   S229      1.0  0.65335  0.23754  0.77641  1.0000
  N   N57       1.0  0.01461  0.46884  0.99301  1.0000
  H   H696      1.0  0.00264  0.46248  0.96023  1.0000
  Fe  Fe117     1.0  0.61240  0.23286  0.76985  1.0000
  H   H697      1.0  0.74564  0.30391  0.77584  1.0000
  H   H698      1.0  0.57981  0.46415  0.93821  1.0000
  S   S230      1.0  0.57584  0.29812  0.76760  1.0000
  S   S231      1.0  0.86126  0.29334  0.99990  1.0000
  H   H699      1.0  0.61398  0.48091  0.94676  1.0000
  C   C698      1.0  0.88879  0.43708  0.00093  1.0000
  C   C699      1.0  0.98460  0.34459  0.93629  1.0000
  H   H700      1.0  0.00467  0.35656  0.90624  1.0000
  C   C700      1.0  0.59760  0.50860  0.97072  1.0000
  S   S232      1.0  0.71683  0.51050  0.76898  1.0000
  C   C701      1.0  0.61961  0.19361  0.00371  1.0000
  H   H701      1.0  0.63247  0.49366  0.78685  1.0000
  C   C702      1.0  0.72610  0.29797  0.76920  1.0000
  H   H702      1.0  0.55743  0.44521  0.98205  1.0000
  H   H703      1.0  0.86738  0.50249  0.76294  1.0000
  C   C703      1.0  0.53645  0.17827  0.86463  1.0000
  H   H704      1.0  0.82624  0.35666  0.00514  1.0000
  C   C704      1.0  0.60770  0.12485  0.99174  1.0000
  C   C705      1.0  0.65026  0.51231  0.78696  1.0000
  H   H705      1.0  0.72404  0.51735  0.82601  1.0000
  C   C706      1.0  0.53355  0.18986  0.84567  1.0000
  H   H706      1.0  0.98127  0.47043  0.00728  1.0000
  H   H707      1.0  0.55001  0.12913  0.99693  1.0000
  H   H708      1.0  0.64030  0.50671  0.00915  1.0000
  C   C707      1.0  0.79128  0.46436  0.76845  1.0000
  C   C708      1.0  0.80313  0.49145  0.76373  1.0000
  H   H709      1.0  0.79784  0.42999  0.77431  1.0000
  S   S233      1.0  0.80712  0.32823  0.76823  1.0000
  H   H710      1.0  0.77007  0.45372  0.76980  1.0000
  H   H711      1.0  0.54402  0.46676  0.01084  1.0000
  C   C709      1.0  0.83058  0.50500  0.76186  1.0000
  C   C710      1.0  0.59097  0.96897  0.13201  1.0000
  N   N58       1.0  0.62751  0.94523  0.02592  1.0000
  S   S234      1.0  0.87375  0.52023  0.07390  1.0000
  Fe  Fe118     1.0  0.89592  0.55418  0.09654  1.0000
  S   S235      1.0  0.89751  0.58521  0.07314  1.0000
  C   C711      1.0  0.62553  0.00635  0.07090  1.0000
  H   H712      1.0  0.84291  0.59207  0.03292  1.0000
  S   S236      1.0  0.91604  0.55480  0.03726  1.0000
  Fe  Fe119     1.0  0.93624  0.58623  0.06253  1.0000
  S   S237      1.0  0.97359  0.62227  0.05190  1.0000
  Fe  Fe120     1.0  0.87736  0.55127  0.04991  1.0000
  S   S238      1.0  0.84088  0.53907  0.02815  1.0000
  S   S239      1.0  0.93597  0.55794  0.08754  1.0000
  H   H713      1.0  0.62196  0.94955  0.11794  1.0000
  Fe  Fe121     1.0  0.55875  0.87856  0.05245  1.0000
  C   C712      1.0  0.99536  0.54936  0.06625  1.0000
  H   H714      1.0  0.02395  0.65975  0.03588  1.0000
  Fe  Fe122     1.0  0.58210  0.93442  0.07392  1.0000
  C   C713      1.0  0.61305  0.94004  0.13327  1.0000
  S   S240      1.0  0.61921  0.97372  0.07849  1.0000
  Fe  Fe123     1.0  0.55101  0.88438  0.10035  1.0000
  N   N59       1.0  0.00467  0.57862  0.03646  1.0000
  C   C714      1.0  0.87524  0.53447  0.15148  1.0000
  S   S241      1.0  0.58711  0.89755  0.07974  1.0000
  S   S242      1.0  0.55659  0.91674  0.04489  1.0000
  H   H715      1.0  0.54990  0.67709  0.05937  1.0000
  C   C715      1.0  0.80676  0.58880  0.01832  1.0000
  H   H716      1.0  0.82949  0.54758  0.11609  1.0000
  H   H717      1.0  0.82601  0.57794  0.23713  1.0000
  H   H718      1.0  0.53544  0.77489  0.18976  1.0000
  C   C716      1.0  0.00643  0.63197  0.06132  1.0000
  H   H719      1.0  0.60476  0.91827  0.13055  1.0000
  Fe  Fe124     1.0  0.91378  0.52651  0.06282  1.0000
  S   S243      1.0  0.88090  0.55659  0.12993  1.0000
  H   H720      1.0  0.55090  0.76928  0.05111  1.0000
  N   N60       1.0  0.81290  0.53188  0.08546  1.0000
  C   C717      1.0  0.60974  0.01111  0.05596  1.0000
  H   H721      1.0  0.53622  0.96426  0.15773  1.0000
  H   H722      1.0  0.99559  0.60653  0.08859  1.0000
  C   C718      1.0  0.57079  0.97544  0.13818  1.0000
  C   C719      1.0  0.57456  0.93205  0.15510  1.0000
  C   C720      1.0  0.55217  0.95968  0.15299  1.0000
  H   H723      1.0  0.56950  0.99241  0.13131  1.0000
  H   H724      1.0  0.57596  0.91508  0.16184  1.0000
  C   C721      1.0  0.56648  0.67874  0.04976  1.0000
  H   H725      1.0  0.53049  0.79076  0.21334  1.0000
  C   C722      1.0  0.81606  0.55744  0.07748  1.0000
  H   H726      1.0  0.98102  0.53363  0.07587  1.0000
  C   C723      1.0  0.64700  0.94658  0.04198  1.0000
  S   S244      1.0  0.54803  0.92235  0.09644  1.0000
  H   H727      1.0  0.65952  0.96725  0.04755  1.0000
  H   H728      1.0  0.53980  0.92551  0.17321  1.0000
  H   H729      1.0  0.96613  0.54917  0.04430  1.0000
  C   C724      1.0  0.82470  0.57908  0.02485  1.0000
  H   H730      1.0  0.60528  0.98129  0.12043  1.0000
  H   H731      1.0  0.55395  0.85481  0.17682  1.0000
  N   N61       1.0  0.60377  0.70511  0.02804  1.0000
  S   S245      1.0  0.56683  0.85734  0.02409  1.0000
  S   S246      1.0  0.55561  0.73942  0.01534  1.0000
  S   S247      1.0  0.55345  0.86798  0.13288  1.0000
  H   H732      1.0  0.62882  0.94627  0.14565  1.0000
  H   H733      1.0  0.83545  0.56763  0.06944  1.0000
  N   N62       1.0  0.59224  0.94711  0.14010  1.0000
  C   C725      1.0  0.01175  0.62086  0.07947  1.0000
  H   H734      1.0  0.80020  0.55478  0.06578  1.0000
  C   C726      1.0  0.56258  0.82410  0.02193  1.0000
  C   C727      1.0  0.58369  0.70314  0.04115  1.0000
  C   C728      1.0  0.55490  0.78174  0.03726  1.0000
  C   C729      1.0  0.62309  0.96680  0.02226  1.0000
  H   H735      1.0  0.81134  0.60928  0.02152  1.0000
  H   H736      1.0  0.59474  0.64170  0.02897  1.0000
  H   H737      1.0  0.59229  0.99474  0.04948  1.0000
  C   C730      1.0  0.55713  0.80759  0.03964  1.0000
  C   C731      1.0  0.85906  0.52149  0.18786  1.0000
  H   H738      1.0  0.85974  0.55535  0.17160  1.0000
  C   C732      1.0  0.61308  0.92188  0.01523  1.0000
  H   H739      1.0  0.58035  0.72031  0.04445  1.0000
  C   C733      1.0  0.55415  0.93795  0.16166  1.0000
  H   H740      1.0  0.60953  0.74216  0.01513  1.0000
  H   H741      1.0  0.66016  0.93853  0.03535  1.0000
  C   C734      1.0  0.86421  0.53864  0.17039  1.0000
  C   C735      1.0  0.55778  0.77191  0.01717  1.0000
  C   C736      1.0  0.62069  0.73048  0.01816  1.0000
  H   H742      1.0  0.55672  0.63728  0.05145  1.0000
  H   H743      1.0  0.63785  0.74216  0.02872  1.0000
  H   H744      1.0  0.85070  0.52506  0.20232  1.0000
  C   C737      1.0  0.53724  0.85900  0.17444  1.0000
  C   C738      1.0  0.82733  0.57325  0.25373  1.0000
  C   C739      1.0  0.59158  0.65888  0.03269  1.0000
  H   H745      1.0  0.63668  0.93494  0.05616  1.0000
  C   C740      1.0  0.81912  0.55269  0.02067  1.0000
  H   H746      1.0  0.81521  0.57037  0.09064  1.0000
  C   C741      1.0  0.60837  0.68359  0.02432  1.0000
  H   H747      1.0  0.55490  0.81480  0.05519  1.0000
  C   C742      1.0  0.82114  0.53023  0.10571  1.0000
  H   H748      1.0  0.78545  0.55019  0.25692  1.0000
  C   C743      1.0  0.98697  0.55832  0.04837  1.0000
  C   C744      1.0  0.57033  0.65644  0.04530  1.0000
  C   C745      1.0  0.99553  0.58778  0.01778  1.0000
  H   H749      1.0  0.63422  0.98520  0.03098  1.0000
  H   H750      1.0  0.00697  0.60958  0.01609  1.0000
  H   H751      1.0  0.61605  0.90453  0.01853  1.0000
  H   H752      1.0  0.97457  0.58395  0.01956  1.0000
  C   C746      1.0  0.53229  0.86626  0.15413  1.0000
  H   H753      1.0  0.62462  0.68524  0.01429  1.0000
  H   H754      1.0  0.86988  0.59365  0.25503  1.0000
  C   C747      1.0  0.02212  0.56108  0.07174  1.0000
  H   H755      1.0  0.80537  0.53199  0.46842  1.0000
  C   C748      1.0  0.59939  0.95819  0.36741  1.0000
  C   C749      1.0  0.54263  0.86542  0.37898  1.0000
  Fe  Fe125     1.0  0.87980  0.55515  0.43511  1.0000
  S   S248      1.0  0.89016  0.59121  0.45616  1.0000
  C   C750      1.0  0.00761  0.61462  0.47125  1.0000
  C   C751      1.0  0.83005  0.55936  0.29569  1.0000
  S   S249      1.0  0.91833  0.56598  0.48914  1.0000
  Fe  Fe126     1.0  0.87745  0.56297  0.48373  1.0000
  C   C752      1.0  0.61100  0.78790  0.49223  1.0000
  Fe  Fe127     1.0  0.93037  0.59149  0.45991  1.0000
  S   S250      1.0  0.96926  0.62935  0.45681  1.0000
  C   C753      1.0  0.60395  0.96182  0.38940  1.0000
  S   S251      1.0  0.92050  0.55764  0.43665  1.0000
  Fe  Fe128     1.0  0.56805  0.88743  0.48130  1.0000
  C   C754      1.0  0.78199  0.53413  0.29742  1.0000
  C   C755      1.0  0.75187  0.54002  0.48420  1.0000
  Fe  Fe129     1.0  0.58005  0.93888  0.45630  1.0000
  C   C756      1.0  0.78743  0.52860  0.47690  1.0000
  S   S252      1.0  0.60100  0.98198  0.44475  1.0000
  H   H756      1.0  0.80162  0.61103  0.49777  1.0000
  C   C757      1.0  0.53617  0.89432  0.35359  1.0000
  C   C758      1.0  0.60382  0.89464  0.35812  1.0000
  S   S253      1.0  0.55807  0.92181  0.48684  1.0000
  S   S254      1.0  0.59305  0.90643  0.45241  1.0000
  H   H757      1.0  0.59205  0.77323  0.48499  1.0000
  H   H758      1.0  0.99144  0.59589  0.47545  1.0000
  H   H759      1.0  0.61099  0.90646  0.39981  1.0000
  C   C759      1.0  0.00222  0.63406  0.46176  1.0000
  N   N63       1.0  0.74300  0.52169  0.50009  1.0000
  C   C760      1.0  0.59946  0.93595  0.35736  1.0000
  S   S255      1.0  0.87467  0.53279  0.30920  1.0000
  N   N64       1.0  0.60344  0.91760  0.36898  1.0000
  S   S256      1.0  0.54380  0.91724  0.43552  1.0000
  C   C761      1.0  0.53736  0.84657  0.36257  1.0000
  C   C762      1.0  0.85756  0.53938  0.38026  1.0000
  C   C763      1.0  0.60806  0.92109  0.39053  1.0000
  H   H760      1.0  0.58990  0.88812  0.34426  1.0000
  H   H761      1.0  0.53827  0.82821  0.36588  1.0000
  C   C764      1.0  0.82280  0.58784  0.50324  1.0000
  H   H762      1.0  0.63732  0.00087  0.48196  1.0000
  H   H763      1.0  0.74215  0.55243  0.48106  1.0000
  C   C765      1.0  0.55041  0.78818  0.49909  1.0000
  C   C766      1.0  0.54144  0.88911  0.37455  1.0000
  S   S257      1.0  0.85013  0.54101  0.40753  1.0000
  H   H764      1.0  0.61216  0.94612  0.41807  1.0000
  H   H765      1.0  0.62404  0.89966  0.35245  1.0000
  C   C767      1.0  0.63941  0.01781  0.47276  1.0000
  C   C768      1.0  0.62390  0.01402  0.45438  1.0000
  H   H766      1.0  0.59572  0.97244  0.35825  1.0000
  Fe  Fe130     1.0  0.55530  0.88429  0.43369  1.0000
  S   S258      1.0  0.53146  0.86341  0.46220  1.0000
  H   H767      1.0  0.60813  0.80560  0.49660  1.0000
  H   H768      1.0  0.83144  0.55351  0.31192  1.0000
  C   C769      1.0  0.88333  0.55211  0.37254  1.0000
  H   H769      1.0  0.55181  0.82154  0.48134  1.0000
  H   H770      1.0  0.89943  0.56381  0.38332  1.0000
  H   H771      1.0  0.90821  0.56023  0.34481  1.0000
  S   S259      1.0  0.55234  0.85930  0.40430  1.0000
  H   H772      1.0  0.01977  0.67352  0.44906  1.0000
  H   H773      1.0  0.54546  0.90377  0.38708  1.0000
  H   H774      1.0  0.78165  0.55881  0.46020  1.0000
  C   C770      1.0  0.83686  0.52440  0.36602  1.0000
  H   H775      1.0  0.83701  0.59722  0.49075  1.0000
  C   C771      1.0  0.86760  0.53471  0.33654  1.0000
  H   H776      1.0  0.54086  0.77416  0.48622  1.0000
  H   H777      1.0  0.87237  0.58101  0.29264  1.0000
  C   C772      1.0  0.55664  0.81511  0.49625  1.0000
  C   C773      1.0  0.53146  0.85152  0.34175  1.0000
  H   H778      1.0  0.53612  0.91304  0.35007  1.0000
  H   H779      1.0  0.60392  0.97891  0.39754  1.0000
  N   N65       1.0  0.61778  0.77664  0.51093  1.0000
  C   C774      1.0  0.88826  0.54999  0.35072  1.0000
  H   H780      1.0  0.52804  0.83710  0.32912  1.0000
  C   C775      1.0  0.60848  0.94328  0.40101  1.0000
  N   N66       1.0  0.80600  0.55109  0.28583  1.0000
  H   H781      1.0  0.59732  0.87742  0.36901  1.0000
  H   H782      1.0  0.59563  0.93309  0.34029  1.0000
  H   H783      1.0  0.62686  0.79369  0.48018  1.0000
  Fe  Fe131     1.0  0.90617  0.53225  0.46567  1.0000
  C   C776      1.0  0.85333  0.57503  0.28486  1.0000
  C   C777      1.0  0.77417  0.54371  0.47235  1.0000
  C   C778      1.0  0.02364  0.65831  0.45640  1.0000
  C   C779      1.0  0.53141  0.87566  0.33710  1.0000
  H   H784      1.0  0.60688  0.73929  0.49558  1.0000
  C   C780      1.0  0.80270  0.59562  0.50726  1.0000
  S   S260      1.0  0.57903  0.86814  0.50929  1.0000
  H   H785      1.0  0.78260  0.54174  0.31394  1.0000
  C   C781      1.0  0.80444  0.55758  0.26504  1.0000
  C   C782      1.0  0.85192  0.58203  0.26375  1.0000
  C   C783      1.0  0.84186  0.52178  0.34433  1.0000
  C   C784      1.0  0.61527  0.75140  0.50975  1.0000
  S   S261      1.0  0.86482  0.52701  0.46250  1.0000
  H   H786      1.0  0.76394  0.53298  0.28936  1.0000
  S   S262      1.0  0.52764  0.88399  0.31066  1.0000
  S   S263      1.0  0.71967  0.53865  0.56831  1.0000
  H   H787      1.0  0.53978  0.55110  0.53647  1.0000
  Fe  Fe132     1.0  0.70807  0.55514  0.59701  1.0000
  S   S264      1.0  0.71689  0.59395  0.58113  1.0000
  H   H788      1.0  0.77054  0.59700  0.60224  1.0000
  H   H789      1.0  0.53071  0.76706  0.69568  1.0000
  S   S265      1.0  0.68353  0.55896  0.53942  1.0000
  Fe  Fe133     1.0  0.72545  0.57554  0.55169  1.0000
  C   C785      1.0  0.69502  0.56122  0.74765  1.0000
  Fe  Fe134     1.0  0.67410  0.57393  0.57028  1.0000
  S   S266      1.0  0.64037  0.58604  0.57318  1.0000
  H   H790      1.0  0.79256  0.58675  0.61522  1.0000
  H   H791      1.0  0.62089  0.72060  0.52605  1.0000
  C   C786      1.0  0.62308  0.74071  0.52689  1.0000
  S   S267      1.0  0.57906  0.72943  0.57587  1.0000
  H   H792      1.0  0.83985  0.52590  0.75827  1.0000
  S   S268      1.0  0.55147  0.74571  0.51958  1.0000
  S   S269      1.0  0.55859  0.68397  0.53796  1.0000
  Fe  Fe135     1.0  0.58288  0.69187  0.56798  1.0000
  S   S270      1.0  0.62213  0.68980  0.56398  1.0000
  Fe  Fe136     1.0  0.55211  0.71943  0.54716  1.0000
  H   H793      1.0  0.67476  0.53675  0.64324  1.0000
  S   S271      1.0  0.54885  0.66616  0.58866  1.0000
  C   C787      1.0  0.57899  0.62630  0.52805  1.0000
  H   H794      1.0  0.85577  0.63384  0.53963  1.0000
  H   H795      1.0  0.78605  0.62490  0.57261  1.0000
  C   C788      1.0  0.59137  0.56667  0.53367  1.0000
  H   H796      1.0  0.70553  0.58307  0.74955  1.0000
  H   H797      1.0  0.63925  0.74769  0.55881  1.0000
  C   C789      1.0  0.78355  0.58720  0.59953  1.0000
  H   H798      1.0  0.56105  0.75385  0.71541  1.0000
  C   C790      1.0  0.63684  0.61588  0.57195  1.0000
  C   C791      1.0  0.61274  0.61534  0.57828  1.0000
  C   C792      1.0  0.60809  0.63782  0.57629  1.0000
  C   C793      1.0  0.62750  0.66125  0.56782  1.0000
  C   C794      1.0  0.65172  0.66190  0.56169  1.0000
  C   C795      1.0  0.65639  0.63940  0.56371  1.0000
  H   H799      1.0  0.59747  0.59734  0.58473  1.0000
  H   H800      1.0  0.58941  0.63695  0.58119  1.0000
  H   H801      1.0  0.66696  0.67991  0.55521  1.0000
  H   H802      1.0  0.67500  0.64019  0.55872  1.0000
  C   C796      1.0  0.80618  0.55646  0.53192  1.0000
  C   C797      1.0  0.71231  0.53840  0.65186  1.0000
  H   H803      1.0  0.56503  0.69127  0.68594  1.0000
  C   C798      1.0  0.78590  0.56395  0.53573  1.0000
  C   C799      1.0  0.82371  0.59356  0.58075  1.0000
  C   C800      1.0  0.55804  0.77226  0.74499  1.0000
  C   C801      1.0  0.53740  0.58777  0.53289  1.0000
  C   C802      1.0  0.72665  0.53334  0.66809  1.0000
  N   N67       1.0  0.80390  0.60088  0.58360  1.0000
  C   C803      1.0  0.84159  0.62507  0.55232  1.0000
  C   C804      1.0  0.55090  0.57220  0.53391  1.0000
  H   H804      1.0  0.82443  0.57796  0.59029  1.0000
  C   C805      1.0  0.62769  0.79169  0.52905  1.0000
  H   H805      1.0  0.61323  0.61925  0.52813  1.0000
  H   H806      1.0  0.64302  0.79333  0.56101  1.0000
  C   C806      1.0  0.67427  0.52261  0.67535  1.0000
  C   C807      1.0  0.56941  0.79780  0.53458  1.0000
  H   H807      1.0  0.67945  0.55665  0.73519  1.0000
  C   C808      1.0  0.54828  0.70092  0.65823  1.0000
  N   N68       1.0  0.54748  0.78687  0.75514  1.0000
  Fe  Fe137     1.0  0.54265  0.70248  0.59415  1.0000
  H   H808      1.0  0.62931  0.81156  0.53012  1.0000
  S   S272      1.0  0.72851  0.55267  0.62770  1.0000
  C   C809      1.0  0.59185  0.61014  0.52901  1.0000
  C   C810      1.0  0.53547  0.77275  0.71235  1.0000
  H   H809      1.0  0.77197  0.55474  0.54837  1.0000
  C   C811      1.0  0.53073  0.79425  0.74441  1.0000
  C   C812      1.0  0.80240  0.61989  0.57105  1.0000
  H   H810      1.0  0.54131  0.62718  0.52932  1.0000
  H   H811      1.0  0.81946  0.64675  0.54494  1.0000
  N   N69       1.0  0.57777  0.58344  0.53193  1.0000
  H   H812      1.0  0.52892  0.87621  0.51728  1.0000
  H   H813      1.0  0.58583  0.83897  0.54436  1.0000
  C   C813      1.0  0.78413  0.58372  0.52351  1.0000
  H   H814      1.0  0.77082  0.56651  0.59421  1.0000
  C   C814      1.0  0.55250  0.76532  0.72341  1.0000
  S   S273      1.0  0.66509  0.53598  0.58798  1.0000
  H   H815      1.0  0.85803  0.59908  0.56231  1.0000
  C   C815      1.0  0.55069  0.69763  0.68030  1.0000
  H   H816      1.0  0.56062  0.69701  0.64696  1.0000
  C   C816      1.0  0.57584  0.82481  0.53167  1.0000
  H   H817      1.0  0.93692  0.52613  0.51919  1.0000
  C   C817      1.0  0.63342  0.75596  0.54533  1.0000
  C   C818      1.0  0.55159  0.61495  0.52991  1.0000
  C   C819      1.0  0.55688  0.77932  0.51818  1.0000
  C   C820      1.0  0.82131  0.63240  0.55535  1.0000
  C   C821      1.0  0.84286  0.60554  0.56508  1.0000
  H   H818      1.0  0.57459  0.79139  0.54934  1.0000
  H   H819      1.0  0.74705  0.53770  0.66546  1.0000
  H   H820      1.0  0.80754  0.54137  0.54165  1.0000
  C   C822      1.0  0.68597  0.53280  0.65552  1.0000
  C   C823      1.0  0.63554  0.78154  0.54654  1.0000
  S   S274      1.0  0.75976  0.59483  0.52851  1.0000
  S   S275      1.0  0.53779  0.69761  0.72266  1.0000
  H   H821      1.0  0.59030  0.64758  0.52649  1.0000
  H   H822      1.0  0.61288  0.57784  0.53049  1.0000
  Fe  Fe138     1.0  0.67751  0.52296  0.55787  1.0000
  H   H823      1.0  0.57066  0.76567  0.75362  1.0000
  C   C824      1.0  0.82471  0.56826  0.51564  1.0000
  C   C825      1.0  0.71483  0.52274  0.68777  1.0000
  H   H824      1.0  0.58944  0.55894  0.55017  1.0000
  H   H825      1.0  0.70903  0.55383  0.74165  1.0000
  C   C826      1.0  0.53003  0.70945  0.65085  1.0000
  C   C827      1.0  0.53448  0.70222  0.69507  1.0000
  C   C828      1.0  0.56965  0.83370  0.51246  1.0000
  H   H826      1.0  0.58295  0.54985  0.52210  1.0000
  H   H827      1.0  0.72090  0.53784  0.51701  1.0000
  S   S276      1.0  0.85006  0.55820  0.51205  1.0000
  C   C829      1.0  0.69696  0.55877  0.78665  1.0000
  H   H828      1.0  0.76698  0.58101  0.92843  1.0000
  C   C830      1.0  0.68690  0.54640  0.80608  1.0000
  C   C831      1.0  0.77733  0.54907  0.93247  1.0000
  Fe  Fe139     1.0  0.70646  0.54719  0.93188  1.0000
  S   S277      1.0  0.71671  0.58531  0.95000  1.0000
  C   C832      1.0  0.79339  0.54026  0.94339  1.0000
  H   H829      1.0  0.76277  0.53628  0.92089  1.0000
  S   S278      1.0  0.68303  0.54958  0.99011  1.0000
  C   C833      1.0  0.59049  0.65772  0.89566  1.0000
  Fe  Fe140     1.0  0.67419  0.56700  0.96062  1.0000
  S   S279      1.0  0.63977  0.57811  0.95970  1.0000
  Fe  Fe141     1.0  0.72468  0.56451  0.97787  1.0000
  S   S280      1.0  0.76213  0.58609  0.99825  1.0000
  H   H830      1.0  0.56970  0.64518  0.85538  1.0000
  N   N70       1.0  0.79751  0.59043  0.95178  1.0000
  Fe  Fe142     1.0  0.55054  0.70297  0.93764  1.0000
  S   S281      1.0  0.58485  0.72467  0.96027  1.0000
  H   H831      1.0  0.55794  0.66993  0.85502  1.0000
  C   C834      1.0  0.71026  0.52782  0.87753  1.0000
  S   S282      1.0  0.55545  0.67604  0.99300  1.0000
  Fe  Fe143     1.0  0.55409  0.71454  0.98573  1.0000
  C   C835      1.0  0.59049  0.52135  0.98693  1.0000
  Fe  Fe144     1.0  0.58362  0.68472  0.96581  1.0000
  S   S283      1.0  0.62280  0.68249  0.96927  1.0000
  H   H832      1.0  0.62993  0.70849  0.92847  1.0000
  H   H833      1.0  0.75951  0.53309  0.99506  1.0000
  C   C836      1.0  0.56549  0.81428  0.00185  1.0000
  H   H834      1.0  0.61263  0.73235  0.90461  1.0000
  H   H835      1.0  0.71565  0.57648  0.78663  1.0000
  C   C837      1.0  0.60838  0.67103  0.91218  1.0000
  C   C838      1.0  0.79970  0.61692  0.95603  1.0000
  C   C839      1.0  0.62719  0.65325  0.96689  1.0000
  C   C840      1.0  0.60596  0.62846  0.96292  1.0000
  C   C841      1.0  0.61031  0.60581  0.96080  1.0000
  C   C842      1.0  0.63586  0.60757  0.96262  1.0000
  C   C843      1.0  0.65709  0.63237  0.96665  1.0000
  C   C844      1.0  0.65274  0.65506  0.96876  1.0000
  H   H836      1.0  0.58618  0.62671  0.96143  1.0000
  H   H837      1.0  0.59373  0.58675  0.95767  1.0000
  H   H838      1.0  0.67685  0.63406  0.96810  1.0000
  H   H839      1.0  0.66934  0.67414  0.97178  1.0000
  S   S284      1.0  0.71668  0.52762  0.95913  1.0000
  C   C845      1.0  0.61661  0.69808  0.91535  1.0000
  N   N71       1.0  0.58145  0.67111  0.88242  1.0000
  C   C846      1.0  0.56296  0.78833  0.99943  1.0000
  H   H840      1.0  0.58228  0.70835  0.87506  1.0000
  C   C847      1.0  0.81387  0.58224  0.96212  1.0000
  S   S285      1.0  0.55194  0.66403  0.94115  1.0000
  H   H841      1.0  0.56969  0.82681  0.98802  1.0000
  C   C848      1.0  0.58970  0.69770  0.88527  1.0000
  H   H842      1.0  0.79132  0.52045  0.94047  1.0000
  H   H843      1.0  0.57528  0.80250  0.78074  1.0000
  S   S286      1.0  0.66374  0.53031  0.94037  1.0000
  S   S287      1.0  0.55105  0.72242  0.90593  1.0000
  C   C849      1.0  0.56221  0.65651  0.86557  1.0000
  H   H844      1.0  0.58364  0.63656  0.89365  1.0000
  H   H845      1.0  0.74358  0.54806  0.85693  1.0000
  H   H846      1.0  0.77984  0.61648  0.95571  1.0000
  H   H847      1.0  0.56526  0.78115  0.98387  1.0000
  C   C850      1.0  0.81194  0.55698  0.95822  1.0000
  H   H848      1.0  0.61281  0.52053  0.95962  1.0000
  H   H849      1.0  0.54575  0.73986  0.86417  1.0000
  C   C851      1.0  0.77754  0.54598  0.00341  1.0000
  H   H850      1.0  0.80787  0.62413  0.97230  1.0000
  H   H851      1.0  0.82430  0.55024  0.96707  1.0000
  H   H852      1.0  0.61536  0.66037  0.92282  1.0000
  H   H853      1.0  0.54323  0.64264  0.87286  1.0000
  C   C852      1.0  0.53230  0.70480  0.88334  1.0000
  S   S288      1.0  0.72502  0.55030  0.89912  1.0000
  H   H854      1.0  0.81246  0.63101  0.94394  1.0000
  C   C853      1.0  0.72413  0.53162  0.85826  1.0000
  C   C854      1.0  0.77972  0.57440  0.93685  1.0000
  H   H855      1.0  0.82796  0.59489  0.97400  1.0000
  C   C855      1.0  0.60714  0.71151  0.90189  1.0000
  C   C856      1.0  0.78315  0.57238  0.00746  1.0000
  C   C857      1.0  0.55367  0.79385  0.77779  1.0000
  H   H856      1.0  0.54352  0.77592  0.78770  1.0000
  H   H857      1.0  0.60039  0.54279  0.98838  1.0000
  C   C858      1.0  0.66076  0.52529  0.76784  1.0000
  H   H858      1.0  0.57361  0.93992  0.98537  1.0000
  C   C859      1.0  0.59374  0.91972  0.00031  1.0000
  C   C860      1.0  0.79543  0.53626  0.00995  1.0000
  C   C861      1.0  0.58905  0.94158  0.99650  1.0000
  H   H859      1.0  0.58189  0.90088  0.99233  1.0000
  H   H860      1.0  0.99745  0.57763  0.00312  1.0000
  H   H861      1.0  0.69758  0.55436  0.82096  1.0000
  C   C862      1.0  0.53405  0.71860  0.86438  1.0000
  H   H862      1.0  0.62786  0.72736  0.00234  1.0000
  H   H863      1.0  0.54668  0.80842  0.78333  1.0000
  N   N72       1.0  0.68366  0.54842  0.76789  1.0000
  C   C863      1.0  0.60380  0.96531  0.00753  1.0000
  H   H864      1.0  0.60005  0.98234  0.00501  1.0000
  C   C864      1.0  0.66329  0.52316  0.80618  1.0000
