data_image0
_chemical_formula_structural       CH3S2HCH2SHCHS2H2CH3CFeS2FeS2FeCFeS4HC2H2C6H2CHC6H4CNH3C2H5C2HC2HC2HC6H4CHC6H2CH6C2H2CHCHC3NCSCH2C3HCSHCNHC2HCSH2CHCHCH2FeH4CSCNHC3H2C3HNFeS2H2SH4SC3HC3H6Fe2CSFeHS2H2FeSC2SFeHSFeS2H2FeCS2FeS2FeS2FeHFeS3FeHSFeS2FeSCS2HSH2FeSCHFeSHSCH2SCH3C2HC3HSH2SCSH2FeHC8H4C6H5C2HSC2HFeS2C5H2C8H4C2H2C6H4C5H2CH2CNC5SH3CHC2H2C6FeH3CNCFeHNC5H6NC7HCH2NCH3C3NH4CHNC3HCH3FeHCNHC2HCHCH3C2H2CHCFeHCH2SNHC4H2CH2SC4HN2H2CSCHC2HCHCHCH5CH3S2FeS2H3SC3H3SHFeS2CSHCFeSC2HFeSHCSCFeSFeSCSH2CH2C4H2CH3C3SC2NHCNHC3HC3HCH2C7H4CH3C3NCHFeS2HC8H2NCHSFeHSHCSH5CSCHCH3CFeHC2FeC3H3SCHSHCNCHC2H2C2H2CFeCNC2HC2H5C2H2C3H3NC2NC2H3CH4SC3H2SFeS2H2FeSFeS3HCH3SCFe4S2FeS2FeHFeHSFeS2NFeS2Fe2SHCS2HC2H6S2C6H4C6H4SHNCSC4H3SC6H4S2H2C7HC4SH2SFeHCSFeHCHC2FeC6HNHCH2CSHCH7NH4FeH3CHCHCHCH2CNC6H2CSH2CHCH2NC2H3CFeH3CHC3HCFeC3H2FeSFeS2HCS2FeS2FeS2FeSFeS3HFeCS2HCHFeSFeS2FeSFeS3FeS2FeS2FeSFeS3HC3HC6H7NC6H4C4H5SH3C7H5C3H3C6H4C3H2C5NH2C2H5C2H3C2SCHC2HNSC3SH3C2HSH2NC6H8CH3CNCHCH2C3H2C7NCH2C2NC6H8NC4H2C2H5C5HC3H2C4SCFeSHC5H3CH2CHCH2FeC2SH2S2C2FeH3CHCNC5NCFeH4CH6C2H4C2H7S3FeSCHSHFeCFeSCSFeSHFeS2FeS2FeSFeS2HNFeSFeS2FeCHFe3S3CHC6HCH2CHC5H5C6H6CHCSC4HC4H5C6H2SH2SHC2HCH2C3H3CHC2HCNC4HCN2SHC2H3CHCH3SH4CHCHCHFeCH4CHC2HC2SH3C2SHCHSC2H2NHSCNCH3NC2NH2CH6C2HCHC2HCFeHFeH4CHCFeCHSFeHSHC2FeNSCSC2HFeS2FeSHFeSFeS3FeS2FeS2FeSFeS3C6H5C2HSH2CHC2H2C6H5C2SH2C4H5C6H5C5H4C6H4C2H3C2HCHNH2C2HNC3SCH2C2HNCH3SNCHCHCHNC6H8NC5H2C2HCNCHC2H3C2H2C2H3FeSHCSCNCH3CSH2C2HFeHC2H2C4H3C3HSCH4CH4SFeHC2FeH2SC3H2CFeS2FeS2FeSFeS4FeS2FeS2FeSHFeSFeHS2H3SH2C5H3FeC7H4C6H4C6H4C6H5CHSH4CSHSHCHNHSHSHCH7NC6H4CH2NC6H6SH2CHCHCH3SH2CHCHC2NCHCH2CHCNC2HSHC2H2SNC2FeH2SFeCHSHCHC3H2SCHCFeS2FeSFeSCFeS2NFeSCSFe2SNC2HSCFeS2H3SFeS2FeSFeSFeS3HFeS2FeSHFeSCSH3NC3HCSH3C2H3C7H8CHC5H3C6H4C6H4C2H2C5HCH2CHCNCH2SHFeSC3HCHNCH6CH2NC7HCHC2FeHNC5NH6CHSHSCSCH3SH2FeCHCH2SC3FeHC4HC2HC2HCHSH3NSC3H2C3HFeHC3SC2HCH2SHSC2H8SC2SFeC2HC2HS2HC2FeS2H2CSHCHCHCSNFeSFeS2FeSCFeHFeS3CSCFeS2Fe2S3CH2CSC2FeC3SC2HC2HCHCH4C2SNCHCH2C6H2CFeNHSH3C7H5NCSCSCH4C3H2C2HSC3HCH2SC10H4CH3CHNSHC3HSHCHC3H4SHCH5FeCH2C6H3NCFeH3NC6H4SH2CSCHCH3C2HCH2CH3C3H5NHCHSH3CH4C2HSHFeS2FeS2FeS2FeSFeS3Fe2HFeHFeS2FeSCSHFeSFeS2HFeS2FeS2FeSFeS3C3H2C2HC3H5CHCHC9SCH2C6H4C6H4C6H4C5H3C2H2C3HNCSC3HC3S2H3CHC3H3C2H2SCH4CH2CHSH4C2HC2NHSNHCHNHCH2SCS3H4FeNC2HC2SH2CH3CHNC5H3CHCH2NC2H2FeCH2C3SCH4CH2C2H2CSC2H3C3FeHSCHCHNHCHFeHCFeS2FeHCFeS2HSC4HCSFeSHCSFeHSFeS2FeSHSCFeSNFeS2FeSFeS3C6HCH2C2HNH2CHCHC2NC4H3CHCH2C6H4C6H5C6HSH4SC2H2NS2HCH3C3H2CHCSNH2C3H2FeCHC2H2CHSCH2C2H4CH2NH2CH3CH2C4NH3C3H5SH2CH2CHC2HCNHC3HCHC2HSH2C2HCHCHC2H3CHC2H2FeCHCH2CFeSFeS2FeSFeSFeS3HFeSHC3HFeSCFeSFeNFeHCSHC3HNFeS2FeS2FeSFeS3C3HC3HC2H4C2H4CNC6H2CHSCHCFeHC4HCH2CHNCHC6HC8H4CH4SC6H4C2H6NCHSCHSHCHCHCSCHC3FeCH4CHCNCNFeH2CH2CHSHC2H2CH3C2H3C2SH3C6H5CHCSNSCSC2SCH3CHCHSH2S2H3C2FeCHC3H2C2HCH2C2HSC2H3C2HCH3CHFeS2FeS2FeSFeS5FeS2FeSHFeSC2SH2FeCH2CSHCSFeS2FeHCHS2FeCHSHC2S2HC2NHCH4C2HFeHFeSHC4H2FeC6H3C6H4C6H4C6H4FeSFeCH3SHCH2NC6H8NCH2C3HCH3CHCHSHSHN2C6H9CFeC3SHCSCN2HC3H2FeCHCHCFeC3SCHFeHCNH3FeHCHS2C2SH2CHCH2FeHSCHSHCHFeCSFeS3C3HSHSHNH2FeS2FeSHFeSFeS3FeSFeS2FeSFeS3C6H4NCH2CHSCFeC6H3CHC3H2C6H4C7SH2C6H6C2SHSHCH2CHNH2C2H2C2FeNC2SC2HNC4SCH2CHC6HCH2CFeHSH2CHFeSC2HNCSHSH2CH2CHCH2SHCHNCFeCH2CFeCH2C2NH6SH4CHCFeH2CH2SFeC2HC2H2CH3CHC2Fe2H2NHSFeS2CHSH4CFeHFeSNSCHCHFeS2FeS2Fe2S3FeS2FeSCFeSFeS3HCHCH2C3NHC7H8SCSC7H5CHC2FeHCH2CHNCFeHC6H2CH2C4HCH2SHNC6H8SHCHCH2FeCH2C3FeH2CH2CHCFeC2HSC2HCHC2H3C2HCH2CNCH2CHCHCH2CHSCSC2H2C2HCH2C2HSNH4CHCSCHSHFeS2FeS2FeSFeS3CFeC3SCH3SHFeS2FeS2FeSFeS2CH2CH4FeHCH3C4HCSCH2C6HCH2C6H5CHNHCHCFeHC7H4C6H4C6H4C6H4C2HC2NH2NCSCH3NH2NH2CHC4HSCHFeCH2SCH4NC2HCH3NC6HCH4CHNHC2FeHCH3CHC4H4CH2C2H2CSC3H6CSCH3CH4SHSHSC2NSFeS2FeSCFeSFeS3HS2Fe2SCFeS2FeSHFeSH2SC2SHC3H2CSCH2C5HSNCH5C2H2CH2SHC6H4C6H4C6H2CHCHC2HCHCHC2HNCHCH2CHSH2CHC2HCHCSH2CHCHNHC2HC2NHC2HCHCHCH2CH2CH2CFeH2CSH2CHNCH2CH2CHCNCH3C2H2CHNCHCH4CSCHCH3C2SFeS2FeS2FeSFeS3CFeSHFeHCFeS2FeCHCS2Fe2S2FeS2FeSFeS3C2H3C2HC4H3CHC2H2CSFeHSC4H4C17H4C6H4C3HCH2C2HSH4C2HC2HC2HCH2CH2NC6H8C2NC2H2SHCH2C2HNC2HC3H4C2H2C2NC4HSC2H2SH2CH2SCNH5CNFeC2HC2HCHC2H4CNC2HSH3NCH3CHFeHCH3CSFeSCFeS2FeCSFeSCSC2S2CSCFe2S2H2FeSCFeSHFeSFeS3FeS2FeS2FeSFeCS2CH2CHC6H5CHCHC2H5CH3C7H7CHC4H5CH4SC9H4C4NHC3H2Fe2H4SHNHC2H2SC2FeHC2SCH2S2CH2CH3NHSNC6H8NC3H4NC6H8CHCFeHC2H3CH3C2HCH2C2NHCHNSC2H2C3FeCH2S2C3SHC4NHC4HCH2CH2Fe2NC3SHC2SHCSC2SCSNC2FeCSFeS2HFeS2FeS2FeHFeS3HC2HCH3FeSHSH2CFeHC6H6CNH2C7HSH2C6H2CHCHCHC5HC6H4CS2H5SH2C2H2NSHCH3CHCHCHCH2CH2C2H3NHSCHFeHCHC5FeNC6H6C3H2SCSCFeCHCNHCS2NH2CSC3HFeH5C2H4C2H3SFeHCHNHNCHSCHS2FeSFeCSFeCSCFeSCSFeSHFeSFe2S3H2SFeS2FeCFeHFeS3CNSHSH2C6H4C6H4CHCH2C6H4C6H4C6H4C5H2SHC2SH3CNC6H5SHFeHSC2H2CHCSHFeHC3HS2C2HS2HNCSFeSC2S2HC3HCHCH3NC2H2CNHCSCHCHCH3C3SH2NC3HFeHCH2FeH2SCNC2H5CH5C2H3SH4FeS2HS2CFeS2FeS2FeSFeS3HFeS2FeSCFeSFeS3FeS2FeS2FeSFeS3CFe2S2FeSHSC3FeHC2HNHCHCHSH2CNC8H6C4HCHC7H5CSCSC2HCHC3H2C6H6C5H3CHC6H8C3H2CHC3HCHCHC2H3CHC2HFeH3CHCH5CNC2SNC6H11C4SHNC6H5CH4FeHFeHC2HC3HCHC2NHC2NC3HCHCH2CHCH4NC2S2HSC4HN3HSCHCHCH2C3HSH2C7H2FeH5CHCHCH4C2FeCSHS2C3H2NC3SHSFeS2HSHFeSFeS2C2SHC4H7FeSC6H4CH3C3H3C5HCH2CHFeSHC2H2SHNH6CHSH2NH3CH2SCSC4HCH6SH2CH2FeNCH2CHCFeCH5C2SC2H2CSCSCH
_chemical_formula_sum              "C2304 H2304 S768 Fe384 N192"
_cell_length_a       68.4351
_cell_length_b       68.0951
_cell_length_c       68.2502
_cell_angle_alpha    78.8284
_cell_angle_beta     78.8844
_cell_angle_gamma    78.7438

_space_group_name_H-M_alt    "P 1"
_space_group_IT_number       1

loop_
  _space_group_symop_operation_xyz
  'x, y, z'

loop_
  _atom_site_type_symbol
  _atom_site_label
  _atom_site_symmetry_multiplicity
  _atom_site_fract_x
  _atom_site_fract_y
  _atom_site_fract_z
  _atom_site_occupancy
  C   C1        1.0  0.00993  0.12235  0.21027  1.0000
  H   H1        1.0  0.12349  0.99487  0.31443  1.0000
  H   H2        1.0  0.17708  0.15402  0.01489  1.0000
  H   H3        1.0  0.03083  0.02089  0.22830  1.0000
  S   S1        1.0  0.99209  0.42479  0.12651  1.0000
  S   S2        1.0  0.06537  0.26197  0.01124  1.0000
  H   H4        1.0  0.02863  0.29767  0.08881  1.0000
  C   C2        1.0  0.04758  0.01240  0.25319  1.0000
  H   H5        1.0  0.12454  0.47790  0.00001  1.0000
  H   H6        1.0  0.14373  0.99906  0.23155  1.0000
  S   S3        1.0  0.01137  0.21684  0.08551  1.0000
  H   H7        1.0  0.10052  0.42266  0.15636  1.0000
  C   C3        1.0  0.02580  0.10433  0.26904  1.0000
  H   H8        1.0  0.00598  0.15293  0.21621  1.0000
  S   S4        1.0  0.18570  0.48528  0.02320  1.0000
  S   S5        1.0  0.06558  0.99414  0.24154  1.0000
  H   H9        1.0  0.17538  0.43065  0.99083  1.0000
  H   H10       1.0  0.99268  0.43716  0.22479  1.0000
  C   C4        1.0  0.16607  0.17001  0.98764  1.0000
  H   H11       1.0  0.02247  0.36026  0.30765  1.0000
  H   H12       1.0  0.08492  0.26537  0.04890  1.0000
  H   H13       1.0  0.20543  0.13186  0.99712  1.0000
  C   C5        1.0  0.07481  0.47223  0.07272  1.0000
  Fe  Fe1       1.0  0.06478  0.40441  0.13860  1.0000
  S   S6        1.0  0.03947  0.42725  0.15069  1.0000
  S   S7        1.0  0.09414  0.41291  0.11998  1.0000
  Fe  Fe2       1.0  0.04161  0.36937  0.15723  1.0000
  S   S8        1.0  0.01469  0.38975  0.17105  1.0000
  S   S9        1.0  0.04205  0.33550  0.16143  1.0000
  Fe  Fe3       1.0  0.01926  0.41001  0.14106  1.0000
  C   C6        1.0  0.01037  0.13694  0.22191  1.0000
  Fe  Fe4       1.0  0.03735  0.40504  0.17956  1.0000
  S   S10       1.0  0.03256  0.42070  0.20688  1.0000
  S   S11       1.0  0.04467  0.38871  0.12653  1.0000
  S   S12       1.0  0.06420  0.38304  0.16828  1.0000
  S   S13       1.0  0.06161  0.37251  0.28814  1.0000
  H   H14       1.0  0.06330  0.44414  0.08400  1.0000
  C   C7        1.0  0.01475  0.10181  0.21801  1.0000
  C   C8        1.0  0.23318  0.02965  0.06689  1.0000
  H   H15       1.0  0.13996  0.44320  0.04170  1.0000
  H   H16       1.0  0.06093  0.00744  0.28021  1.0000
  C   C9        1.0  0.09816  0.43837  0.11539  1.0000
  C   C10       1.0  0.11635  0.44345  0.10385  1.0000
  C   C11       1.0  0.11952  0.46378  0.09925  1.0000
  C   C12       1.0  0.10453  0.47909  0.10632  1.0000
  C   C13       1.0  0.08661  0.47391  0.11828  1.0000
  C   C14       1.0  0.08340  0.45367  0.12272  1.0000
  H   H17       1.0  0.12791  0.43168  0.09822  1.0000
  H   H18       1.0  0.13343  0.46763  0.09009  1.0000
  C   C15       1.0  0.11773  0.00019  0.21782  1.0000
  H   H19       1.0  0.06936  0.45006  0.13153  1.0000
  C   C16       1.0  0.05285  0.38586  0.26586  1.0000
  C   C17       1.0  0.05321  0.37546  0.24989  1.0000
  C   C18       1.0  0.04669  0.38591  0.23180  1.0000
  C   C19       1.0  0.03961  0.40678  0.22971  1.0000
  C   C20       1.0  0.03896  0.41711  0.24578  1.0000
  C   C21       1.0  0.04566  0.40671  0.26378  1.0000
  H   H20       1.0  0.05870  0.35931  0.25146  1.0000
  H   H21       1.0  0.04724  0.37783  0.21946  1.0000
  H   H22       1.0  0.03355  0.43328  0.24424  1.0000
  H   H23       1.0  0.04529  0.41483  0.27603  1.0000
  C   C22       1.0  0.01919  0.04238  0.27110  1.0000
  N   N1        1.0  0.10868  0.44836  0.05471  1.0000
  H   H24       1.0  0.22834  0.03917  0.07849  1.0000
  H   H25       1.0  0.01623  0.45532  0.12543  1.0000
  H   H26       1.0  0.13002  0.42098  0.05493  1.0000
  C   C23       1.0  0.03302  0.28366  0.09950  1.0000
  C   C24       1.0  0.12635  0.43572  0.04497  1.0000
  H   H27       1.0  0.07464  0.42670  0.21762  1.0000
  H   H28       1.0  0.00700  0.48945  0.13538  1.0000
  H   H29       1.0  0.12330  0.43283  0.03044  1.0000
  H   H30       1.0  0.11548  0.44669  0.29947  1.0000
  H   H31       1.0  0.01158  0.10397  0.28012  1.0000
  C   C25       1.0  0.01764  0.03856  0.25209  1.0000
  C   C26       1.0  0.03195  0.02371  0.24307  1.0000
  H   H32       1.0  0.01878  0.27785  0.10661  1.0000
  C   C27       1.0  0.04892  0.01605  0.27231  1.0000
  C   C28       1.0  0.03487  0.03112  0.28114  1.0000
  H   H33       1.0  0.11929  0.99763  0.16832  1.0000
  C   C29       1.0  0.02033  0.09613  0.23724  1.0000
  C   C30       1.0  0.19522  0.14281  0.98855  1.0000
  H   H34       1.0  0.03616  0.03404  0.29583  1.0000
  C   C31       1.0  0.02468  0.22957  0.06361  1.0000
  C   C32       1.0  0.02131  0.25076  0.05884  1.0000
  C   C33       1.0  0.03341  0.26055  0.04224  1.0000
  C   C34       1.0  0.04894  0.24922  0.03038  1.0000
  C   C35       1.0  0.05193  0.22804  0.03482  1.0000
  C   C36       1.0  0.03983  0.21826  0.05140  1.0000
  H   H35       1.0  0.00971  0.25960  0.06819  1.0000
  H   H36       1.0  0.03103  0.27694  0.03885  1.0000
  H   H37       1.0  0.06395  0.21918  0.02590  1.0000
  H   H38       1.0  0.04253  0.20187  0.05507  1.0000
  C   C37       1.0  0.06146  0.23366  0.08685  1.0000
  H   H39       1.0  0.00525  0.12695  0.19550  1.0000
  C   C38       1.0  0.01270  0.34148  0.13728  1.0000
  C   C39       1.0  0.02446  0.32757  0.15004  1.0000
  C   C40       1.0  0.02232  0.30701  0.15359  1.0000
  C   C41       1.0  0.07558  0.45132  0.07477  1.0000
  C   C42       1.0  0.09104  0.48113  0.06141  1.0000
  C   C43       1.0  0.23457  0.00851  0.07218  1.0000
  H   H40       1.0  0.03131  0.29621  0.16354  1.0000
  H   H41       1.0  0.21182  0.17885  0.99127  1.0000
  C   C44       1.0  0.23812  0.03849  0.04664  1.0000
  H   H42       1.0  0.01421  0.35734  0.13444  1.0000
  H   H43       1.0  0.00681  0.28458  0.14750  1.0000
  H   H44       1.0  0.00149  0.45313  0.17823  1.0000
  H   H45       1.0  0.12054  0.47592  0.04383  1.0000
  H   H46       1.0  0.11631  0.38725  0.16632  1.0000
  H   H47       1.0  0.06068  0.29073  0.06674  1.0000
  C   C45       1.0  0.14868  0.45317  0.99434  1.0000
  C   C46       1.0  0.17157  0.47323  0.01165  1.0000
  H   H48       1.0  0.03973  0.28775  0.11145  1.0000
  H   H49       1.0  0.17535  0.22680  0.99426  1.0000
  C   C47       1.0  0.99908  0.33485  0.12801  1.0000
  H   H50       1.0  0.15571  0.99605  0.16846  1.0000
  C   C48       1.0  0.13842  0.99905  0.21755  1.0000
  H   H51       1.0  0.09052  0.39141  0.22842  1.0000
  C   C49       1.0  0.01589  0.13072  0.24115  1.0000
  C   C50       1.0  0.18029  0.45500  0.00451  1.0000
  C   C51       1.0  0.07642  0.44734  0.18006  1.0000
  N   N2        1.0  0.08698  0.42686  0.18642  1.0000
  C   C52       1.0  0.10478  0.38700  0.19814  1.0000
  S   S14       1.0  0.03855  0.46371  0.31907  1.0000
  C   C53       1.0  0.10790  0.46891  0.05235  1.0000
  H   H52       1.0  0.21421  0.48889  0.08648  1.0000
  H   H53       1.0  0.01373  0.09038  0.20934  1.0000
  C   C54       1.0  0.08420  0.41826  0.20639  1.0000
  C   C55       1.0  0.11409  0.45705  0.31011  1.0000
  C   C56       1.0  0.07502  0.23983  0.06974  1.0000
  H   H54       1.0  0.07459  0.45695  0.19193  1.0000
  C   C57       1.0  0.17336  0.99694  0.19987  1.0000
  S   S15       1.0  0.14794  0.18742  0.00051  1.0000
  H   H55       1.0  0.08521  0.22863  0.06166  1.0000
  C   C58       1.0  0.10760  0.39591  0.17780  1.0000
  N   N3        1.0  0.04739  0.26852  0.08912  1.0000
  H   H56       1.0  0.09647  0.32893  0.99415  1.0000
  C   C59       1.0  0.00848  0.30040  0.14450  1.0000
  C   C60       1.0  0.13098  0.46447  0.31243  1.0000
  H   H57       1.0  0.03456  0.11489  0.27267  1.0000
  C   C61       1.0  0.16884  0.44497  0.99582  1.0000
  S   S16       1.0  0.09238  0.21003  0.98909  1.0000
  H   H58       1.0  0.02374  0.08013  0.24329  1.0000
  H   H59       1.0  0.14397  0.30598  0.99296  1.0000
  C   C62       1.0  0.24084  0.99622  0.05719  1.0000
  H   H60       1.0  0.19575  0.44847  0.00608  1.0000
  C   C63       1.0  0.14009  0.47146  0.00129  1.0000
  H   H61       1.0  0.00559  0.04714  0.24425  1.0000
  C   C64       1.0  0.07484  0.26048  0.06258  1.0000
  H   H62       1.0  0.17681  0.01260  0.19710  1.0000
  H   H63       1.0  0.08489  0.45503  0.16602  1.0000
  Fe  Fe5       1.0  0.06294  0.39109  0.31176  1.0000
  H   H64       1.0  0.06098  0.21764  0.09218  1.0000
  H   H65       1.0  0.03705  0.24330  0.10953  1.0000
  H   H66       1.0  0.11137  0.37131  0.20268  1.0000
  H   H67       1.0  0.06120  0.44641  0.17719  1.0000
  C   C65       1.0  0.06091  0.27472  0.07257  1.0000
  S   S17       1.0  0.07800  0.41847  0.30594  1.0000
  C   C66       1.0  0.14508  0.99740  0.18238  1.0000
  N   N4        1.0  0.02103  0.11053  0.24847  1.0000
  H   H68       1.0  0.03491  0.08884  0.27099  1.0000
  C   C67       1.0  0.09311  0.39825  0.21258  1.0000
  C   C68       1.0  0.09850  0.41596  0.17220  1.0000
  C   C69       1.0  0.09273  0.43954  0.06559  1.0000
  H   H69       1.0  0.09341  0.42322  0.06769  1.0000
  H   H70       1.0  0.01568  0.14212  0.25034  1.0000
  C   C70       1.0  0.04775  0.24829  0.09648  1.0000
  C   C71       1.0  0.17913  0.15536  0.99859  1.0000
  C   C72       1.0  0.00056  0.46147  0.12981  1.0000
  H   H71       1.0  0.23081  0.00177  0.08782  1.0000
  N   N5        1.0  0.15180  0.99754  0.19998  1.0000
  Fe  Fe6       1.0  0.08830  0.24318  0.99084  1.0000
  S   S18       1.0  0.99578  0.24517  0.13205  1.0000
  S   S19       1.0  0.23722  0.06480  0.04046  1.0000
  H   H72       1.0  0.10708  0.00144  0.23169  1.0000
  H   H73       1.0  0.14558  0.45997  0.30356  1.0000
  S   S20       1.0  0.12141  0.24300  0.98889  1.0000
  H   H74       1.0  0.06192  0.48146  0.08034  1.0000
  H   H75       1.0  0.21424  0.20202  0.99906  1.0000
  H   H76       1.0  0.07495  0.48570  0.12375  1.0000
  H   H77       1.0  0.19122  0.19121  0.00730  1.0000
  S   S21       1.0  0.00260  0.06184  0.28236  1.0000
  C   C73       1.0  0.99691  0.31433  0.13157  1.0000
  C   C74       1.0  0.12450  0.99821  0.18220  1.0000
  C   C75       1.0  0.11077  0.99960  0.20008  1.0000
  H   H78       1.0  0.09474  0.00017  0.20033  1.0000
  C   C76       1.0  0.20366  0.19400  0.99446  1.0000
  C   C77       1.0  0.99532  0.48088  0.13512  1.0000
  C   C78       1.0  0.15157  0.48154  0.00975  1.0000
  H   H79       1.0  0.99350  0.42972  0.19156  1.0000
  H   H80       1.0  0.02937  0.22888  0.98675  1.0000
  H   H81       1.0  0.02034  0.10830  0.43497  1.0000
  H   H82       1.0  0.10434  0.35496  0.51066  1.0000
  H   H83       1.0  0.00427  0.37843  0.64552  1.0000
  H   H84       1.0  0.23274  0.08524  0.43746  1.0000
  Fe  Fe7       1.0  0.21698  0.36852  0.51615  1.0000
  Fe  Fe8       1.0  0.20330  0.33128  0.54301  1.0000
  C   C79       1.0  0.01631  0.37388  0.63357  1.0000
  S   S22       1.0  0.17900  0.31163  0.54893  1.0000
  Fe  Fe9       1.0  0.22512  0.35794  0.55964  1.0000
  H   H85       1.0  0.01193  0.20230  0.59562  1.0000
  S   S23       1.0  0.19682  0.36408  0.54620  1.0000
  S   S24       1.0  0.22208  0.33586  0.51213  1.0000
  H   H86       1.0  0.13900  0.01918  0.32701  1.0000
  H   H87       1.0  0.01189  0.23895  0.58988  1.0000
  Fe  Fe10      1.0  0.18591  0.47061  0.37467  1.0000
  S   S25       1.0  0.15372  0.46551  0.37656  1.0000
  C   C80       1.0  0.99390  0.28364  0.50931  1.0000
  C   C81       1.0  0.04549  0.04446  0.48364  1.0000
  S   S26       1.0  0.20218  0.39396  0.49458  1.0000
  Fe  Fe11      1.0  0.15127  0.03128  0.43583  1.0000
  H   H88       1.0  0.00084  0.09078  0.42088  1.0000
  S   S27       1.0  0.17788  0.02990  0.45135  1.0000
  Fe  Fe12      1.0  0.10812  0.05269  0.43379  1.0000
  S   S28       1.0  0.10055  0.02878  0.41934  1.0000
  S   S29       1.0  0.08327  0.07832  0.44165  1.0000
  H   H89       1.0  0.00512  0.33218  0.47193  1.0000
  H   H90       1.0  0.04122  0.03949  0.47111  1.0000
  Fe  Fe13      1.0  0.13103  0.02975  0.40026  1.0000
  C   C82       1.0  0.20328  0.44542  0.49334  1.0000
  S   S30       1.0  0.12229  0.03054  0.45776  1.0000
  S   S31       1.0  0.13746  0.05573  0.41289  1.0000
  Fe  Fe14      1.0  0.06475  0.33269  0.55740  1.0000
  S   S32       1.0  0.05687  0.31127  0.58588  1.0000
  S   S33       1.0  0.08738  0.35359  0.55378  1.0000
  Fe  Fe15      1.0  0.03199  0.32377  0.53764  1.0000
  S   S34       1.0  0.02083  0.30196  0.56478  1.0000
  S   S35       1.0  0.02062  0.33225  0.50777  1.0000
  Fe  Fe16      1.0  0.02472  0.32471  0.58288  1.0000
  H   H91       1.0  0.07746  0.19289  0.61935  1.0000
  Fe  Fe17      1.0  0.05381  0.29046  0.56527  1.0000
  S   S36       1.0  0.06724  0.25733  0.57034  1.0000
  S   S37       1.0  0.03281  0.34774  0.55574  1.0000
  S   S38       1.0  0.06480  0.31071  0.53687  1.0000
  Fe  Fe18      1.0  0.03952  0.13344  0.58176  1.0000
  H   H92       1.0  0.03150  0.40697  0.57853  1.0000
  S   S39       1.0  0.04829  0.12414  0.61293  1.0000
  Fe  Fe19      1.0  0.05788  0.12694  0.53863  1.0000
  S   S40       1.0  0.03161  0.14633  0.52538  1.0000
  S   S41       1.0  0.08607  0.11032  0.52196  1.0000
  Fe  Fe20      1.0  0.03242  0.16750  0.54642  1.0000
  S   S42       1.0  0.02450  0.20092  0.53516  1.0000
  C   C83       1.0  0.23909  0.42554  0.56521  1.0000
  S   S43       1.0  0.06058  0.14970  0.55740  1.0000
  S   S44       1.0  0.03889  0.10930  0.56377  1.0000
  H   H93       1.0  0.19194  0.04603  0.40919  1.0000
  S   S45       1.0  0.19486  0.47211  0.40425  1.0000
  H   H94       1.0  0.01497  0.31485  0.37364  1.0000
  H   H95       1.0  0.18373  0.32207  0.50191  1.0000
  Fe  Fe21      1.0  0.09160  0.40491  0.33395  1.0000
  S   S46       1.0  0.07890  0.37609  0.33796  1.0000
  C   C84       1.0  0.01727  0.38500  0.61399  1.0000
  H   H96       1.0  0.19922  0.45423  0.50603  1.0000
  Fe  Fe22      1.0  0.05205  0.39166  0.35700  1.0000
  S   S47       1.0  0.03952  0.37392  0.38695  1.0000
  H   H97       1.0  0.00820  0.14808  0.62158  1.0000
  S   S48       1.0  0.06609  0.41943  0.35520  1.0000
  C   C85       1.0  0.23963  0.42012  0.60122  1.0000
  H   H98       1.0  0.11682  0.47357  0.63314  1.0000
  H   H99       1.0  0.12713  0.37845  0.49174  1.0000
  S   S49       1.0  0.23739  0.48558  0.37851  1.0000
  C   C86       1.0  0.00889  0.45842  0.35207  1.0000
  H   H100      1.0  0.04622  0.38558  0.56783  1.0000
  H   H101      1.0  0.17226  0.09435  0.41192  1.0000
  H   H102      1.0  0.13883  0.47267  0.59974  1.0000
  C   C87       1.0  0.05077  0.32761  0.36371  1.0000
  C   C88       1.0  0.06581  0.04293  0.48502  1.0000
  H   H103      1.0  0.02963  0.24902  0.59947  1.0000
  C   C89       1.0  0.00418  0.37098  0.37493  1.0000
  C   C90       1.0  0.01747  0.36358  0.38884  1.0000
  C   C91       1.0  0.01277  0.34816  0.40503  1.0000
  H   H104      1.0  0.10966  0.49019  0.35110  1.0000
  S   S50       1.0  0.00405  0.33130  0.61161  1.0000
  H   H105      1.0  0.00758  0.38293  0.36250  1.0000
  H   H106      1.0  0.02297  0.34245  0.41591  1.0000
  S   S51       1.0  0.12493  0.40523  0.33221  1.0000
  C   C92       1.0  0.03068  0.05251  0.49839  1.0000
  S   S52       1.0  0.21571  0.45254  0.36334  1.0000
  H   H107      1.0  0.06009  0.22012  0.50401  1.0000
  H   H108      1.0  0.19198  0.07336  0.47978  1.0000
  Fe  Fe23      1.0  0.11748  0.00678  0.44160  1.0000
  H   H109      1.0  0.20121  0.44772  0.64260  1.0000
  C   C93       1.0  0.11197  0.00009  0.37142  1.0000
  C   C94       1.0  0.17638  0.09013  0.42692  1.0000
  C   C95       1.0  0.05546  0.24181  0.56027  1.0000
  C   C96       1.0  0.03824  0.24979  0.55134  1.0000
  C   C97       1.0  0.02851  0.23702  0.54412  1.0000
  C   C98       1.0  0.03613  0.21628  0.54555  1.0000
  C   C99       1.0  0.05349  0.20830  0.55424  1.0000
  C   C100      1.0  0.06316  0.22107  0.56157  1.0000
  H   H110      1.0  0.03245  0.26579  0.54984  1.0000
  H   H111      1.0  0.01519  0.24329  0.53724  1.0000
  H   H112      1.0  0.05965  0.19237  0.55509  1.0000
  H   H113      1.0  0.07662  0.21486  0.56827  1.0000
  C   C101      1.0  0.08439  0.08785  0.46351  1.0000
  C   C102      1.0  0.10175  0.08269  0.47256  1.0000
  C   C103      1.0  0.10216  0.08997  0.49033  1.0000
  C   C104      1.0  0.08519  0.10230  0.49921  1.0000
  C   C105      1.0  0.06780  0.10743  0.49019  1.0000
  C   C106      1.0  0.06748  0.10035  0.47226  1.0000
  H   H114      1.0  0.11487  0.07314  0.46587  1.0000
  H   H115      1.0  0.11562  0.08594  0.49732  1.0000
  H   H116      1.0  0.05466  0.11693  0.49694  1.0000
  H   H117      1.0  0.05406  0.10449  0.46526  1.0000
  H   H118      1.0  0.11328  0.32838  0.51497  1.0000
  C   C107      1.0  0.23410  0.40615  0.56695  1.0000
  C   C108      1.0  0.19644  0.47533  0.46779  1.0000
  H   H119      1.0  0.11079  0.34114  0.48952  1.0000
  S   S53       1.0  0.01149  0.15324  0.57239  1.0000
  C   C109      1.0  0.21453  0.40215  0.47015  1.0000
  C   C110      1.0  0.12024  0.99628  0.33030  1.0000
  H   H120      1.0  0.21540  0.43251  0.49715  1.0000
  Fe  Fe24      1.0  0.22538  0.45653  0.39179  1.0000
  S   S54       1.0  0.14750  0.00563  0.42141  1.0000
  S   S55       1.0  0.13666  0.02879  0.36670  1.0000
  C   C111      1.0  0.13276  0.46722  0.63230  1.0000
  C   C112      1.0  0.22261  0.05034  0.40843  1.0000
  C   C113      1.0  0.00752  0.31512  0.50162  1.0000
  C   C114      1.0  0.03116  0.12671  0.63551  1.0000
  C   C115      1.0  0.01265  0.13979  0.63563  1.0000
  H   H121      1.0  0.01481  0.05389  0.49737  1.0000
  H   H122      1.0  0.08454  0.23345  0.51820  1.0000
  C   C116      1.0  0.00355  0.29752  0.51507  1.0000
  C   C117      1.0  0.12487  0.01201  0.35801  1.0000
  C   C118      1.0  0.14686  0.44667  0.36596  1.0000
  C   C119      1.0  0.12677  0.44326  0.37074  1.0000
  C   C120      1.0  0.11999  0.43020  0.36086  1.0000
  C   C121      1.0  0.13332  0.42029  0.34624  1.0000
  C   C122      1.0  0.15360  0.42311  0.34198  1.0000
  C   C123      1.0  0.16037  0.43633  0.35176  1.0000
  H   H123      1.0  0.15734  0.07173  0.47527  1.0000
  H   H124      1.0  0.10443  0.42794  0.36444  1.0000
  H   H125      1.0  0.00132  0.36804  0.45794  1.0000
  H   H126      1.0  0.17587  0.43887  0.34797  1.0000
  C   C124      1.0  0.20309  0.41515  0.45646  1.0000
  C   C125      1.0  0.21248  0.42357  0.43743  1.0000
  H   H127      1.0  0.18689  0.41888  0.46061  1.0000
  H   H128      1.0  0.20346  0.43344  0.42700  1.0000
  C   C126      1.0  0.15350  0.32347  0.55163  1.0000
  C   C127      1.0  0.14821  0.34461  0.54855  1.0000
  C   C128      1.0  0.12785  0.35369  0.54975  1.0000
  C   C129      1.0  0.11262  0.34171  0.55390  1.0000
  C   C130      1.0  0.11781  0.32056  0.55697  1.0000
  C   C131      1.0  0.13821  0.31148  0.55584  1.0000
  H   H129      1.0  0.15977  0.35401  0.54491  1.0000
  H   H130      1.0  0.12394  0.37006  0.54720  1.0000
  H   H131      1.0  0.10614  0.31118  0.56013  1.0000
  H   H132      1.0  0.14219  0.29511  0.55816  1.0000
  C   C132      1.0  0.21715  0.03351  0.44938  1.0000
  C   C133      1.0  0.22167  0.08618  0.45166  1.0000
  C   C134      1.0  0.02624  0.20033  0.60096  1.0000
  C   C135      1.0  0.18764  0.07834  0.46492  1.0000
  C   C136      1.0  0.06305  0.19484  0.61423  1.0000
  H   H133      1.0  0.03616  0.08622  0.44609  1.0000
  H   H134      1.0  0.00807  0.29447  0.52979  1.0000
  C   C137      1.0  0.02034  0.23669  0.60273  1.0000
  H   H135      1.0  0.14864  0.31553  0.50891  1.0000
  H   H136      1.0  0.07743  0.03679  0.47354  1.0000
  C   C138      1.0  0.00554  0.10810  0.51395  1.0000
  N   N6        1.0  0.03307  0.08594  0.41591  1.0000
  C   C139      1.0  0.05046  0.07682  0.40536  1.0000
  C   C140      1.0  0.01465  0.08386  0.41229  1.0000
  C   C141      1.0  0.04970  0.06566  0.39041  1.0000
  C   C142      1.0  0.01333  0.07289  0.39739  1.0000
  C   C143      1.0  0.03098  0.06381  0.38635  1.0000
  S   S56       1.0  0.99256  0.08596  0.46804  1.0000
  H   H137      1.0  0.06507  0.07818  0.40842  1.0000
  H   H138      1.0  0.99868  0.07159  0.39437  1.0000
  H   H139      1.0  0.06356  0.05852  0.38205  1.0000
  C   C144      1.0  0.23544  0.39725  0.46460  1.0000
  H   H140      1.0  0.03014  0.05534  0.37468  1.0000
  C   C145      1.0  0.16183  0.45294  0.64863  1.0000
  C   C146      1.0  0.03646  0.05926  0.51420  1.0000
  H   H141      1.0  0.02486  0.06579  0.52546  1.0000
  H   H142      1.0  0.18156  0.47890  0.47650  1.0000
  C   C147      1.0  0.00081  0.32946  0.34799  1.0000
  C   C148      1.0  0.20193  0.48809  0.44969  1.0000
  C   C149      1.0  0.03627  0.34517  0.33366  1.0000
  C   C150      1.0  0.06193  0.06570  0.53174  1.0000
  C   C151      1.0  0.00723  0.10052  0.49590  1.0000
  C   C152      1.0  0.23469  0.40072  0.60295  1.0000
  Fe  Fe25      1.0  0.01280  0.13060  0.55213  1.0000
  H   H143      1.0  0.21505  0.02709  0.46530  1.0000
  H   H144      1.0  0.00891  0.39442  0.42835  1.0000
  H   H145      1.0  0.19887  0.42913  0.62782  1.0000
  C   C153      1.0  0.05628  0.17818  0.61026  1.0000
  N   N7        1.0  0.03197  0.37893  0.59870  1.0000
  C   C154      1.0  0.12922  0.47687  0.32694  1.0000
  Fe  Fe26      1.0  0.22220  0.48465  0.64459  1.0000
  H   H146      1.0  0.05661  0.22702  0.61430  1.0000
  N   N8        1.0  0.04486  0.24947  0.49293  1.0000
  C   C155      1.0  0.05956  0.23641  0.50211  1.0000
  C   C156      1.0  0.04370  0.26998  0.49131  1.0000
  C   C157      1.0  0.07339  0.24385  0.51025  1.0000
  C   C158      1.0  0.05702  0.27795  0.49961  1.0000
  C   C159      1.0  0.02918  0.24144  0.48645  1.0000
  H   H147      1.0  0.01880  0.11121  0.51835  1.0000
  H   H148      1.0  0.03212  0.28033  0.48398  1.0000
  H   H149      1.0  0.00948  0.23836  0.61689  1.0000
  H   H150      1.0  0.02312  0.25183  0.47351  1.0000
  H   H151      1.0  0.03509  0.22639  0.48173  1.0000
  H   H152      1.0  0.01647  0.23974  0.49920  1.0000
  N   N9        1.0  0.13583  0.34658  0.50055  1.0000
  C   C160      1.0  0.15148  0.33088  0.50315  1.0000
  C   C161      1.0  0.13952  0.36601  0.49380  1.0000
  C   C162      1.0  0.17141  0.33447  0.49916  1.0000
  C   C163      1.0  0.15929  0.37011  0.48960  1.0000
  C   C164      1.0  0.17529  0.35420  0.49221  1.0000
  C   C165      1.0  0.11506  0.34254  0.50400  1.0000
  C   C166      1.0  0.23829  0.04829  0.41962  1.0000
  H   H153      1.0  0.07847  0.06550  0.52996  1.0000
  C   C167      1.0  0.07188  0.26475  0.50925  1.0000
  H   H154      1.0  0.05540  0.29425  0.49900  1.0000
  H   H155      1.0  0.03260  0.16807  0.60027  1.0000
  N   N10       1.0  0.20955  0.45848  0.47430  1.0000
  C   C168      1.0  0.20412  0.04412  0.41777  1.0000
  H   H156      1.0  0.00313  0.40929  0.39387  1.0000
  H   H157      1.0  0.17546  0.45937  0.59810  1.0000
  H   H158      1.0  0.08189  0.27063  0.51640  1.0000
  C   C169      1.0  0.00218  0.48809  0.32677  1.0000
  C   C170      1.0  0.05113  0.21407  0.61147  1.0000
  C   C171      1.0  0.19589  0.09087  0.42988  1.0000
  N   N11       1.0  0.03302  0.21661  0.60482  1.0000
  H   H159      1.0  0.11630  0.45114  0.38181  1.0000
  H   H160      1.0  0.99369  0.09983  0.64919  1.0000
  H   H161      1.0  0.01905  0.38858  0.57195  1.0000
  H   H162      1.0  0.06525  0.16310  0.61238  1.0000
  C   C172      1.0  0.20129  0.03597  0.43837  1.0000
  H   H163      1.0  0.22720  0.07336  0.46310  1.0000
  N   N12       1.0  0.20134  0.08483  0.44868  1.0000
  C   C173      1.0  0.03782  0.18095  0.60350  1.0000
  C   C174      1.0  0.14107  0.46007  0.64997  1.0000
  C   C175      1.0  0.04585  0.36177  0.60230  1.0000
  H   H164      1.0  0.05461  0.08176  0.53193  1.0000
  C   C176      1.0  0.07107  0.04980  0.50103  1.0000
  H   H165      1.0  0.07402  0.46485  0.36309  1.0000
  H   H166      1.0  0.00578  0.39816  0.61098  1.0000
  H   H167      1.0  0.01871  0.44476  0.35741  1.0000
  Fe  Fe27      1.0  0.22570  0.48276  0.35074  1.0000
  H   H168      1.0  0.05015  0.35126  0.32784  1.0000
  C   C177      1.0  0.16798  0.07752  0.46251  1.0000
  N   N13       1.0  0.05644  0.05808  0.51521  1.0000
  H   H169      1.0  0.19065  0.35725  0.48896  1.0000
  C   C178      1.0  0.03424  0.09705  0.43189  1.0000
  C   C179      1.0  0.16586  0.45954  0.61273  1.0000
  H   H170      1.0  0.02173  0.09816  0.48629  1.0000
  C   C180      1.0  0.16237  0.08341  0.44337  1.0000
  H   H171      1.0  0.16231  0.38552  0.48448  1.0000
  C   C181      1.0  0.14517  0.46687  0.61353  1.0000
  H   H172      1.0  0.23837  0.44013  0.46785  1.0000
  H   H173      1.0  0.06210  0.31514  0.35794  1.0000
  H   H174      1.0  0.04723  0.10545  0.42758  1.0000
  C   C182      1.0  0.04518  0.35016  0.62164  1.0000
  C   C183      1.0  0.23342  0.41931  0.43203  1.0000
  H   H175      1.0  0.22156  0.10074  0.45674  1.0000
  H   H176      1.0  0.14731  0.08239  0.44126  1.0000
  C   C184      1.0  0.99483  0.34020  0.40733  1.0000
  H   H177      1.0  0.10871  0.00146  0.38728  1.0000
  C   C185      1.0  0.03223  0.39060  0.57823  1.0000
  Fe  Fe28      1.0  0.05156  0.43095  0.32749  1.0000
  H   H178      1.0  0.05735  0.35675  0.59016  1.0000
  C   C186      1.0  0.19567  0.44554  0.62900  1.0000
  H   H179      1.0  0.20446  0.45393  0.61565  1.0000
  H   H180      1.0  0.22464  0.05706  0.39260  1.0000
  S   S57       1.0  0.22740  0.36872  0.58825  1.0000
  N   N14       1.0  0.09404  0.47418  0.33670  1.0000
  H   H181      1.0  0.20681  0.09581  0.41697  1.0000
  C   C187      1.0  0.99515  0.38807  0.43034  1.0000
  C   C188      1.0  0.00166  0.31885  0.48250  1.0000
  C   C189      1.0  0.01495  0.47041  0.33362  1.0000
  C   C190      1.0  0.23407  0.46611  0.44478  1.0000
  H   H182      1.0  0.05822  0.34101  0.36256  1.0000
  H   H183      1.0  0.08693  0.04882  0.50178  1.0000
  C   C191      1.0  0.12899  0.01004  0.33745  1.0000
  H   H184      1.0  0.05703  0.05644  0.54651  1.0000
  H   H185      1.0  0.19007  0.43875  0.49207  1.0000
  S   S58       1.0  0.23006  0.32439  0.55934  1.0000
  C   C192      1.0  0.22816  0.45377  0.46305  1.0000
  C   C193      1.0  0.07493  0.47788  0.35049  1.0000
  C   C194      1.0  0.09562  0.46211  0.32243  1.0000
  C   C195      1.0  0.23564  0.03954  0.44002  1.0000
  H   H186      1.0  0.16401  0.41540  0.33075  1.0000
  N   N15       1.0  0.03408  0.33279  0.35202  1.0000
  N   N16       1.0  0.17396  0.45306  0.63016  1.0000
  H   H187      1.0  0.04532  0.32300  0.38008  1.0000
  H   H188      1.0  0.14245  0.48197  0.32953  1.0000
  C   C196      1.0  0.11056  0.48147  0.33914  1.0000
  S   S59       1.0  0.03509  0.40465  0.33106  1.0000
  C   C197      1.0  0.23201  0.39366  0.58582  1.0000
  H   H189      1.0  0.06185  0.47959  0.34246  1.0000
  C   C198      1.0  0.03025  0.35624  0.63733  1.0000
  C   C199      1.0  0.01678  0.32465  0.35908  1.0000
  H   H190      1.0  0.23207  0.40079  0.55368  1.0000
  C   C200      1.0  0.02064  0.35027  0.32214  1.0000
  H   H191      1.0  0.23324  0.39101  0.61755  1.0000
  C   C201      1.0  0.22088  0.48341  0.43816  1.0000
  H   H192      1.0  0.05581  0.33622  0.62427  1.0000
  C   C202      1.0  0.00276  0.34243  0.32944  1.0000
  H   H193      1.0  0.24086  0.43509  0.55055  1.0000
  H   H194      1.0  0.16270  0.99102  0.37571  1.0000
  H   H195      1.0  0.02914  0.34701  0.65223  1.0000
  H   H196      1.0  0.08266  0.45593  0.32085  1.0000
  H   H197      1.0  0.99223  0.36141  0.57776  1.0000
  C   C203      1.0  0.24188  0.43254  0.58233  1.0000
  H   H198      1.0  0.00827  0.17136  0.79457  1.0000
  H   H199      1.0  0.21544  0.41120  0.98204  1.0000
  H   H200      1.0  0.13150  0.36354  0.93391  1.0000
  S   S60       1.0  0.08821  0.25352  0.95758  1.0000
  S   S61       1.0  0.99500  0.18840  0.83092  1.0000
  Fe  Fe29      1.0  0.01966  0.08368  0.75213  1.0000
  S   S62       1.0  0.00793  0.11725  0.74921  1.0000
  S   S63       1.0  0.04939  0.06854  0.76198  1.0000
  H   H201      1.0  0.17271  0.03682  0.75645  1.0000
  H   H202      1.0  0.15112  0.43699  0.86467  1.0000
  H   H203      1.0  0.99687  0.09638  0.82478  1.0000
  S   S64       1.0  0.00791  0.07956  0.72495  1.0000
  C   C204      1.0  0.10747  0.48438  0.82874  1.0000
  C   C205      1.0  0.22817  0.41919  0.97968  1.0000
  C   C206      1.0  0.18113  0.22297  0.97928  1.0000
  H   H204      1.0  0.00466  0.17974  0.95246  1.0000
  H   H205      1.0  0.02713  0.21002  0.89689  1.0000
  H   H206      1.0  0.02980  0.18747  0.97038  1.0000
  S   S65       1.0  0.01406  0.25324  0.88526  1.0000
  H   H207      1.0  0.09147  0.48318  0.83522  1.0000
  Fe  Fe30      1.0  0.12171  0.25107  0.95545  1.0000
  S   S66       1.0  0.12845  0.21870  0.95004  1.0000
  S   S67       1.0  0.13856  0.27499  0.93536  1.0000
  C   C207      1.0  0.00702  0.48732  0.67255  1.0000
  S   S68       1.0  0.17698  0.39546  0.96807  1.0000
  H   H208      1.0  0.18696  0.16039  0.94024  1.0000
  C   C208      1.0  0.09814  0.32915  0.97799  1.0000
  Fe  Fe31      1.0  0.09473  0.22035  0.95549  1.0000
  S   S69       1.0  0.07878  0.20404  0.93909  1.0000
  C   C209      1.0  0.11694  0.36187  0.93004  1.0000
  C   C210      1.0  0.23061  0.07251  0.88977  1.0000
  H   H209      1.0  0.21428  0.03458  0.92935  1.0000
  Fe  Fe32      1.0  0.16035  0.37454  0.95818  1.0000
  S   S70       1.0  0.17223  0.38220  0.92506  1.0000
  H   H210      1.0  0.22825  0.06464  0.87823  1.0000
  C   C211      1.0  0.23773  0.40237  0.93293  1.0000
  S   S71       1.0  0.16006  0.43012  0.93142  1.0000
  C   C212      1.0  0.02243  0.10017  0.80146  1.0000
  Fe  Fe33      1.0  0.14475  0.40650  0.92477  1.0000
  S   S72       1.0  0.12512  0.41201  0.90057  1.0000
  Fe  Fe34      1.0  0.18655  0.40506  0.93475  1.0000
  S   S73       1.0  0.13177  0.39702  0.95712  1.0000
  C   C213      1.0  0.16052  0.01501  0.78087  1.0000
  S   S74       1.0  0.21696  0.41380  0.92076  1.0000
  H   H211      1.0  0.01401  0.25053  0.94895  1.0000
  H   H212      1.0  0.22325  0.37850  0.95208  1.0000
  C   C214      1.0  0.99890  0.48970  0.83066  1.0000
  H   H213      1.0  0.07854  0.04300  0.69834  1.0000
  H   H214      1.0  0.02055  0.08807  0.79411  1.0000
  C   C215      1.0  0.00568  0.30565  0.84464  1.0000
  C   C216      1.0  0.10830  0.43518  0.90020  1.0000
  C   C217      1.0  0.09656  0.44192  0.88470  1.0000
  C   C218      1.0  0.08482  0.46142  0.88297  1.0000
  H   H215      1.0  0.04560  0.23626  0.96319  1.0000
  H   H216      1.0  0.19923  0.07767  0.90257  1.0000
  C   C219      1.0  0.10754  0.44761  0.91449  1.0000
  H   H217      1.0  0.09697  0.43228  0.87371  1.0000
  H   H218      1.0  0.07613  0.46672  0.87077  1.0000
  H   H219      1.0  0.11627  0.44245  0.92667  1.0000
  C   C220      1.0  0.08473  0.47413  0.89684  1.0000
  C   C221      1.0  0.99755  0.23105  0.93970  1.0000
  C   C222      1.0  0.20009  0.09625  0.93360  1.0000
  S   S75       1.0  0.22376  0.01823  0.89210  1.0000
  C   C223      1.0  0.14231  0.46520  0.87628  1.0000
  C   C224      1.0  0.00546  0.13150  0.67247  1.0000
  N   N17       1.0  0.21727  0.08862  0.91904  1.0000
  H   H220      1.0  0.00946  0.46448  0.81442  1.0000
  C   C225      1.0  0.21425  0.07973  0.90375  1.0000
  N   N18       1.0  0.02311  0.21947  0.96098  1.0000
  H   H221      1.0  0.20077  0.43529  0.95730  1.0000
  C   C226      1.0  0.10593  0.34500  0.96433  1.0000
  C   C227      1.0  0.14529  0.29327  0.94680  1.0000
  C   C228      1.0  0.14215  0.29188  0.96784  1.0000
  H   H222      1.0  0.10625  0.37633  0.93113  1.0000
  C   C229      1.0  0.15401  0.32399  0.96452  1.0000
  C   C230      1.0  0.15758  0.32526  0.94346  1.0000
  C   C231      1.0  0.15331  0.30986  0.93463  1.0000
  H   H223      1.0  0.13260  0.00233  0.74205  1.0000
  C   C232      1.0  0.18024  0.23006  0.94341  1.0000
  H   H224      1.0  0.16363  0.33806  0.93400  1.0000
  H   H225      1.0  0.15595  0.31096  0.91834  1.0000
  C   C233      1.0  0.03297  0.23940  0.89902  1.0000
  C   C234      1.0  0.03597  0.21820  0.90296  1.0000
  C   C235      1.0  0.05045  0.20753  0.91487  1.0000
  C   C236      1.0  0.06193  0.21797  0.92297  1.0000
  C   C237      1.0  0.05914  0.23917  0.91880  1.0000
  C   C238      1.0  0.04472  0.24985  0.90679  1.0000
  C   C239      1.0  0.13056  0.48445  0.87415  1.0000
  H   H226      1.0  0.05264  0.19112  0.91797  1.0000
  H   H227      1.0  0.06809  0.24732  0.92477  1.0000
  H   H228      1.0  0.04254  0.26626  0.90367  1.0000
  H   H229      1.0  0.11992  0.35947  0.91402  1.0000
  C   C240      1.0  0.23051  0.03230  0.92496  1.0000
  H   H230      1.0  0.00225  0.06463  0.66714  1.0000
  H   H231      1.0  0.09327  0.30071  0.94397  1.0000
  H   H232      1.0  0.16878  0.01833  0.79159  1.0000
  C   C241      1.0  0.01599  0.01287  0.74734  1.0000
  C   C242      1.0  0.99446  0.16585  0.80198  1.0000
  C   C243      1.0  0.13834  0.99595  0.77295  1.0000
  N   N19       1.0  0.14852  0.00032  0.78654  1.0000
  C   C244      1.0  0.14667  0.30707  0.97666  1.0000
  H   H233      1.0  0.11227  0.47503  0.81646  1.0000
  Fe  Fe35      1.0  0.23934  0.99903  0.86814  1.0000
  S   S76       1.0  0.21925  0.13062  0.95411  1.0000
  S   S77       1.0  0.10450  0.00560  0.70873  1.0000
  H   H234      1.0  0.02801  0.10954  0.68636  1.0000
  C   C245      1.0  0.08887  0.02254  0.72396  1.0000
  C   C246      1.0  0.02370  0.11803  0.67229  1.0000
  C   C247      1.0  0.08758  0.01897  0.74503  1.0000
  C   C248      1.0  0.07557  0.03326  0.75659  1.0000
  C   C249      1.0  0.06421  0.05079  0.74723  1.0000
  C   C250      1.0  0.06507  0.05407  0.72624  1.0000
  C   C251      1.0  0.07760  0.04013  0.71463  1.0000
  C   C252      1.0  0.15273  0.02092  0.74697  1.0000
  H   H235      1.0  0.07487  0.03063  0.77284  1.0000
  H   H236      1.0  0.05651  0.06763  0.71887  1.0000
  N   N20       1.0  0.22842  0.43721  0.96669  1.0000
  C   C253      1.0  0.19827  0.14477  0.96746  1.0000
  H   H237      1.0  0.21652  0.45074  0.93974  1.0000
  S   S78       1.0  0.03144  0.48530  0.67792  1.0000
  Fe  Fe36      1.0  0.12577  0.21068  0.98379  1.0000
  H   H238      1.0  0.15871  0.18254  0.95801  1.0000
  S   S79       1.0  0.15753  0.34354  0.97631  1.0000
  H   H239      1.0  0.04641  0.01878  0.73844  1.0000
  C   C254      1.0  0.00142  0.28909  0.83797  1.0000
  S   S80       1.0  0.99285  0.07475  0.77421  1.0000
  H   H240      1.0  0.13131  0.44857  0.83662  1.0000
  H   H241      1.0  0.19615  0.11301  0.92964  1.0000
  H   H242      1.0  0.00789  0.27379  0.84412  1.0000
  H   H243      1.0  0.04921  0.21066  0.97564  1.0000
  H   H244      1.0  0.20395  0.09278  0.94915  1.0000
  C   C255      1.0  0.01176  0.23500  0.95008  1.0000
  S   S81       1.0  0.19193  0.48492  0.66494  1.0000
  C   C256      1.0  0.13143  0.45895  0.84677  1.0000
  H   H245      1.0  0.19999  0.20851  0.92615  1.0000
  C   C257      1.0  0.18479  0.15889  0.95656  1.0000
  H   H246      1.0  0.11031  0.35697  0.97016  1.0000
  H   H247      1.0  0.00009  0.33811  0.84237  1.0000
  H   H248      1.0  0.13162  0.46072  0.66463  1.0000
  C   C258      1.0  0.00353  0.99815  0.75121  1.0000
  Fe  Fe37      1.0  0.99355  0.11227  0.72385  1.0000
  H   H249      1.0  0.00698  0.45512  0.68014  1.0000
  C   C259      1.0  0.03793  0.11139  0.79334  1.0000
  C   C260      1.0  0.23681  0.38530  0.94801  1.0000
  Fe  Fe38      1.0  0.24075  0.10695  0.97130  1.0000
  C   C261      1.0  0.10403  0.32948  0.93660  1.0000
  C   C262      1.0  0.03670  0.00741  0.74147  1.0000
  C   C263      1.0  0.99664  0.47271  0.82310  1.0000
  H   H250      1.0  0.02874  0.14329  0.82781  1.0000
  H   H251      1.0  0.10680  0.32912  0.92048  1.0000
  H   H252      1.0  0.23573  0.04519  0.94972  1.0000
  S   S82       1.0  0.23477  0.07486  0.98093  1.0000
  C   C264      1.0  0.99852  0.46975  0.67490  1.0000
  H   H253      1.0  0.00961  0.02850  0.74893  1.0000
  S   S83       1.0  0.22514  0.99280  0.79817  1.0000
  H   H254      1.0  0.23876  0.46610  0.71662  1.0000
  C   C265      1.0  0.16289  0.02546  0.76098  1.0000
  N   N21       1.0  0.10874  0.34503  0.94393  1.0000
  C   C266      1.0  0.02062  0.19981  0.96197  1.0000
  H   H255      1.0  0.09595  0.00537  0.75244  1.0000
  C   C267      1.0  0.19479  0.21285  0.94099  1.0000
  C   C268      1.0  0.09577  0.46701  0.91281  1.0000
  H   H256      1.0  0.15033  0.45988  0.88907  1.0000
  H   H257      1.0  0.16224  0.24863  0.96461  1.0000
  C   C269      1.0  0.16872  0.17145  0.96660  1.0000
  C   C270      1.0  0.04026  0.12695  0.80290  1.0000
  H   H258      1.0  0.17404  0.23935  0.93048  1.0000
  H   H259      1.0  0.16827  0.44802  0.66246  1.0000
  C   C271      1.0  0.14040  0.00605  0.75294  1.0000
  Fe  Fe39      1.0  0.14932  0.41866  0.96400  1.0000
  C   C272      1.0  0.14279  0.45234  0.86251  1.0000
  N   N22       1.0  0.19541  0.20615  0.97680  1.0000
  C   C273      1.0  0.03742  0.22405  0.97226  1.0000
  C   C274      1.0  0.09627  0.31337  0.94983  1.0000
  H   H260      1.0  0.04797  0.10803  0.77956  1.0000
  C   C275      1.0  0.21122  0.44624  0.95617  1.0000
  C   C276      1.0  0.99705  0.32531  0.83680  1.0000
  H   H261      1.0  0.05207  0.13599  0.79655  1.0000
  H   H262      1.0  0.20923  0.99488  0.76158  1.0000
  H   H263      1.0  0.15443  0.02882  0.73147  1.0000
  H   H264      1.0  0.09562  0.47671  0.92369  1.0000
  H   H265      1.0  0.05096  0.10577  0.65388  1.0000
  C   C277      1.0  0.09327  0.31324  0.97065  1.0000
  C   C278      1.0  0.99832  0.12399  0.84714  1.0000
  H   H266      1.0  0.20258  0.45971  0.96270  1.0000
  H   H267      1.0  0.01532  0.30317  0.85610  1.0000
  C   C279      1.0  0.17348  0.23525  0.96263  1.0000
  C   C280      1.0  0.23628  0.09102  0.92054  1.0000
  C   C281      1.0  0.20244  0.20111  0.95793  1.0000
  H   H268      1.0  0.18663  0.08922  0.93407  1.0000
  H   H269      1.0  0.13595  0.27932  0.97740  1.0000
  H   H270      1.0  0.00387  0.11342  0.86018  1.0000
  N   N23       1.0  0.01170  0.12002  0.82829  1.0000
  C   C282      1.0  0.00928  0.10479  0.81896  1.0000
  C   C283      1.0  0.00648  0.19533  0.95185  1.0000
  N   N24       1.0  0.12007  0.47794  0.84469  1.0000
  C   C284      1.0  0.23930  0.02369  0.90755  1.0000
  C   C285      1.0  0.02706  0.13094  0.82062  1.0000
  H   H271      1.0  0.03758  0.48310  0.75638  1.0000
  H   H272      1.0  0.99747  0.13987  0.84953  1.0000
  H   H273      1.0  0.99654  0.14524  0.78096  1.0000
  C   C286      1.0  0.99485  0.21108  0.94069  1.0000
  H   H274      1.0  0.13278  0.99789  0.81665  1.0000
  H   H275      1.0  0.08768  0.30058  0.98107  1.0000
  H   H276      1.0  0.23861  0.09824  0.93252  1.0000
  H   H277      1.0  0.21361  0.18763  0.95596  1.0000
  S   S84       1.0  0.13341  0.44036  0.98514  1.0000
  C   C287      1.0  0.11941  0.49058  0.85823  1.0000
  C   C288      1.0  0.03663  0.11588  0.65388  1.0000
  C   C289      1.0  0.00003  0.14246  0.65411  1.0000
  H   H278      1.0  0.99274  0.45827  0.88278  1.0000
  H   H279      1.0  0.02895  0.49051  0.79132  1.0000
  S   S85       1.0  0.02771  0.68540  0.13372  1.0000
  Fe  Fe40      1.0  0.08922  0.72048  0.03039  1.0000
  S   S86       1.0  0.11612  0.71545  0.04604  1.0000
  S   S87       1.0  0.05614  0.72452  0.04324  1.0000
  H   H280      1.0  0.10139  0.66900  0.06103  1.0000
  H   H281      1.0  0.18280  0.98855  0.18795  1.0000
  Fe  Fe41      1.0  0.12939  0.69233  0.02565  1.0000
  S   S88       1.0  0.14743  0.66265  0.03813  1.0000
  Fe  Fe42      1.0  0.12861  0.73801  0.02019  1.0000
  S   S89       1.0  0.14169  0.76305  0.02836  1.0000
  S   S90       1.0  0.10134  0.69544  0.01217  1.0000
  S   S91       1.0  0.10040  0.74489  0.00616  1.0000
  H   H282      1.0  0.00549  0.70731  0.10198  1.0000
  C   C290      1.0  0.03163  0.75239  0.17159  1.0000
  H   H283      1.0  0.99507  0.87179  0.26135  1.0000
  H   H284      1.0  0.12293  0.89425  0.19557  1.0000
  H   H285      1.0  0.01695  0.72273  0.06667  1.0000
  S   S92       1.0  0.18397  0.94780  0.15386  1.0000
  C   C291      1.0  0.18960  0.74747  0.04387  1.0000
  Fe  Fe43      1.0  0.08512  0.97285  0.26237  1.0000
  Fe  Fe44      1.0  0.24103  0.95594  0.09630  1.0000
  Fe  Fe45      1.0  0.01074  0.79298  0.25687  1.0000
  Fe  Fe46      1.0  0.12806  0.95250  0.26366  1.0000
  S   S93       1.0  0.12008  0.93416  0.29426  1.0000
  S   S94       1.0  0.16062  0.94878  0.24820  1.0000
  Fe  Fe47      1.0  0.09362  0.92888  0.28231  1.0000
  S   S95       1.0  0.08625  0.89722  0.29230  1.0000
  S   S96       1.0  0.10322  0.94476  0.25095  1.0000
  Fe  Fe48      1.0  0.16670  0.50806  0.04202  1.0000
  H   H286      1.0  0.15461  0.90635  0.19705  1.0000
  Fe  Fe49      1.0  0.02187  0.83351  0.26008  1.0000
  H   H287      1.0  0.20336  0.86954  0.08999  1.0000
  S   S97       1.0  0.03589  0.86080  0.24348  1.0000
  Fe  Fe50      1.0  0.02031  0.80042  0.29699  1.0000
  S   S98       1.0  0.99442  0.78942  0.28892  1.0000
  S   S99       1.0  0.03801  0.80135  0.26553  1.0000
  N   N25       1.0  0.13855  0.89357  0.24723  1.0000
  Fe  Fe51      1.0  0.14283  0.55046  0.04431  1.0000
  S   S100      1.0  0.17602  0.53848  0.03871  1.0000
  S   S101      1.0  0.12765  0.57903  0.02663  1.0000
  Fe  Fe52      1.0  0.13370  0.51531  0.07791  1.0000
  Fe  Fe53      1.0  0.17310  0.53191  0.07252  1.0000
  S   S102      1.0  0.19606  0.53670  0.09004  1.0000
  H   H288      1.0  0.01963  0.54912  0.31225  1.0000
  C   C292      1.0  0.22974  0.87617  0.09872  1.0000
  S   S103      1.0  0.14051  0.54630  0.07800  1.0000
  S   S104      1.0  0.13353  0.52052  0.04447  1.0000
  H   H289      1.0  0.18630  0.81417  0.01167  1.0000
  C   C293      1.0  0.21923  0.54273  0.07620  1.0000
  C   C294      1.0  0.22152  0.54937  0.05530  1.0000
  H   H290      1.0  0.21585  0.74725  0.02061  1.0000
  H   H291      1.0  0.08643  0.61948  0.06331  1.0000
  H   H292      1.0  0.23412  0.53532  0.10241  1.0000
  H   H293      1.0  0.03738  0.77254  0.19001  1.0000
  H   H294      1.0  0.20873  0.55198  0.04757  1.0000
  H   H295      1.0  0.01057  0.70737  0.99542  1.0000
  S   S105      1.0  0.07323  0.95616  0.29265  1.0000
  S   S106      1.0  0.01634  0.76763  0.23783  1.0000
  C   C295      1.0  0.07143  0.88790  0.27893  1.0000
  C   C296      1.0  0.06664  0.89835  0.26027  1.0000
  C   C297      1.0  0.05582  0.88985  0.24941  1.0000
  C   C298      1.0  0.04949  0.87108  0.25732  1.0000
  C   C299      1.0  0.05405  0.86082  0.27612  1.0000
  C   C300      1.0  0.06513  0.86915  0.28681  1.0000
  H   H296      1.0  0.07149  0.91281  0.25408  1.0000
  H   H297      1.0  0.05229  0.89784  0.23487  1.0000
  H   H298      1.0  0.04933  0.84629  0.28225  1.0000
  H   H299      1.0  0.06895  0.86092  0.30117  1.0000
  C   C301      1.0  0.17797  0.94670  0.18028  1.0000
  C   C302      1.0  0.19288  0.94432  0.19234  1.0000
  C   C303      1.0  0.18736  0.94466  0.21324  1.0000
  C   C304      1.0  0.16695  0.94748  0.22215  1.0000
  C   C305      1.0  0.15207  0.94945  0.21014  1.0000
  C   C306      1.0  0.15758  0.94899  0.18929  1.0000
  H   H300      1.0  0.20864  0.94251  0.18552  1.0000
  H   H301      1.0  0.19897  0.94304  0.22246  1.0000
  H   H302      1.0  0.13631  0.95162  0.21681  1.0000
  H   H303      1.0  0.14599  0.95078  0.18001  1.0000
  S   S107      1.0  0.21747  0.84737  0.05691  1.0000
  H   H304      1.0  0.07875  0.70280  0.07507  1.0000
  N   N26       1.0  0.01823  0.74822  0.16105  1.0000
  C   C307      1.0  0.00880  0.78262  0.17953  1.0000
  S   S108      1.0  0.11074  0.98175  0.27317  1.0000
  C   C308      1.0  0.16100  0.77523  0.01255  1.0000
  C   C309      1.0  0.16598  0.79225  0.01812  1.0000
  C   C310      1.0  0.18256  0.80116  0.00717  1.0000
  C   C311      1.0  0.14468  0.89313  0.26676  1.0000
  H   H305      1.0  0.04563  0.74205  0.17334  1.0000
  H   H306      1.0  0.01409  0.71797  0.16198  1.0000
  H   H307      1.0  0.15709  0.79838  0.03113  1.0000
  S   S109      1.0  0.22208  0.93153  0.10818  1.0000
  C   C312      1.0  0.14161  0.63956  0.03490  1.0000
  C   C313      1.0  0.15288  0.62128  0.04295  1.0000
  C   C314      1.0  0.14862  0.60258  0.04062  1.0000
  C   C315      1.0  0.13309  0.60212  0.03017  1.0000
  C   C316      1.0  0.12184  0.62038  0.02210  1.0000
  C   C317      1.0  0.12611  0.63907  0.02442  1.0000
  H   H308      1.0  0.16495  0.62157  0.05102  1.0000
  H   H309      1.0  0.15739  0.58854  0.04685  1.0000
  H   H310      1.0  0.10986  0.62004  0.01393  1.0000
  H   H311      1.0  0.11748  0.65302  0.01801  1.0000
  S   S110      1.0  0.00621  0.83312  0.29213  1.0000
  S   S111      1.0  0.99597  0.82549  0.24889  1.0000
  H   H312      1.0  0.03158  0.71769  0.01615  1.0000
  H   H313      1.0  0.11238  0.88014  0.26036  1.0000
  C   C318      1.0  0.20982  0.91424  0.05717  1.0000
  C   C319      1.0  0.03561  0.69625  0.10859  1.0000
  C   C320      1.0  0.05629  0.69493  0.10091  1.0000
  C   C321      1.0  0.06281  0.70366  0.08087  1.0000
  C   C322      1.0  0.04863  0.71366  0.06847  1.0000
  C   C323      1.0  0.02798  0.71498  0.07619  1.0000
  C   C324      1.0  0.02147  0.70630  0.09620  1.0000
  H   H314      1.0  0.06725  0.68727  0.11053  1.0000
  C   C325      1.0  0.21159  0.90206  0.04248  1.0000
  C   C326      1.0  0.02717  0.76969  0.18090  1.0000
  C   C327      1.0  0.15053  0.90041  0.22973  1.0000
  C   C328      1.0  0.22512  0.90538  0.02447  1.0000
  S   S112      1.0  0.23319  0.96976  0.12474  1.0000
  H   H315      1.0  0.99587  0.72142  0.20139  1.0000
  H   H316      1.0  0.03893  0.72302  0.15034  1.0000
  S   S113      1.0  0.16612  0.50048  0.07561  1.0000
  Fe  Fe54      1.0  0.21643  0.94354  0.13767  1.0000
  H   H317      1.0  0.19806  0.80464  0.07090  1.0000
  C   C329      1.0  0.19421  0.79319  0.99044  1.0000
  S   S114      1.0  0.14406  0.71438  0.00094  1.0000
  Fe  Fe55      1.0  0.23000  0.82431  0.98962  1.0000
  H   H318      1.0  0.22251  0.79837  0.05663  1.0000
  C   C330      1.0  0.17243  0.76751  0.99559  1.0000
  H   H319      1.0  0.22552  0.77758  0.02854  1.0000
  C   C331      1.0  0.12739  0.89392  0.21007  1.0000
  C   C332      1.0  0.21235  0.77179  0.03753  1.0000
  Fe  Fe56      1.0  0.10042  0.96257  0.30280  1.0000
  C   C333      1.0  0.20701  0.75455  0.03300  1.0000
  C   C334      1.0  0.14512  0.90073  0.21090  1.0000
  C   C335      1.0  0.05031  0.73189  0.99032  1.0000
  C   C336      1.0  0.21966  0.86793  0.08696  1.0000
  C   C337      1.0  0.17775  0.75768  0.05901  1.0000
  C   C338      1.0  0.23585  0.54022  0.08620  1.0000
  H   H320      1.0  0.20217  0.81306  0.04401  1.0000
  N   N27       1.0  0.20070  0.78165  0.05250  1.0000
  H   H321      1.0  0.16430  0.90580  0.23029  1.0000
  C   C339      1.0  0.18349  0.77492  0.06309  1.0000
  H   H322      1.0  0.18472  0.73470  0.03992  1.0000
  H   H323      1.0  0.22122  0.88398  0.11084  1.0000
  C   C340      1.0  0.22674  0.49210  0.07459  1.0000
  S   S115      1.0  0.10702  0.50492  0.09982  1.0000
  H   H324      1.0  0.01879  0.73222  0.21998  1.0000
  C   C341      1.0  0.02273  0.71561  0.98793  1.0000
  H   H325      1.0  0.00672  0.49716  0.31234  1.0000
  H   H326      1.0  0.00478  0.79553  0.18750  1.0000
  H   H327      1.0  0.10578  0.58679  0.07711  1.0000
  H   H328      1.0  0.01826  0.73251  0.13686  1.0000
  H   H329      1.0  0.10172  0.88104  0.22761  1.0000
  H   H330      1.0  0.01168  0.90134  0.26034  1.0000
  H   H331      1.0  0.15598  0.87938  0.27017  1.0000
  N   N28       1.0  0.23673  0.92030  0.02126  1.0000
  H   H332      1.0  0.22940  0.52659  0.01679  1.0000
  H   H333      1.0  0.07874  0.66135  0.07673  1.0000
  H   H334      1.0  0.08647  0.65557  0.05132  1.0000
  H   H335      1.0  0.16365  0.75284  0.06677  1.0000
  Fe  Fe57      1.0  0.23346  0.84312  0.02560  1.0000
  H   H336      1.0  0.04977  0.92378  0.31925  1.0000
  H   H337      1.0  0.15137  0.90684  0.26655  1.0000
  H   H338      1.0  0.12306  0.65170  0.08504  1.0000
  C   C342      1.0  0.02261  0.72957  0.15218  1.0000
  H   H339      1.0  0.21980  0.93957  0.06468  1.0000
  C   C343      1.0  0.23057  0.85763  0.07132  1.0000
  H   H340      1.0  0.13152  0.89306  0.27923  1.0000
  C   C344      1.0  0.11550  0.88653  0.22799  1.0000
  H   H341      1.0  0.13391  0.58656  0.09546  1.0000
  C   C345      1.0  0.12149  0.88624  0.24653  1.0000
  H   H342      1.0  0.14250  0.61926  0.09944  1.0000
  H   H343      1.0  0.17379  0.78315  0.07440  1.0000
  C   C346      1.0  0.22128  0.92978  0.05353  1.0000
  N   N29       1.0  0.10358  0.63747  0.07344  1.0000
  C   C347      1.0  0.11894  0.63749  0.08364  1.0000
  C   C348      1.0  0.09855  0.61954  0.07145  1.0000
  C   C349      1.0  0.13000  0.61920  0.09180  1.0000
  C   C350      1.0  0.10934  0.60098  0.07935  1.0000
  C   C351      1.0  0.12518  0.60085  0.08957  1.0000
  C   C352      1.0  0.09194  0.65678  0.06528  1.0000
  H   H344      1.0  0.20271  0.88995  0.04514  1.0000
  H   H345      1.0  0.20878  0.49848  0.05089  1.0000
  C   C353      1.0  0.20608  0.80028  0.05620  1.0000
  S   S116      1.0  0.21432  0.85292  0.00109  1.0000
  H   H346      1.0  0.05962  0.73639  0.99934  1.0000
  H   H347      1.0  0.04851  0.82207  0.31676  1.0000
  C   C354      1.0  0.03457  0.72136  0.99975  1.0000
  H   H348      1.0  0.22390  0.50207  0.01531  1.0000
  C   C355      1.0  0.00407  0.74122  0.21870  1.0000
  H   H349      1.0  0.22633  0.89590  0.01309  1.0000
  H   H350      1.0  0.09086  0.49730  0.06025  1.0000
  N   N30       1.0  0.23917  0.50290  0.03951  1.0000
  C   C356      1.0  0.24044  0.55289  0.04437  1.0000
  C   C357      1.0  0.99835  0.75917  0.22718  1.0000
  H   H351      1.0  0.14496  0.49587  0.01457  1.0000
  H   H352      1.0  0.17469  0.60269  0.99791  1.0000
  H   H353      1.0  0.19965  0.91163  0.07138  1.0000
  C   C358      1.0  0.23473  0.93265  0.03539  1.0000
  Fe  Fe58      1.0  0.11466  0.71940  0.98902  1.0000
  H   H354      1.0  0.00431  0.54064  0.29804  1.0000
  H   H355      1.0  0.17783  0.98883  0.21455  1.0000
  H   H356      1.0  0.18650  0.63275  0.00451  1.0000
  C   C359      1.0  0.23527  0.51005  0.01873  1.0000
  H   H357      1.0  0.16873  0.75443  0.99116  1.0000
  C   C360      1.0  0.00398  0.54713  0.31188  1.0000
  C   C361      1.0  0.17545  0.63470  0.99451  1.0000
  C   C362      1.0  0.22370  0.49778  0.05445  1.0000
  H   H358      1.0  0.17155  0.66723  0.98982  1.0000
  C   C363      1.0  0.99584  0.90368  0.25888  1.0000
  Fe  Fe59      1.0  0.99401  0.69133  0.14375  1.0000
  C   C364      1.0  0.00011  0.76073  0.15980  1.0000
  C   C365      1.0  0.16879  0.61785  0.99085  1.0000
  C   C366      1.0  0.99516  0.77815  0.16891  1.0000
  H   H359      1.0  0.04434  0.88795  0.32908  1.0000
  H   H360      1.0  0.22514  0.49296  0.42389  1.0000
  Fe  Fe60      1.0  0.21059  0.60302  0.50747  1.0000
  S   S117      1.0  0.19745  0.58583  0.53720  1.0000
  Fe  Fe61      1.0  0.19687  0.63068  0.47046  1.0000
  S   S118      1.0  0.22851  0.62841  0.45310  1.0000
  S   S119      1.0  0.17013  0.64906  0.45613  1.0000
  H   H361      1.0  0.05906  0.86627  0.35786  1.0000
  C   C367      1.0  0.15313  0.94545  0.43704  1.0000
  S   S120      1.0  0.19898  0.59724  0.48089  1.0000
  S   S121      1.0  0.20613  0.63702  0.49841  1.0000
  Fe  Fe62      1.0  0.16471  0.90726  0.53724  1.0000
  S   S122      1.0  0.18189  0.87638  0.53312  1.0000
  S   S123      1.0  0.17216  0.93358  0.51343  1.0000
  Fe  Fe63      1.0  0.14687  0.89340  0.58119  1.0000
  S   S124      1.0  0.16256  0.86127  0.58013  1.0000
  S   S125      1.0  0.12700  0.90491  0.60879  1.0000
  Fe  Fe64      1.0  0.18953  0.87549  0.56387  1.0000
  S   S126      1.0  0.22173  0.86399  0.56940  1.0000
  Fe  Fe65      1.0  0.15323  0.86535  0.54928  1.0000
  S   S127      1.0  0.14090  0.83973  0.54071  1.0000
  S   S128      1.0  0.17428  0.90719  0.56676  1.0000
  S   S129      1.0  0.13538  0.89658  0.55159  1.0000
  H   H362      1.0  0.15119  0.95052  0.60361  1.0000
  Fe  Fe66      1.0  0.20587  0.50094  0.38870  1.0000
  C   C368      1.0  0.23804  0.51016  0.54916  1.0000
  S   S130      1.0  0.02828  0.62658  0.48098  1.0000
  S   S131      1.0  0.02669  0.58068  0.62026  1.0000
  H   H363      1.0  0.07274  0.71865  0.36517  1.0000
  C   C369      1.0  0.05596  0.91427  0.33204  1.0000
  H   H364      1.0  0.21156  0.91090  0.52476  1.0000
  Fe  Fe67      1.0  0.03817  0.63184  0.44727  1.0000
  S   S132      1.0  0.02096  0.64655  0.42182  1.0000
  Fe  Fe68      1.0  0.07808  0.62318  0.41950  1.0000
  S   S133      1.0  0.06438  0.63682  0.39138  1.0000
  S   S134      1.0  0.11017  0.60801  0.42267  1.0000
  Fe  Fe69      1.0  0.04846  0.66154  0.40937  1.0000
  S   S135      1.0  0.04574  0.69547  0.39858  1.0000
  Fe  Fe70      1.0  0.03784  0.62065  0.40597  1.0000
  S   S136      1.0  0.02492  0.59949  0.39099  1.0000
  S   S137      1.0  0.06397  0.64882  0.43615  1.0000
  S   S138      1.0  0.05321  0.60500  0.43257  1.0000
  Fe  Fe71      1.0  0.07404  0.81534  0.41154  1.0000
  S   S139      1.0  0.10257  0.79795  0.42213  1.0000
  S   S140      1.0  0.07291  0.82764  0.37829  1.0000
  Fe  Fe72      1.0  0.05104  0.81266  0.45472  1.0000
  S   S141      1.0  0.07744  0.79410  0.46851  1.0000
  S   S142      1.0  0.02090  0.82517  0.47136  1.0000
  Fe  Fe73      1.0  0.09537  0.81639  0.44766  1.0000
  S   S143      1.0  0.11570  0.83549  0.45609  1.0000
  Fe  Fe74      1.0  0.08193  0.77739  0.44195  1.0000
  S   S144      1.0  0.09036  0.74323  0.44326  1.0000
  S   S145      1.0  0.06859  0.83564  0.43497  1.0000
  S   S146      1.0  0.05386  0.79418  0.43020  1.0000
  H   H365      1.0  0.08848  0.73217  0.38828  1.0000
  C   C370      1.0  0.13750  0.95003  0.42563  1.0000
  C   C371      1.0  0.16418  0.60153  0.39209  1.0000
  C   C372      1.0  0.23149  0.58124  0.55479  1.0000
  H   H366      1.0  0.21063  0.82276  0.57492  1.0000
  C   C373      1.0  0.05762  0.70834  0.41187  1.0000
  C   C374      1.0  0.04965  0.72850  0.41425  1.0000
  C   C375      1.0  0.05934  0.73926  0.42410  1.0000
  C   C376      1.0  0.07731  0.73008  0.43134  1.0000
  C   C377      1.0  0.08544  0.71003  0.42865  1.0000
  C   C378      1.0  0.07561  0.69917  0.41906  1.0000
  H   H367      1.0  0.03584  0.73577  0.40860  1.0000
  H   H368      1.0  0.05279  0.75458  0.42614  1.0000
  H   H369      1.0  0.09962  0.70295  0.43362  1.0000
  H   H370      1.0  0.08235  0.68393  0.41663  1.0000
  H   H371      1.0  0.99905  0.60812  0.42766  1.0000
  H   H372      1.0  0.10727  0.94219  0.48933  1.0000
  H   H373      1.0  0.20040  0.60929  0.43197  1.0000
  N   N31       1.0  0.99378  0.79714  0.63073  1.0000
  C   C379      1.0  0.13457  0.83849  0.51688  1.0000
  C   C380      1.0  0.13838  0.85319  0.49982  1.0000
  C   C381      1.0  0.13265  0.85187  0.48137  1.0000
  C   C382      1.0  0.12285  0.83603  0.47973  1.0000
  C   C383      1.0  0.11898  0.82136  0.49681  1.0000
  C   C384      1.0  0.12497  0.82251  0.51519  1.0000
  H   H374      1.0  0.14574  0.86557  0.50082  1.0000
  H   H375      1.0  0.13579  0.86328  0.46827  1.0000
  H   H376      1.0  0.11156  0.80903  0.49580  1.0000
  H   H377      1.0  0.12197  0.81103  0.52825  1.0000
  C   C385      1.0  0.15318  0.94607  0.49932  1.0000
  C   C386      1.0  0.15616  0.96414  0.48625  1.0000
  C   C387      1.0  0.14153  0.97439  0.47448  1.0000
  C   C388      1.0  0.13549  0.93816  0.50053  1.0000
  H   H378      1.0  0.16980  0.97033  0.48528  1.0000
  H   H379      1.0  0.13911  0.55698  0.60953  1.0000
  H   H380      1.0  0.13318  0.92413  0.51053  1.0000
  H   H381      1.0  0.00879  0.84397  0.64459  1.0000
  H   H382      1.0  0.09354  0.78627  0.34572  1.0000
  S   S147      1.0  0.22562  0.49649  0.61147  1.0000
  H   H383      1.0  0.04382  0.79622  0.49925  1.0000
  H   H384      1.0  0.20903  0.90410  0.58066  1.0000
  H   H385      1.0  0.00237  0.57437  0.33559  1.0000
  C   C389      1.0  0.07754  0.73340  0.36061  1.0000
  C   C390      1.0  0.04061  0.79833  0.34118  1.0000
  C   C391      1.0  0.00810  0.80628  0.53971  1.0000
  C   C392      1.0  0.05844  0.82492  0.34418  1.0000
  C   C393      1.0  0.05952  0.81671  0.36457  1.0000
  C   C394      1.0  0.05079  0.79947  0.37328  1.0000
  C   C395      1.0  0.04149  0.79026  0.36161  1.0000
  H   H386      1.0  0.18519  0.49925  0.62348  1.0000
  H   H387      1.0  0.06536  0.83810  0.33719  1.0000
  H   H388      1.0  0.05165  0.79284  0.38885  1.0000
  H   H389      1.0  0.03544  0.77652  0.36834  1.0000
  H   H390      1.0  0.06768  0.73926  0.33154  1.0000
  C   C396      1.0  0.15628  0.89923  0.63335  1.0000
  C   C397      1.0  0.13655  0.90771  0.63027  1.0000
  C   C398      1.0  0.99909  0.82745  0.50887  1.0000
  H   H391      1.0  0.20533  0.94769  0.52639  1.0000
  H   H392      1.0  0.16606  0.89056  0.62247  1.0000
  H   H393      1.0  0.21752  0.94128  0.64904  1.0000
  C   C399      1.0  0.15295  0.63736  0.44785  1.0000
  C   C400      1.0  0.13766  0.64957  0.43776  1.0000
  C   C401      1.0  0.12382  0.64078  0.43082  1.0000
  C   C402      1.0  0.12549  0.61966  0.43347  1.0000
  C   C403      1.0  0.14068  0.60746  0.44365  1.0000
  C   C404      1.0  0.15423  0.61626  0.45097  1.0000
  H   H394      1.0  0.13655  0.66591  0.43522  1.0000
  H   H395      1.0  0.11230  0.65033  0.42282  1.0000
  H   H396      1.0  0.14216  0.59110  0.44563  1.0000
  H   H397      1.0  0.16583  0.60665  0.45873  1.0000
  C   C405      1.0  0.20941  0.53809  0.41787  1.0000
  C   C406      1.0  0.19968  0.55106  0.43173  1.0000
  C   C407      1.0  0.21088  0.56108  0.44067  1.0000
  H   H398      1.0  0.18336  0.55372  0.43524  1.0000
  H   H399      1.0  0.20317  0.57120  0.45111  1.0000
  C   C408      1.0  0.15611  0.95797  0.63141  1.0000
  C   C409      1.0  0.22103  0.54753  0.58271  1.0000
  C   C410      1.0  0.20842  0.55742  0.56866  1.0000
  C   C411      1.0  0.21369  0.57415  0.55456  1.0000
  C   C412      1.0  0.12398  0.91875  0.64466  1.0000
  N   N32       1.0  0.07288  0.88944  0.36396  1.0000
  H   H400      1.0  0.21646  0.53506  0.59372  1.0000
  H   H401      1.0  0.19454  0.55204  0.56867  1.0000
  C   C413      1.0  0.99365  0.62641  0.50858  1.0000
  C   C414      1.0  0.00043  0.59724  0.38702  1.0000
  H   H402      1.0  0.07047  0.86812  0.39120  1.0000
  H   H403      1.0  0.23229  0.96351  0.53382  1.0000
  H   H404      1.0  0.12996  0.56086  0.63524  1.0000
  H   H405      1.0  0.03042  0.52998  0.59893  1.0000
  H   H406      1.0  0.18344  0.82022  0.52406  1.0000
  C   C415      1.0  0.21603  0.81680  0.51897  1.0000
  C   C416      1.0  0.07623  0.90909  0.35843  1.0000
  H   H407      1.0  0.01387  0.74697  0.34098  1.0000
  H   H408      1.0  0.01748  0.50071  0.62228  1.0000
  H   H409      1.0  0.01070  0.58662  0.49468  1.0000
  C   C417      1.0  0.00152  0.75098  0.35346  1.0000
  C   C418      1.0  0.16805  0.55138  0.63912  1.0000
  S   S148      1.0  0.11325  0.52350  0.62653  1.0000
  C   C419      1.0  0.23047  0.53493  0.41321  1.0000
  H   H410      1.0  0.20279  0.58494  0.60185  1.0000
  C   C420      1.0  0.06146  0.88190  0.35370  1.0000
  C   C421      1.0  0.09948  0.76837  0.38315  1.0000
  H   H411      1.0  0.15439  0.51448  0.60891  1.0000
  N   N33       1.0  0.15972  0.96416  0.39689  1.0000
  S   S149      1.0  0.19496  0.50065  0.35977  1.0000
  C   C422      1.0  0.19687  0.81954  0.53065  1.0000
  C   C423      1.0  0.99461  0.82120  0.52978  1.0000
  C   C424      1.0  0.24105  0.54138  0.52589  1.0000
  S   S150      1.0  0.05565  0.52549  0.63473  1.0000
  H   H412      1.0  0.00114  0.84500  0.61010  1.0000
  H   H413      1.0  0.18955  0.96460  0.40158  1.0000
  H   H414      1.0  0.09324  0.97721  0.37474  1.0000
  C   C425      1.0  0.16338  0.90200  0.65053  1.0000
  C   C426      1.0  0.16318  0.97457  0.37591  1.0000
  H   H415      1.0  0.08872  0.88438  0.38927  1.0000
  S   S151      1.0  0.03113  0.78480  0.32645  1.0000
  H   H416      1.0  0.15051  0.93833  0.45278  1.0000
  H   H417      1.0  0.23810  0.52522  0.40230  1.0000
  N   N34       1.0  0.07013  0.84831  0.50524  1.0000
  C   C427      1.0  0.08138  0.86317  0.50409  1.0000
  C   C428      1.0  0.06585  0.83559  0.52309  1.0000
  C   C429      1.0  0.08914  0.86523  0.52098  1.0000
  C   C430      1.0  0.07357  0.83707  0.54021  1.0000
  C   C431      1.0  0.08540  0.85193  0.53907  1.0000
  C   C432      1.0  0.06195  0.84656  0.48744  1.0000
  H   H418      1.0  0.08493  0.87314  0.48989  1.0000
  H   H419      1.0  0.05665  0.82403  0.52409  1.0000
  H   H420      1.0  0.09868  0.87653  0.51986  1.0000
  H   H421      1.0  0.07064  0.82659  0.55418  1.0000
  H   H422      1.0  0.09208  0.85287  0.55200  1.0000
  H   H423      1.0  0.06002  0.83070  0.48767  1.0000
  H   H424      1.0  0.04700  0.85640  0.48699  1.0000
  H   H425      1.0  0.07241  0.85082  0.47327  1.0000
  C   C433      1.0  0.00220  0.63279  0.48854  1.0000
  H   H426      1.0  0.21871  0.61702  0.41048  1.0000
  H   H427      1.0  0.09405  0.86425  0.37429  1.0000
  H   H428      1.0  0.21678  0.52457  0.52899  1.0000
  C   C434      1.0  0.23880  0.55454  0.58310  1.0000
  N   N35       1.0  0.09135  0.76019  0.36862  1.0000
  C   C435      1.0  0.04889  0.81587  0.33256  1.0000
  H   H429      1.0  0.00497  0.60336  0.58917  1.0000
  C   C436      1.0  0.08942  0.77124  0.34988  1.0000
  H   H430      1.0  0.16828  0.57544  0.37725  1.0000
  H   H431      1.0  0.00845  0.55282  0.57604  1.0000
  C   C437      1.0  0.00503  0.83069  0.64049  1.0000
  C   C438      1.0  0.08111  0.76375  0.33618  1.0000
  C   C439      1.0  0.00316  0.53970  0.58585  1.0000
  H   H432      1.0  0.01466  0.59131  0.45759  1.0000
  H   H433      1.0  0.22029  0.58543  0.39791  1.0000
  C   C440      1.0  0.05288  0.89415  0.33758  1.0000
  C   C441      1.0  0.14103  0.95954  0.40547  1.0000
  C   C442      1.0  0.08620  0.74123  0.37377  1.0000
  C   C443      1.0  0.20466  0.59043  0.39581  1.0000
  C   C444      1.0  0.10733  0.98438  0.34372  1.0000
  C   C445      1.0  0.01680  0.81842  0.49775  1.0000
  C   C446      1.0  0.23307  0.81618  0.52778  1.0000
  N   N36       1.0  0.19345  0.60685  0.40375  1.0000
  C   C447      1.0  0.20231  0.61714  0.41602  1.0000
  H   H434      1.0  0.16467  0.62572  0.40784  1.0000
  H   H435      1.0  0.18523  0.92992  0.59720  1.0000
  C   C448      1.0  0.00315  0.57904  0.61457  1.0000
  C   C449      1.0  0.16961  0.95497  0.64514  1.0000
  N   N37       1.0  0.08904  0.64634  0.48077  1.0000
  C   C450      1.0  0.10797  0.65009  0.48074  1.0000
  C   C451      1.0  0.07335  0.66206  0.47845  1.0000
  C   C452      1.0  0.11163  0.67002  0.47829  1.0000
  C   C453      1.0  0.07647  0.68218  0.47592  1.0000
  C   C454      1.0  0.09575  0.68614  0.47585  1.0000
  C   C455      1.0  0.08592  0.62541  0.48190  1.0000
  H   H436      1.0  0.12052  0.63768  0.48211  1.0000
  H   H437      1.0  0.05836  0.65910  0.47821  1.0000
  H   H438      1.0  0.12682  0.67287  0.47775  1.0000
  H   H439      1.0  0.06414  0.69465  0.47355  1.0000
  H   H440      1.0  0.09843  0.70172  0.47344  1.0000
  H   H441      1.0  0.06993  0.62366  0.48788  1.0000
  H   H442      1.0  0.08990  0.62107  0.46655  1.0000
  H   H443      1.0  0.09545  0.61465  0.49206  1.0000
  N   N38       1.0  0.23103  0.81842  0.54760  1.0000
  C   C456      1.0  0.16180  0.94901  0.61399  1.0000
  C   C457      1.0  0.22488  0.89976  0.58103  1.0000
  C   C458      1.0  0.20086  0.56141  0.62798  1.0000
  C   C459      1.0  0.08203  0.87600  0.38049  1.0000
  H   H444      1.0  0.99694  0.73685  0.36283  1.0000
  H   H445      1.0  0.99899  0.56474  0.49540  1.0000
  C   C460      1.0  0.22337  0.91794  0.52779  1.0000
  C   C461      1.0  0.00060  0.83131  0.62123  1.0000
  H   H446      1.0  0.11573  0.76203  0.38291  1.0000
  H   H447      1.0  0.22798  0.92830  0.58833  1.0000
  H   H448      1.0  0.09762  0.78522  0.37981  1.0000
  H   H449      1.0  0.99689  0.55461  0.63886  1.0000
  H   H450      1.0  0.21672  0.55966  0.62927  1.0000
  C   C462      1.0  0.19398  0.93456  0.62453  1.0000
  C   C463      1.0  0.17544  0.58462  0.38418  1.0000
  C   C464      1.0  0.99837  0.59546  0.45923  1.0000
  C   C465      1.0  0.23472  0.88070  0.57679  1.0000
  C   C466      1.0  0.15357  0.51070  0.62517  1.0000
  H   H451      1.0  0.14815  0.60568  0.39133  1.0000
  C   C467      1.0  0.99763  0.79657  0.64979  1.0000
  C   C468      1.0  0.23193  0.55821  0.43581  1.0000
  C   C469      1.0  0.99592  0.59242  0.59817  1.0000
  H   H452      1.0  0.09129  0.76441  0.39876  1.0000
  H   H453      1.0  0.03646  0.78595  0.53641  1.0000
  C   C470      1.0  0.02616  0.79773  0.52876  1.0000
  C   C471      1.0  0.99782  0.57933  0.38110  1.0000
  C   C472      1.0  0.19303  0.57562  0.61258  1.0000
  C   C473      1.0  0.23065  0.52523  0.53413  1.0000
  S   S152      1.0  0.06978  0.56166  0.65181  1.0000
  C   C474      1.0  0.01546  0.52692  0.59878  1.0000
  Fe  Fe75      1.0  0.08288  0.53003  0.64613  1.0000
  S   S153      1.0  0.19451  0.52758  0.40557  1.0000
  H   H454      1.0  0.12257  0.94679  0.43260  1.0000
  C   C475      1.0  0.17356  0.61267  0.40165  1.0000
  C   C476      1.0  0.19590  0.57926  0.38566  1.0000
  C   C477      1.0  0.03038  0.80361  0.50772  1.0000
  C   C478      1.0  0.12389  0.96651  0.47551  1.0000
  C   C479      1.0  0.12085  0.94837  0.48856  1.0000
  H   H455      1.0  0.14106  0.96653  0.63465  1.0000
  H   H456      1.0  0.00329  0.61898  0.51961  1.0000
  H   H457      1.0  0.19490  0.63323  0.41583  1.0000
  C   C480      1.0  0.17285  0.57703  0.61045  1.0000
  H   H458      1.0  0.01055  0.56720  0.37949  1.0000
  H   H459      1.0  0.07046  0.93736  0.33810  1.0000
  C   C481      1.0  0.00818  0.51059  0.61191  1.0000
  H   H460      1.0  0.20852  0.92483  0.62210  1.0000
  C   C482      1.0  0.17500  0.96016  0.40813  1.0000
  H   H461      1.0  0.20468  0.56593  0.37983  1.0000
  H   H462      1.0  0.17809  0.96825  0.36785  1.0000
  Fe  Fe76      1.0  0.04172  0.55620  0.64263  1.0000
  C   C483      1.0  0.17196  0.95072  0.42836  1.0000
  C   C484      1.0  0.23511  0.94741  0.53307  1.0000
  S   S154      1.0  0.00177  0.79743  0.56553  1.0000
  H   H463      1.0  0.08561  0.91508  0.36620  1.0000
  H   H464      1.0  0.12866  0.96341  0.39685  1.0000
  S   S155      1.0  0.10646  0.97867  0.45943  1.0000
  S   S156      1.0  0.09618  0.96668  0.33564  1.0000
  C   C485      1.0  0.19497  0.82147  0.55092  1.0000
  C   C486      1.0  0.21230  0.82086  0.55922  1.0000
  Fe  Fe77      1.0  0.23103  0.59515  0.46542  1.0000
  H   H465      1.0  0.23019  0.49743  0.55569  1.0000
  H   H466      1.0  0.18393  0.94788  0.43741  1.0000
  H   H467      1.0  0.13281  0.58235  0.61577  1.0000
  C   C487      1.0  0.13491  0.51392  0.63778  1.0000
  H   H468      1.0  0.16716  0.58753  0.59790  1.0000
  C   C488      1.0  0.23561  0.91337  0.58565  1.0000
  N   N39       1.0  0.16057  0.56518  0.62382  1.0000
  C   C489      1.0  0.18090  0.93734  0.61043  1.0000
  C   C490      1.0  0.07482  0.74487  0.34175  1.0000
  C   C491      1.0  0.06770  0.92182  0.34250  1.0000
  C   C492      1.0  0.99486  0.81432  0.61661  1.0000
  C   C493      1.0  0.99614  0.58137  0.49526  1.0000
  N   N40       1.0  0.18829  0.94340  0.64156  1.0000
  C   C494      1.0  0.13963  0.56644  0.62094  1.0000
  Fe  Fe78      1.0  0.23821  0.63177  0.48195  1.0000
  H   H469      1.0  0.23550  0.59434  0.54406  1.0000
  H   H470      1.0  0.07872  0.77292  0.32168  1.0000
  H   H471      1.0  0.00769  0.75872  0.36326  1.0000
  H   H472      1.0  0.18009  0.82361  0.56006  1.0000
  C   C495      1.0  0.21985  0.93861  0.52884  1.0000
  H   H473      1.0  0.15154  0.97297  0.36724  1.0000
  H   H474      1.0  0.99619  0.64789  0.45909  1.0000
  H   H475      1.0  0.10865  0.92525  0.64247  1.0000
  H   H476      1.0  0.21766  0.81519  0.50321  1.0000
  H   H477      1.0  0.19146  0.50136  0.44441  1.0000
  H   H478      1.0  0.99910  0.78602  0.48906  1.0000
  C   C496      1.0  0.24169  0.54496  0.42220  1.0000
  C   C497      1.0  0.18832  0.54912  0.64132  1.0000
  H   H479      1.0  0.23525  0.55336  0.51443  1.0000
  H   H480      1.0  0.14409  0.98831  0.46448  1.0000
  H   H481      1.0  0.15840  0.54185  0.64961  1.0000
  H   H482      1.0  0.23838  0.67364  0.50712  1.0000
  C   C498      1.0  0.10327  0.98632  0.36429  1.0000
  C   C499      1.0  0.17113  0.50217  0.63343  1.0000
  H   H483      1.0  0.99905  0.53597  0.32526  1.0000
  H   H484      1.0  0.99235  0.76187  0.50095  1.0000
  H   H485      1.0  0.99390  0.76522  0.63450  1.0000
  H   H486      1.0  0.07353  0.49200  0.35688  1.0000
  H   H487      1.0  0.99218  0.77857  0.60943  1.0000
  H   H488      1.0  0.99226  0.78076  0.51628  1.0000
  H   H489      1.0  0.17868  0.89542  0.65274  1.0000
  S   S157      1.0  0.07319  0.51545  0.67804  1.0000
  S   S158      1.0  0.02824  0.54424  0.67430  1.0000
  S   S159      1.0  0.11303  0.72366  0.95572  1.0000
  Fe  Fe79      1.0  0.00628  0.68594  0.87834  1.0000
  S   S160      1.0  0.03793  0.69265  0.86992  1.0000
  C   C500      1.0  0.02291  0.60889  0.90260  1.0000
  H   H490      1.0  0.03988  0.56574  0.90871  1.0000
  S   S161      1.0  0.02358  0.72747  0.89956  1.0000
  H   H491      1.0  0.04048  0.65103  0.90656  1.0000
  Fe  Fe80      1.0  0.02274  0.72537  0.86719  1.0000
  C   C501      1.0  0.03059  0.70979  0.81297  1.0000
  Fe  Fe81      1.0  0.03576  0.69424  0.90287  1.0000
  S   S162      1.0  0.05709  0.67688  0.92401  1.0000
  C   C502      1.0  0.10029  0.85379  0.72161  1.0000
  S   S163      1.0  0.00531  0.68474  0.91150  1.0000
  Fe  Fe82      1.0  0.01585  0.85210  0.72657  1.0000
  S   S164      1.0  0.04573  0.86311  0.71436  1.0000
  H   H492      1.0  0.02378  0.79819  0.78073  1.0000
  Fe  Fe83      1.0  0.14506  0.94754  0.75056  1.0000
  S   S165      1.0  0.15120  0.96256  0.71803  1.0000
  S   S166      1.0  0.16188  0.94533  0.77710  1.0000
  Fe  Fe84      1.0  0.10694  0.93349  0.74385  1.0000
  S   S167      1.0  0.10984  0.94780  0.71125  1.0000
  S   S168      1.0  0.08121  0.91715  0.76005  1.0000
  Fe  Fe85      1.0  0.14271  0.93497  0.70999  1.0000
  S   S169      1.0  0.16094  0.91746  0.68540  1.0000
  Fe  Fe86      1.0  0.11770  0.97399  0.72206  1.0000
  S   S170      1.0  0.13940  0.91887  0.74223  1.0000
  S   S171      1.0  0.11195  0.96081  0.75488  1.0000
  H   H493      1.0  0.22624  0.82961  0.91173  1.0000
  N   N41       1.0  0.03244  0.97287  0.74331  1.0000
  Fe  Fe87      1.0  0.05762  0.54670  0.68292  1.0000
  S   S172      1.0  0.05592  0.56013  0.71102  1.0000
  Fe  Fe88      1.0  0.04684  0.55524  0.84264  1.0000
  S   S173      1.0  0.07422  0.53105  0.84017  1.0000
  S   S174      1.0  0.05548  0.58600  0.84083  1.0000
  Fe  Fe89      1.0  0.01845  0.52443  0.84886  1.0000
  C   C503      1.0  0.20309  0.98302  0.77261  1.0000
  H   H494      1.0  0.11570  0.88692  0.74175  1.0000
  Fe  Fe90      1.0  0.05731  0.51312  0.86672  1.0000
  Fe  Fe91      1.0  0.04464  0.51392  0.66725  1.0000
  Fe  Fe92      1.0  0.05816  0.51831  0.82115  1.0000
  S   S175      1.0  0.07390  0.50460  0.79354  1.0000
  S   S176      1.0  0.03075  0.53804  0.87047  1.0000
  S   S177      1.0  0.03205  0.54402  0.82117  1.0000
  C   C504      1.0  0.05873  0.60381  0.89518  1.0000
  H   H495      1.0  0.13129  0.87853  0.67299  1.0000
  C   C505      1.0  0.06275  0.54474  0.73336  1.0000
  C   C506      1.0  0.07175  0.52438  0.73383  1.0000
  C   C507      1.0  0.07561  0.51223  0.75228  1.0000
  C   C508      1.0  0.07045  0.52039  0.77032  1.0000
  C   C509      1.0  0.06205  0.54088  0.76970  1.0000
  C   C510      1.0  0.05822  0.55300  0.75130  1.0000
  H   H496      1.0  0.07565  0.51796  0.72004  1.0000
  C   C511      1.0  0.20881  0.97833  0.79195  1.0000
  H   H497      1.0  0.05860  0.54748  0.78336  1.0000
  H   H498      1.0  0.05151  0.56880  0.75101  1.0000
  C   C512      1.0  0.18100  0.95748  0.78168  1.0000
  H   H499      1.0  0.03605  0.74971  0.77645  1.0000
  C   C513      1.0  0.14562  0.64033  0.97071  1.0000
  C   C514      1.0  0.99882  0.69867  0.81472  1.0000
  C   C515      1.0  0.20086  0.96286  0.80598  1.0000
  C   C516      1.0  0.18708  0.95251  0.80085  1.0000
  C   C517      1.0  0.19868  0.87840  0.95049  1.0000
  H   H500      1.0  0.20514  0.95901  0.82089  1.0000
  H   H501      1.0  0.18084  0.94076  0.81195  1.0000
  H   H502      1.0  0.00816  0.63829  0.90980  1.0000
  H   H503      1.0  0.00874  0.60352  0.90379  1.0000
  H   H504      1.0  0.12136  0.93048  0.67246  1.0000
  C   C518      1.0  0.05310  0.88032  0.72666  1.0000
  C   C519      1.0  0.06698  0.89280  0.71582  1.0000
  C   C520      1.0  0.07536  0.90456  0.72581  1.0000
  C   C521      1.0  0.06984  0.90393  0.74671  1.0000
  C   C522      1.0  0.05536  0.89211  0.75740  1.0000
  C   C523      1.0  0.04699  0.88033  0.74741  1.0000
  H   H505      1.0  0.07168  0.89294  0.69973  1.0000
  H   H506      1.0  0.08640  0.91370  0.71738  1.0000
  H   H507      1.0  0.05094  0.89163  0.77357  1.0000
  H   H508      1.0  0.03634  0.87073  0.75591  1.0000
  H   H509      1.0  0.01335  0.49464  0.82756  1.0000
  H   H510      1.0  0.00789  0.73476  0.77369  1.0000
  C   C524      1.0  0.14343  0.67730  0.96591  1.0000
  H   H511      1.0  0.19779  0.77039  0.97150  1.0000
  C   C525      1.0  0.09796  0.85004  0.70281  1.0000
  S   S178      1.0  0.03472  0.74871  0.84163  1.0000
  C   C526      1.0  0.00357  0.81322  0.65488  1.0000
  C   C527      1.0  0.02502  0.50217  0.77880  1.0000
  C   C528      1.0  0.01990  0.76217  0.82326  1.0000
  C   C529      1.0  0.01103  0.64126  0.85939  1.0000
  H   H512      1.0  0.22943  0.93741  0.94191  1.0000
  C   C530      1.0  0.01715  0.60680  0.85177  1.0000
  C   C531      1.0  0.03790  0.60720  0.84734  1.0000
  C   C532      1.0  0.04513  0.62468  0.84877  1.0000
  C   C533      1.0  0.03177  0.64160  0.85491  1.0000
  H   H513      1.0  0.05660  0.95000  0.73323  1.0000
  H   H514      1.0  0.01147  0.59339  0.85058  1.0000
  H   H515      1.0  0.06118  0.62504  0.84533  1.0000
  H   H516      1.0  0.03759  0.65484  0.85622  1.0000
  H   H517      1.0  0.09103  0.84721  0.73512  1.0000
  C   C534      1.0  0.07189  0.69053  0.93296  1.0000
  C   C535      1.0  0.07832  0.70803  0.92125  1.0000
  C   C536      1.0  0.09103  0.71802  0.92836  1.0000
  C   C537      1.0  0.09690  0.71089  0.94742  1.0000
  C   C538      1.0  0.09002  0.69366  0.95932  1.0000
  C   C539      1.0  0.07779  0.68336  0.95198  1.0000
  H   H518      1.0  0.07395  0.71357  0.90648  1.0000
  H   H519      1.0  0.09633  0.73132  0.91906  1.0000
  S   S179      1.0  0.04372  0.49789  0.84766  1.0000
  H   H520      1.0  0.07282  0.66982  0.96109  1.0000
  H   H521      1.0  0.00064  0.70821  0.96413  1.0000
  S   S180      1.0  0.00974  0.82430  0.71693  1.0000
  H   H522      1.0  0.01151  0.52480  0.79765  1.0000
  C   C540      1.0  0.15094  0.91343  0.66467  1.0000
  C   C541      1.0  0.02248  0.62854  0.90611  1.0000
  H   H523      1.0  0.04161  0.49420  0.72116  1.0000
  C   C542      1.0  0.20486  0.85809  0.94796  1.0000
  H   H524      1.0  0.04396  0.70909  0.81962  1.0000
  H   H525      1.0  0.16471  0.96122  0.65908  1.0000
  C   C543      1.0  0.01050  0.72406  0.78734  1.0000
  C   C544      1.0  0.03115  0.50879  0.72226  1.0000
  C   C545      1.0  0.10908  0.85910  0.68521  1.0000
  H   H526      1.0  0.00608  0.81299  0.67016  1.0000
  H   H527      1.0  0.04127  0.78241  0.81005  1.0000
  H   H528      1.0  0.15465  0.68783  0.96196  1.0000
  C   C546      1.0  0.01749  0.78673  0.79219  1.0000
  H   H529      1.0  0.00841  0.72744  0.94398  1.0000
  C   C547      1.0  0.04479  0.98721  0.73962  1.0000
  C   C548      1.0  0.11515  0.87058  0.74256  1.0000
  H   H530      1.0  0.99596  0.74439  0.83259  1.0000
  C   C549      1.0  0.01549  0.52151  0.78232  1.0000
  N   N42       1.0  0.11310  0.86649  0.72280  1.0000
  C   C550      1.0  0.20194  0.93929  0.65653  1.0000
  C   C551      1.0  0.00190  0.75631  0.82155  1.0000
  C   C552      1.0  0.01411  0.71421  0.95491  1.0000
  C   C553      1.0  0.22183  0.83179  0.92780  1.0000
  H   H531      1.0  0.02328  0.70225  0.94642  1.0000
  C   C554      1.0  0.12253  0.87154  0.68661  1.0000
  N   N43       1.0  0.21500  0.85321  0.92977  1.0000
  N   N44       1.0  0.02751  0.72295  0.79554  1.0000
  S   S181      1.0  0.23422  0.89955  0.96878  1.0000
  H   H532      1.0  0.19863  0.90954  0.93617  1.0000
  C   C555      1.0  0.17023  0.49686  0.65437  1.0000
  C   C556      1.0  0.14593  0.98974  0.80751  1.0000
  H   H533      1.0  0.05488  0.57046  0.88391  1.0000
  H   H534      1.0  0.06650  0.74447  0.96180  1.0000
  H   H535      1.0  0.14786  0.60762  0.97679  1.0000
  C   C557      1.0  0.15158  0.50035  0.66705  1.0000
  H   H536      1.0  0.10195  0.86725  0.75428  1.0000
  C   C558      1.0  0.13114  0.92170  0.66172  1.0000
  H   H537      1.0  0.00465  0.55194  0.76855  1.0000
  H   H538      1.0  0.99573  0.78336  0.66130  1.0000
  H   H539      1.0  0.09435  0.68804  0.97402  1.0000
  S   S182      1.0  0.99400  0.66205  0.86774  1.0000
  H   H540      1.0  0.04174  0.94279  0.75742  1.0000
  H   H541      1.0  0.01424  0.54420  0.73362  1.0000
  H   H542      1.0  0.12928  0.49419  0.88533  1.0000
  H   H543      1.0  0.23495  0.82556  0.93582  1.0000
  C   C559      1.0  0.04293  0.73530  0.78516  1.0000
  H   H544      1.0  0.04505  0.73406  0.94150  1.0000
  C   C560      1.0  0.03002  0.49814  0.75896  1.0000
  H   H545      1.0  0.20167  0.84621  0.96069  1.0000
  C   C561      1.0  0.05406  0.73655  0.96927  1.0000
  H   H546      1.0  0.10830  0.50037  0.82153  1.0000
  Fe  Fe93      1.0  0.99219  0.81869  0.74855  1.0000
  C   C562      1.0  0.99611  0.50618  0.66568  1.0000
  H   H547      1.0  0.05059  0.73968  0.79626  1.0000
  H   H548      1.0  0.13467  0.88510  0.70655  1.0000
  H   H549      1.0  0.03176  0.94471  0.73432  1.0000
  H   H550      1.0  0.00257  0.51980  0.66378  1.0000
  C   C563      1.0  0.00373  0.62389  0.85762  1.0000
  H   H551      1.0  0.22804  0.86439  0.89957  1.0000
  C   C564      1.0  0.21948  0.86816  0.91384  1.0000
  C   C565      1.0  0.04192  0.73059  0.95790  1.0000
  H   H552      1.0  0.20958  0.82276  0.93472  1.0000
  C   C566      1.0  0.01685  0.53219  0.74632  1.0000
  C   C567      1.0  0.01208  0.97807  0.74919  1.0000
  S   S183      1.0  0.07237  0.49949  0.89393  1.0000
  H   H553      1.0  0.07295  0.59432  0.89066  1.0000
  H   H554      1.0  0.01874  0.68700  0.83654  1.0000
  H   H555      1.0  0.01731  0.50814  0.71632  1.0000
  C   C568      1.0  0.99581  0.71210  0.79691  1.0000
  C   C569      1.0  0.18892  0.77654  0.98453  1.0000
  S   S184      1.0  0.22535  0.97513  0.85949  1.0000
  H   H556      1.0  0.15969  0.98858  0.81436  1.0000
  C   C570      1.0  0.00016  0.78000  0.78986  1.0000
  H   H557      1.0  0.15074  0.49625  0.68329  1.0000
  S   S185      1.0  0.00036  0.84508  0.75880  1.0000
  C   C571      1.0  0.04095  0.57615  0.89399  1.0000
  C   C572      1.0  0.02739  0.77773  0.80878  1.0000
  H   H558      1.0  0.00233  0.96664  0.75240  1.0000
  H   H559      1.0  0.24034  0.94684  0.90497  1.0000
  N   N45       1.0  0.02595  0.51309  0.74303  1.0000
  H   H560      1.0  0.12914  0.86137  0.74751  1.0000
  S   S186      1.0  0.21554  0.80354  0.97669  1.0000
  C   C573      1.0  0.21329  0.88862  0.91577  1.0000
  N   N46       1.0  0.02643  0.72036  0.96727  1.0000
  C   C574      1.0  0.12437  0.87513  0.70564  1.0000
  H   H561      1.0  0.13095  0.68325  0.97727  1.0000
  H   H562      1.0  0.02810  0.57571  0.88640  1.0000
  H   H563      1.0  0.08234  0.49644  0.75263  1.0000
  N   N47       1.0  0.15252  0.65675  0.97408  1.0000
  C   C575      1.0  0.20286  0.89372  0.93425  1.0000
  C   C576      1.0  0.99216  0.76511  0.80483  1.0000
  N   N48       1.0  0.04088  0.59687  0.89708  1.0000
  H   H564      1.0  0.10710  0.85669  0.67050  1.0000
  H   H565      1.0  0.19112  0.88226  0.96508  1.0000
  C   C577      1.0  0.18930  0.97264  0.76746  1.0000
  H   H566      1.0  0.08702  0.84078  0.70191  1.0000
  H   H567      1.0  0.03891  0.52087  0.71241  1.0000
  H   H568      1.0  0.05432  0.72671  0.77468  1.0000
  H   H569      1.0  0.07295  0.62905  0.89694  1.0000
  H   H570      1.0  0.06100  0.98315  0.73521  1.0000
  H   H571      1.0  0.18487  0.97658  0.75263  1.0000
  C   C578      1.0  0.23857  0.92612  0.93332  1.0000
  C   C579      1.0  0.04059  0.63577  0.90411  1.0000
  H   H572      1.0  0.13725  0.67765  0.95189  1.0000
  C   C580      1.0  0.01147  0.53669  0.76600  1.0000
  H   H573      1.0  0.13358  0.64242  0.96185  1.0000
  C   C581      1.0  0.05885  0.62338  0.89864  1.0000
  C   C582      1.0  0.01634  0.69742  0.82274  1.0000
  H   H574      1.0  0.21714  0.90047  0.90323  1.0000
  C   C583      1.0  0.04103  0.95161  0.74197  1.0000
  Fe  Fe94      1.0  0.24080  0.86680  0.98326  1.0000
  H   H575      1.0  0.10964  0.50522  0.85725  1.0000
  Fe  Fe95      1.0  0.23880  0.98654  0.82738  1.0000
  H   H576      1.0  0.11957  0.51146  0.66862  1.0000
  H   H577      1.0  0.19702  0.94956  0.66802  1.0000
  H   H578      1.0  0.14356  0.97388  0.80817  1.0000
  H   H579      1.0  0.20215  0.92345  0.66467  1.0000
  C   C584      1.0  0.13392  0.50895  0.65877  1.0000
  H   H580      1.0  0.12892  0.98424  0.77749  1.0000
  C   C585      1.0  0.15371  0.62063  0.97897  1.0000
  Fe  Fe96      1.0  0.99314  0.71782  0.90601  1.0000
  C   C586      1.0  0.16692  0.65418  0.98616  1.0000
  H   H581      1.0  0.19429  0.53776  0.65316  1.0000
  S   S187      1.0  0.43025  0.45690  0.25175  1.0000
  Fe  Fe97      1.0  0.47920  0.34997  0.24087  1.0000
  H   H582      1.0  0.46098  0.22351  0.09263  1.0000
  S   S188      1.0  0.44679  0.36231  0.25191  1.0000
  H   H583      1.0  0.48702  0.25125  0.29738  1.0000
  C   C587      1.0  0.34980  0.48599  0.15774  1.0000
  C   C588      1.0  0.47550  0.09278  0.11354  1.0000
  Fe  Fe98      1.0  0.24899  0.07569  0.00785  1.0000
  N   N49       1.0  0.47887  0.31771  0.31016  1.0000
  S   S189      1.0  0.48843  0.31621  0.24288  1.0000
  C   C589      1.0  0.41362  0.02460  0.17834  1.0000
  S   S190      1.0  0.49074  0.26394  0.06330  1.0000
  C   C590      1.0  0.32059  0.48260  0.03010  1.0000
  C   C591      1.0  0.39255  0.00519  0.16912  1.0000
  H   H584      1.0  0.47352  0.39115  0.24920  1.0000
  Fe  Fe99      1.0  0.43543  0.29358  0.11373  1.0000
  S   S191      1.0  0.40710  0.28308  0.11074  1.0000
  S   S192      1.0  0.43545  0.31399  0.13634  1.0000
  Fe  Fe100     1.0  0.45943  0.27528  0.07793  1.0000
  S   S193      1.0  0.43333  0.26419  0.07104  1.0000
  H   H585      1.0  0.45341  0.14123  0.08726  1.0000
  Fe  Fe101     1.0  0.41510  0.29397  0.07743  1.0000
  S   S194      1.0  0.38756  0.30541  0.06206  1.0000
  Fe  Fe102     1.0  0.42678  0.25378  0.10436  1.0000
  S   S195      1.0  0.41819  0.22258  0.11643  1.0000
  S   S196      1.0  0.44223  0.30665  0.08067  1.0000
  S   S197      1.0  0.45422  0.26305  0.11109  1.0000
  Fe  Fe103     1.0  0.37752  0.10436  0.06398  1.0000
  S   S198      1.0  0.38332  0.12018  0.08797  1.0000
  S   S199      1.0  0.34642  0.09733  0.06427  1.0000
  Fe  Fe104     1.0  0.42176  0.09785  0.04502  1.0000
  S   S200      1.0  0.43127  0.11327  0.06688  1.0000
  S   S201      1.0  0.44525  0.08343  0.02196  1.0000
  Fe  Fe105     1.0  0.41064  0.09581  0.09037  1.0000
  S   S202      1.0  0.42052  0.07671  0.11891  1.0000
  Fe  Fe106     1.0  0.40354  0.13622  0.06248  1.0000
  S   S203      1.0  0.40589  0.16951  0.05442  1.0000
  S   S204      1.0  0.40309  0.07865  0.06870  1.0000
  S   S205      1.0  0.39575  0.12226  0.03827  1.0000
  C   C592      1.0  0.41508  0.20746  0.09929  1.0000
  C   C593      1.0  0.41832  0.21422  0.07845  1.0000
  C   C594      1.0  0.41585  0.20217  0.06497  1.0000
  C   C595      1.0  0.41009  0.18314  0.07215  1.0000
  C   C596      1.0  0.40695  0.17608  0.09299  1.0000
  C   C597      1.0  0.40940  0.18829  0.10655  1.0000
  H   H586      1.0  0.42257  0.22877  0.07255  1.0000
  H   H587      1.0  0.41822  0.20772  0.04887  1.0000
  H   H588      1.0  0.40235  0.16142  0.09865  1.0000
  H   H589      1.0  0.40687  0.18287  0.12268  1.0000
  H   H590      1.0  0.27432  0.06120  0.05983  1.0000
  C   C598      1.0  0.36962  0.21753  0.05213  1.0000
  C   C599      1.0  0.48042  0.09267  0.99856  1.0000
  H   H591      1.0  0.40240  0.35251  0.08215  1.0000
  S   S206      1.0  0.32360  0.40303  0.99024  1.0000
  H   H592      1.0  0.46778  0.00405  0.11570  1.0000
  H   H593      1.0  0.48333  0.04842  0.14606  1.0000
  C   C600      1.0  0.48761  0.29577  0.03183  1.0000
  H   H594      1.0  0.39016  0.05171  0.13959  1.0000
  C   C601      1.0  0.46289  0.09957  0.01138  1.0000
  C   C602      1.0  0.45907  0.11962  0.01490  1.0000
  H   H595      1.0  0.33764  0.38485  0.03476  1.0000
  H   H596      1.0  0.44532  0.12520  0.02434  1.0000
  C   C603      1.0  0.38442  0.35990  0.01101  1.0000
  C   C604      1.0  0.40228  0.35286  0.01924  1.0000
  C   C605      1.0  0.40372  0.33569  0.03443  1.0000
  C   C606      1.0  0.38721  0.32556  0.04152  1.0000
  C   C607      1.0  0.36952  0.33227  0.03292  1.0000
  C   C608      1.0  0.36812  0.34939  0.01765  1.0000
  H   H597      1.0  0.41496  0.36092  0.01408  1.0000
  H   H598      1.0  0.41743  0.33057  0.04090  1.0000
  H   H599      1.0  0.35673  0.32441  0.03832  1.0000
  H   H600      1.0  0.35433  0.35468  0.01132  1.0000
  H   H601      1.0  0.35690  0.47088  0.15508  1.0000
  C   C609      1.0  0.33586  0.44926  0.01008  1.0000
  C   C610      1.0  0.34409  0.45142  0.02671  1.0000
  S   S207      1.0  0.28035  0.06355  0.99379  1.0000
  H   H602      1.0  0.35660  0.44039  0.03157  1.0000
  H   H603      1.0  0.35384  0.48940  0.99002  1.0000
  C   C611      1.0  0.47552  0.06095  0.13663  1.0000
  C   C612      1.0  0.45543  0.06112  0.13462  1.0000
  C   C613      1.0  0.44536  0.07713  0.12205  1.0000
  C   C614      1.0  0.45538  0.09306  0.11177  1.0000
  H   H604      1.0  0.48600  0.32070  0.00697  1.0000
  H   H605      1.0  0.46715  0.22530  0.06579  1.0000
  H   H606      1.0  0.44792  0.04859  0.14243  1.0000
  H   H607      1.0  0.44755  0.10572  0.10262  1.0000
  H   H608      1.0  0.46005  0.16206  0.05330  1.0000
  C   C615      1.0  0.32198  0.10376  0.00484  1.0000
  C   C616      1.0  0.31065  0.09673  0.02335  1.0000
  C   C617      1.0  0.31833  0.09478  0.04147  1.0000
  C   C618      1.0  0.33741  0.09969  0.04119  1.0000
  C   C619      1.0  0.34880  0.10647  0.02264  1.0000
  C   C620      1.0  0.34107  0.10857  0.00455  1.0000
  H   H609      1.0  0.29587  0.09311  0.02373  1.0000
  H   H610      1.0  0.30940  0.08966  0.05577  1.0000
  H   H611      1.0  0.36349  0.11024  0.02224  1.0000
  H   H612      1.0  0.47291  0.30108  0.03993  1.0000
  H   H613      1.0  0.44929  0.03145  0.09340  1.0000
  C   C621      1.0  0.24564  0.00508  0.03692  1.0000
  C   C622      1.0  0.47025  0.29369  0.15108  1.0000
  C   C623      1.0  0.45406  0.30978  0.15213  1.0000
  C   C624      1.0  0.45326  0.32371  0.16512  1.0000
  C   C625      1.0  0.46879  0.32198  0.17652  1.0000
  H   H614      1.0  0.27501  0.42805  0.29285  1.0000
  H   H615      1.0  0.47098  0.28280  0.14126  1.0000
  H   H616      1.0  0.44074  0.33613  0.16608  1.0000
  H   H617      1.0  0.46824  0.33305  0.18612  1.0000
  C   C626      1.0  0.44213  0.38827  0.25362  1.0000
  C   C627      1.0  0.42219  0.39857  0.25640  1.0000
  C   C628      1.0  0.41828  0.41963  0.25632  1.0000
  C   C629      1.0  0.43432  0.43035  0.25372  1.0000
  C   C630      1.0  0.45420  0.41990  0.25163  1.0000
  C   C631      1.0  0.45812  0.39895  0.25139  1.0000
  H   H618      1.0  0.40978  0.39032  0.25824  1.0000
  H   H619      1.0  0.40292  0.42755  0.25819  1.0000
  H   H620      1.0  0.46664  0.42815  0.24966  1.0000
  H   H621      1.0  0.40419  0.99300  0.21170  1.0000
  C   C632      1.0  0.47269  0.13283  0.00551  1.0000
  C   C633      1.0  0.28559  0.04859  0.05415  1.0000
  H   H622      1.0  0.44477  0.32253  0.27891  1.0000
  H   H623      1.0  0.27445  0.41333  0.99338  1.0000
  H   H624      1.0  0.26113  0.45315  0.29566  1.0000
  C   C634      1.0  0.45728  0.15621  0.08581  1.0000
  C   C635      1.0  0.36723  0.22350  0.08629  1.0000
  H   H625      1.0  0.46950  0.14844  0.00798  1.0000
  C   C636      1.0  0.40782  0.04102  0.16363  1.0000
  H   H626      1.0  0.45480  0.15520  0.11794  1.0000
  N   N50       1.0  0.46582  0.19519  0.08213  1.0000
  H   H627      1.0  0.28185  0.04735  0.03933  1.0000
  H   H628      1.0  0.43902  0.28934  0.30009  1.0000
  C   C637      1.0  0.38670  0.02119  0.15405  1.0000
  C   C638      1.0  0.36554  0.21093  0.07294  1.0000
  H   H629      1.0  0.36914  0.20752  0.04168  1.0000
  N   N51       1.0  0.28087  0.44026  0.31704  1.0000
  C   C639      1.0  0.44993  0.29750  0.30316  1.0000
  C   C640      1.0  0.46213  0.06473  0.07188  1.0000
  C   C641      1.0  0.46089  0.28942  0.31895  1.0000
  S   S208      1.0  0.38249  0.38292  0.99394  1.0000
  C   C642      1.0  0.31031  0.48902  0.30328  1.0000
  H   H630      1.0  0.45839  0.01017  0.15616  1.0000
  H   H631      1.0  0.37641  0.01955  0.14442  1.0000
  C   C643      1.0  0.33657  0.46817  0.03664  1.0000
  C   C644      1.0  0.27589  0.44295  0.29663  1.0000
  H   H632      1.0  0.34199  0.43653  0.00221  1.0000
  N   N52       1.0  0.28459  0.02967  0.06860  1.0000
  C   C645      1.0  0.24438  0.02620  0.03165  1.0000
  H   H633      1.0  0.48658  0.21501  0.08116  1.0000
  H   H634      1.0  0.34307  0.36221  0.06666  1.0000
  H   H635      1.0  0.36195  0.19580  0.07863  1.0000
  S   S209      1.0  0.37019  0.46324  0.25119  1.0000
  N   N53       1.0  0.37286  0.24212  0.07907  1.0000
  C   C646      1.0  0.37452  0.25514  0.09323  1.0000
  H   H636      1.0  0.37820  0.24196  0.02876  1.0000
  C   C647      1.0  0.39442  0.03920  0.15132  1.0000
  H   H637      1.0  0.48327  0.10502  0.10530  1.0000
  C   C648      1.0  0.45802  0.16408  0.10302  1.0000
  H   H638      1.0  0.37874  0.24602  0.10763  1.0000
  N   N54       1.0  0.42154  0.42766  0.20630  1.0000
  C   C649      1.0  0.43559  0.44003  0.20426  1.0000
  C   C650      1.0  0.42747  0.40739  0.20561  1.0000
  C   C651      1.0  0.45621  0.43208  0.20172  1.0000
  C   C652      1.0  0.44795  0.39893  0.20310  1.0000
  C   C653      1.0  0.46240  0.41138  0.20118  1.0000
  C   C654      1.0  0.39995  0.43602  0.20906  1.0000
  H   H639      1.0  0.43091  0.45601  0.20535  1.0000
  H   H640      1.0  0.41632  0.39751  0.20762  1.0000
  H   H641      1.0  0.46725  0.44179  0.20091  1.0000
  H   H642      1.0  0.45250  0.38270  0.20342  1.0000
  H   H643      1.0  0.47832  0.40491  0.19988  1.0000
  H   H644      1.0  0.39366  0.43645  0.19511  1.0000
  H   H645      1.0  0.39159  0.42677  0.22200  1.0000
  H   H646      1.0  0.39708  0.45174  0.21242  1.0000
  N   N55       1.0  0.36214  0.38330  0.05044  1.0000
  C   C655      1.0  0.38064  0.38915  0.04774  1.0000
  C   C656      1.0  0.35765  0.36698  0.06465  1.0000
  C   C657      1.0  0.39535  0.37828  0.05920  1.0000
  C   C658      1.0  0.37202  0.35573  0.07632  1.0000
  C   C659      1.0  0.39099  0.36143  0.07352  1.0000
  H   H647      1.0  0.44592  0.06796  0.07853  1.0000
  H   H648      1.0  0.38430  0.40191  0.03625  1.0000
  C   C660      1.0  0.24465  0.41042  0.98957  1.0000
  C   C661      1.0  0.28334  0.01198  0.10282  1.0000
  H   H649      1.0  0.36872  0.34228  0.08698  1.0000
  C   C662      1.0  0.46773  0.32606  0.29506  1.0000
  N   N56       1.0  0.40606  0.00694  0.18084  1.0000
  C   C663      1.0  0.32001  0.46378  0.00342  1.0000
  H   H650      1.0  0.35384  0.40294  0.02385  1.0000
  C   C664      1.0  0.37493  0.23672  0.04491  1.0000
  C   C665      1.0  0.31234  0.48041  0.01349  1.0000
  H   H651      1.0  0.24818  0.03297  0.01599  1.0000
  H   H652      1.0  0.46826  0.19648  0.05026  1.0000
  H   H653      1.0  0.36002  0.26546  0.09649  1.0000
  C   C666      1.0  0.48565  0.07670  0.12588  1.0000
  C   C667      1.0  0.28406  0.99376  0.07566  1.0000
  H   H654      1.0  0.28511  0.01171  0.04604  1.0000
  H   H655      1.0  0.47673  0.34860  0.12739  1.0000
  C   C668      1.0  0.47480  0.01704  0.10792  1.0000
  C   C669      1.0  0.46232  0.18373  0.10089  1.0000
  H   H656      1.0  0.46227  0.18999  0.11437  1.0000
  H   H657      1.0  0.30094  0.05265  0.05161  1.0000
  H   H658      1.0  0.42437  0.02598  0.18757  1.0000
  Fe  Fe107     1.0  0.36614  0.48538  0.22250  1.0000
  S   S210      1.0  0.35998  0.47393  0.19571  1.0000
  H   H659      1.0  0.28279  0.01210  0.11880  1.0000
  C   C670      1.0  0.37635  0.24897  0.05869  1.0000
  S   S211      1.0  0.25257  0.10856  0.99936  1.0000
  C   C671      1.0  0.46555  0.18742  0.06514  1.0000
  N   N57       1.0  0.47307  0.04907  0.08560  1.0000
  C   C672      1.0  0.46108  0.16790  0.06672  1.0000
  H   H660      1.0  0.41017  0.38262  0.05662  1.0000
  H   H661      1.0  0.33675  0.40648  0.04708  1.0000
  H   H662      1.0  0.34989  0.11405  0.99031  1.0000
  C   C673      1.0  0.26818  0.48984  0.31294  1.0000
  S   S212      1.0  0.33686  0.48665  0.29825  1.0000
  H   H663      1.0  0.36465  0.21800  0.10244  1.0000
  H   H664      1.0  0.38653  0.26449  0.08672  1.0000
  C   C674      1.0  0.47041  0.21569  0.08031  1.0000
  C   C675      1.0  0.28482  0.01189  0.06195  1.0000
  H   H665      1.0  0.38058  0.26388  0.05302  1.0000
  Fe  Fe108     1.0  0.39929  0.47469  0.24852  1.0000
  H   H666      1.0  0.31207  0.44212  0.30666  1.0000
  C   C676      1.0  0.48532  0.30630  0.17495  1.0000
  C   C677      1.0  0.48815  0.99549  0.16167  1.0000
  H   H667      1.0  0.48339  0.07716  0.99583  1.0000
  H   H668      1.0  0.28729  0.45021  0.28509  1.0000
  C   C678      1.0  0.28327  0.99386  0.09622  1.0000
  C   C679      1.0  0.34678  0.39500  0.03855  1.0000
  C   C680      1.0  0.46442  0.03255  0.09527  1.0000
  C   C681      1.0  0.28406  0.02986  0.08871  1.0000
  H   H669      1.0  0.28410  0.04393  0.09391  1.0000
  H   H670      1.0  0.37432  0.47917  0.01758  1.0000
  H   H671      1.0  0.47015  0.34046  0.28570  1.0000
  C   C682      1.0  0.48582  0.29202  0.16241  1.0000
  C   C683      1.0  0.48897  0.33647  0.12371  1.0000
  C   C684      1.0  0.46854  0.99587  0.15813  1.0000
  H   H672      1.0  0.41386  0.05503  0.16154  1.0000
  S   S213      1.0  0.34842  0.47172  0.05605  1.0000
  C   C685      1.0  0.45322  0.31602  0.29123  1.0000
  H   H673      1.0  0.46807  0.07925  0.06910  1.0000
  H   H674      1.0  0.38659  0.99122  0.17101  1.0000
  H   H675      1.0  0.24817  0.48788  0.09502  1.0000
  H   H676      1.0  0.49058  0.30310  0.08095  1.0000
  C   C686      1.0  0.48995  0.12610  0.99229  1.0000
  H   H677      1.0  0.47386  0.32698  0.10325  1.0000
  H   H678      1.0  0.46335  0.05960  0.05713  1.0000
  H   H679      1.0  0.25051  0.99562  0.02528  1.0000
  H   H680      1.0  0.46864  0.00328  0.29500  1.0000
  S   S214      1.0  0.24226  0.48792  0.31845  1.0000
  Fe  Fe109     1.0  0.35594  0.48990  0.26696  1.0000
  H   H681      1.0  0.24478  0.39574  0.99924  1.0000
  C   C687      1.0  0.48744  0.32415  0.11005  1.0000
  C   C688      1.0  0.30032  0.43973  0.31964  1.0000
  Fe  Fe110     1.0  0.48614  0.18953  0.40598  1.0000
  H   H682      1.0  0.34876  0.00703  0.35570  1.0000
  H   H683      1.0  0.46623  0.16455  0.59909  1.0000
  S   S215      1.0  0.28020  0.31578  0.51991  1.0000
  C   C689      1.0  0.30522  0.43690  0.33910  1.0000
  C   C690      1.0  0.33356  0.00988  0.36399  1.0000
  C   C691      1.0  0.29685  0.37343  0.53799  1.0000
  H   H684      1.0  0.32598  0.11261  0.53672  1.0000
  H   H685      1.0  0.42204  0.09602  0.61563  1.0000
  C   C692      1.0  0.30820  0.05755  0.52026  1.0000
  Fe  Fe111     1.0  0.33431  0.20250  0.53240  1.0000
  S   S216      1.0  0.34087  0.17052  0.54895  1.0000
  S   S217      1.0  0.30250  0.21954  0.53934  1.0000
  Fe  Fe112     1.0  0.37700  0.20071  0.50987  1.0000
  S   S218      1.0  0.38711  0.16898  0.52469  1.0000
  S   S219      1.0  0.39771  0.21903  0.48713  1.0000
  Fe  Fe113     1.0  0.35771  0.16280  0.51905  1.0000
  S   S220      1.0  0.35988  0.13248  0.50886  1.0000
  Fe  Fe114     1.0  0.36960  0.17919  0.55324  1.0000
  S   S221      1.0  0.38013  0.16821  0.58363  1.0000
  S   S222      1.0  0.34880  0.19401  0.50203  1.0000
  S   S223      1.0  0.36181  0.21173  0.53900  1.0000
  S   S224      1.0  0.47541  0.22252  0.64313  1.0000
  Fe  Fe115     1.0  0.45218  0.20595  0.63740  1.0000
  S   S225      1.0  0.43654  0.21844  0.61017  1.0000
  S   S226      1.0  0.47252  0.17580  0.63892  1.0000
  Fe  Fe116     1.0  0.30564  0.07889  0.44897  1.0000
  S   S227      1.0  0.31104  0.06937  0.41834  1.0000
  S   S228      1.0  0.30468  0.11116  0.45367  1.0000
  Fe  Fe117     1.0  0.29527  0.03806  0.47027  1.0000
  S   S229      1.0  0.29954  0.02493  0.44176  1.0000
  H   H686      1.0  0.33701  0.05064  0.38255  1.0000
  Fe  Fe118     1.0  0.32715  0.03979  0.43308  1.0000
  S   S230      1.0  0.35687  0.02506  0.41680  1.0000
  Fe  Fe119     1.0  0.28311  0.05516  0.42927  1.0000
  H   H687      1.0  0.35627  0.03520  0.36831  1.0000
  S   S231      1.0  0.32428  0.05062  0.46288  1.0000
  S   S232      1.0  0.27623  0.06705  0.45861  1.0000
  H   H688      1.0  0.32927  0.99595  0.42338  1.0000
  H   H689      1.0  0.37880  0.23810  0.59116  1.0000
  H   H690      1.0  0.40223  0.11768  0.61628  1.0000
  S   S233      1.0  0.24495  0.36537  0.52992  1.0000
  H   H691      1.0  0.39976  0.15933  0.42915  1.0000
  H   H692      1.0  0.31031  0.20537  0.57976  1.0000
  C   C693      1.0  0.29493  0.01633  0.38584  1.0000
  C   C694      1.0  0.27641  0.33042  0.57395  1.0000
  C   C695      1.0  0.40450  0.20905  0.41981  1.0000
  C   C696      1.0  0.37028  0.16757  0.45978  1.0000
  C   C697      1.0  0.37482  0.99635  0.39298  1.0000
  H   H693      1.0  0.36143  0.24457  0.61348  1.0000
  H   H694      1.0  0.38717  0.23133  0.43770  1.0000
  H   H695      1.0  0.34617  0.09236  0.53150  1.0000
  Fe  Fe120     1.0  0.24902  0.46908  0.60777  1.0000
  C   C698      1.0  0.29013  0.43432  0.35591  1.0000
  C   C699      1.0  0.39593  0.18215  0.59082  1.0000
  C   C700      1.0  0.40320  0.19843  0.57752  1.0000
  C   C701      1.0  0.41581  0.20931  0.58361  1.0000
  C   C702      1.0  0.42132  0.20392  0.60295  1.0000
  C   C703      1.0  0.41413  0.18756  0.61624  1.0000
  C   C704      1.0  0.40134  0.17679  0.61022  1.0000
  H   H696      1.0  0.39916  0.20262  0.56251  1.0000
  H   H697      1.0  0.42135  0.22196  0.57328  1.0000
  H   H698      1.0  0.41828  0.18336  0.63120  1.0000
  H   H699      1.0  0.39579  0.16417  0.62057  1.0000
  C   C705      1.0  0.32093  0.11732  0.46793  1.0000
  C   C706      1.0  0.33700  0.10310  0.47448  1.0000
  C   C707      1.0  0.34909  0.10820  0.48660  1.0000
  C   C708      1.0  0.34511  0.12745  0.49245  1.0000
  C   C709      1.0  0.32916  0.14177  0.48576  1.0000
  C   C710      1.0  0.31719  0.13673  0.47344  1.0000
  H   H700      1.0  0.34008  0.08816  0.47026  1.0000
  H   H701      1.0  0.36148  0.09709  0.49163  1.0000
  H   H702      1.0  0.32585  0.15659  0.49031  1.0000
  H   H703      1.0  0.30474  0.14780  0.46844  1.0000
  C   C711      1.0  0.44547  0.18544  0.44324  1.0000
  C   C712      1.0  0.43212  0.17476  0.45765  1.0000
  C   C713      1.0  0.41797  0.18475  0.47181  1.0000
  C   C714      1.0  0.41706  0.20550  0.47154  1.0000
  C   C715      1.0  0.43085  0.21601  0.45756  1.0000
  C   C716      1.0  0.44510  0.20599  0.44349  1.0000
  H   H704      1.0  0.43241  0.15883  0.45756  1.0000
  H   H705      1.0  0.40740  0.17654  0.48250  1.0000
  H   H706      1.0  0.43020  0.23207  0.45731  1.0000
  H   H707      1.0  0.45533  0.21434  0.43244  1.0000
  C   C717      1.0  0.28615  0.28901  0.52531  1.0000
  C   C718      1.0  0.27143  0.27712  0.53486  1.0000
  C   C719      1.0  0.27665  0.25585  0.53894  1.0000
  C   C720      1.0  0.29658  0.24629  0.53352  1.0000
  C   C721      1.0  0.31136  0.25818  0.52413  1.0000
  C   C722      1.0  0.30613  0.27946  0.52004  1.0000
  H   H708      1.0  0.28543  0.06336  0.50114  1.0000
  H   H709      1.0  0.26514  0.24676  0.54624  1.0000
  H   H710      1.0  0.32676  0.25098  0.51989  1.0000
  H   H711      1.0  0.31759  0.28854  0.51259  1.0000
  H   H712      1.0  0.37011  0.15383  0.45332  1.0000
  C   C723      1.0  0.30399  0.09934  0.51696  1.0000
  H   H713      1.0  0.41324  0.10891  0.59261  1.0000
  S   S234      1.0  0.24854  0.45672  0.57954  1.0000
  H   H714      1.0  0.25599  0.28427  0.53898  1.0000
  H   H715      1.0  0.25866  0.43251  0.36610  1.0000
  H   H716      1.0  0.30229  0.04457  0.38918  1.0000
  H   H717      1.0  0.26117  0.33197  0.58344  1.0000
  C   C724      1.0  0.33002  0.09579  0.53835  1.0000
  S   S235      1.0  0.46099  0.17331  0.42390  1.0000
  H   H718      1.0  0.28212  0.10087  0.49748  1.0000
  S   S236      1.0  0.28433  0.02106  0.50070  1.0000
  H   H719      1.0  0.37725  0.16269  0.47375  1.0000
  C   C725      1.0  0.26604  0.43756  0.33344  1.0000
  H   H720      1.0  0.35428  0.17453  0.46397  1.0000
  N   N58       1.0  0.31751  0.08702  0.52825  1.0000
  H   H721      1.0  0.28763  0.32133  0.58329  1.0000
  S   S237      1.0  0.47668  0.01386  0.36744  1.0000
  H   H722      1.0  0.41401  0.21940  0.41036  1.0000
  S   S238      1.0  0.26060  0.05787  0.40829  1.0000
  H   H723      1.0  0.27896  0.39619  0.57952  1.0000
  C   C726      1.0  0.28284  0.38443  0.57006  1.0000
  H   H724      1.0  0.40047  0.13335  0.65133  1.0000
  H   H725      1.0  0.26111  0.40242  0.44139  1.0000
  H   H726      1.0  0.48420  0.29313  0.33424  1.0000
  H   H727      1.0  0.27244  0.48581  0.34397  1.0000
  H   H728      1.0  0.32822  0.08959  0.55477  1.0000
  H   H729      1.0  0.24856  0.46198  0.43554  1.0000
  H   H730      1.0  0.47971  0.14386  0.39265  1.0000
  N   N59       1.0  0.35221  0.22472  0.59785  1.0000
  C   C727      1.0  0.34089  0.23738  0.58456  1.0000
  C   C728      1.0  0.34856  0.20535  0.60501  1.0000
  C   C729      1.0  0.32549  0.23070  0.57809  1.0000
  C   C730      1.0  0.33355  0.19806  0.59853  1.0000
  C   C731      1.0  0.32190  0.21087  0.58505  1.0000
  C   C732      1.0  0.36812  0.23225  0.60449  1.0000
  H   H731      1.0  0.34386  0.25268  0.57873  1.0000
  H   H732      1.0  0.35764  0.19515  0.61534  1.0000
  H   H733      1.0  0.31663  0.24067  0.56740  1.0000
  H   H734      1.0  0.33132  0.18241  0.60358  1.0000
  C   C733      1.0  0.38942  0.21577  0.43508  1.0000
  H   H735      1.0  0.37718  0.22009  0.61400  1.0000
  H   H736      1.0  0.48050  0.13064  0.36102  1.0000
  N   N60       1.0  0.43132  0.12490  0.60414  1.0000
  C   C734      1.0  0.43123  0.14073  0.58836  1.0000
  C   C735      1.0  0.44410  0.12272  0.61785  1.0000
  C   C736      1.0  0.44408  0.15497  0.58608  1.0000
  C   C737      1.0  0.45691  0.13686  0.61622  1.0000
  C   C738      1.0  0.45680  0.15314  0.60025  1.0000
  C   C739      1.0  0.41654  0.11119  0.60725  1.0000
  H   H737      1.0  0.42067  0.14284  0.57782  1.0000
  H   H738      1.0  0.44414  0.11024  0.63043  1.0000
  H   H739      1.0  0.44347  0.16788  0.57392  1.0000
  H   H740      1.0  0.46651  0.13540  0.62754  1.0000
  H   H741      1.0  0.30415  0.37646  0.52238  1.0000
  H   H742      1.0  0.30251  0.11572  0.51517  1.0000
  S   S239      1.0  0.36894  0.00783  0.64539  1.0000
  H   H743      1.0  0.36698  0.20720  0.46019  1.0000
  H   H744      1.0  0.29577  0.40369  0.54386  1.0000
  C   C740      1.0  0.40800  0.18870  0.41747  1.0000
  H   H745      1.0  0.29540  0.34254  0.53667  1.0000
  C   C741      1.0  0.27787  0.36512  0.57767  1.0000
  H   H746      1.0  0.24770  0.03774  0.44873  1.0000
  C   C742      1.0  0.29221  0.38864  0.55003  1.0000
  H   H747      1.0  0.46656  0.11150  0.37661  1.0000
  H   H748      1.0  0.27013  0.36210  0.59313  1.0000
  H   H749      1.0  0.42032  0.18319  0.40623  1.0000
  S   S240      1.0  0.24362  0.45567  0.64069  1.0000
  H   H750      1.0  0.48702  0.33918  0.32455  1.0000
  H   H751      1.0  0.25061  0.43813  0.33136  1.0000
  C   C743      1.0  0.30313  0.00178  0.50950  1.0000
  H   H752      1.0  0.34546  0.99645  0.62035  1.0000
  C   C744      1.0  0.30172  0.99845  0.37771  1.0000
  H   H753      1.0  0.30942  0.48535  0.33552  1.0000
  C   C745      1.0  0.29177  0.35425  0.54615  1.0000
  C   C746      1.0  0.39639  0.17527  0.43057  1.0000
  N   N61       1.0  0.28196  0.35047  0.56561  1.0000
  C   C747      1.0  0.31978  0.06637  0.52990  1.0000
  H   H754      1.0  0.30996  0.04116  0.52154  1.0000
  C   C748      1.0  0.27045  0.43453  0.35310  1.0000
  H   H755      1.0  0.36986  0.99303  0.45072  1.0000
  H   H756      1.0  0.29357  0.43227  0.37113  1.0000
  C   C749      1.0  0.48184  0.11522  0.37025  1.0000
  H   H757      1.0  0.38983  0.99788  0.59258  1.0000
  C   C750      1.0  0.34013  0.04241  0.36942  1.0000
  N   N62       1.0  0.38154  0.18201  0.44543  1.0000
  C   C751      1.0  0.37807  0.20195  0.44787  1.0000
  C   C752      1.0  0.29233  0.09104  0.50697  1.0000
  H   H758      1.0  0.33063  0.05660  0.53867  1.0000
  S   S241      1.0  0.24557  0.43176  0.40920  1.0000
  H   H759      1.0  0.45881  0.27480  0.32811  1.0000
  C   C753      1.0  0.35789  0.00279  0.40683  1.0000
  C   C754      1.0  0.32286  0.99982  0.49890  1.0000
  H   H760      1.0  0.27984  0.01911  0.39446  1.0000
  H   H761      1.0  0.27565  0.32197  0.56177  1.0000
  S   S242      1.0  0.41365  0.03314  0.64981  1.0000
  N   N63       1.0  0.32694  0.02716  0.37241  1.0000
  C   C755      1.0  0.29439  0.07001  0.50877  1.0000
  C   C756      1.0  0.30776  0.03067  0.38290  1.0000
  Fe  Fe121     1.0  0.26752  0.47291  0.64395  1.0000
  H   H762      1.0  0.48967  0.10447  0.35973  1.0000
  H   H763      1.0  0.33786  0.05350  0.35548  1.0000
  S   S243      1.0  0.27451  0.48416  0.61048  1.0000
  Fe  Fe122     1.0  0.24832  0.33194  0.52872  1.0000
  C   C757      1.0  0.30062  0.48739  0.32349  1.0000
  H   H764      1.0  0.32658  0.00990  0.48495  1.0000
  S   S244      1.0  0.49177  0.23151  0.33756  1.0000
  H   H765      1.0  0.24436  0.38719  0.47511  1.0000
  C   C758      1.0  0.27965  0.48768  0.32833  1.0000
  H   H766      1.0  0.44158  0.99841  0.36488  1.0000
  C   C759      1.0  0.24488  0.40588  0.44554  1.0000
  C   C760      1.0  0.47534  0.29984  0.32230  1.0000
  C   C761      1.0  0.49033  0.13027  0.39671  1.0000
  H   H767      1.0  0.32054  0.43709  0.34105  1.0000
  H   H768      1.0  0.24203  0.42530  0.61444  1.0000
  S   S245      1.0  0.48798  0.22273  0.39696  1.0000
  C   C762      1.0  0.32110  0.99523  0.36657  1.0000
  H   H769      1.0  0.38707  0.00506  0.38860  1.0000
  C   C763      1.0  0.34225  0.99134  0.41254  1.0000
  Fe  Fe123     1.0  0.45965  0.17176  0.67195  1.0000
  S   S246      1.0  0.39880  0.09063  0.65834  1.0000
  S   S247      1.0  0.45287  0.14091  0.68828  1.0000
  Fe  Fe124     1.0  0.46283  0.21506  0.67620  1.0000
  S   S248      1.0  0.45664  0.24055  0.69520  1.0000
  Fe  Fe125     1.0  0.34608  0.46714  0.74908  1.0000
  S   S249      1.0  0.37982  0.45933  0.74056  1.0000
  C   C764      1.0  0.34311  0.01064  0.83347  1.0000
  Fe  Fe126     1.0  0.34666  0.44698  0.79311  1.0000
  S   S250      1.0  0.38021  0.43731  0.78800  1.0000
  S   S251      1.0  0.32599  0.44210  0.82325  1.0000
  N   N64       1.0  0.47929  0.00009  0.80969  1.0000
  Fe  Fe127     1.0  0.37589  0.42887  0.75924  1.0000
  S   S252      1.0  0.39368  0.40091  0.74726  1.0000
  C   C765      1.0  0.29538  0.01518  0.78442  1.0000
  S   S253      1.0  0.34197  0.43594  0.76560  1.0000
  Fe  Fe128     1.0  0.26665  0.06583  0.96588  1.0000
  Fe  Fe129     1.0  0.47253  0.31935  0.79617  1.0000
  S   S254      1.0  0.44140  0.33502  0.80785  1.0000
  N   N65       1.0  0.26949  0.45523  0.71948  1.0000
  C   C766      1.0  0.25404  0.46864  0.70873  1.0000
  C   C767      1.0  0.39665  0.08100  0.72685  1.0000
  H   H770      1.0  0.47182  0.05828  0.87844  1.0000
  S   S255      1.0  0.31266  0.10682  0.98186  1.0000
  C   C768      1.0  0.47601  0.07515  0.94407  1.0000
  Fe  Fe130     1.0  0.39222  0.02481  0.70727  1.0000
  S   S256      1.0  0.41851  0.04099  0.69463  1.0000
  S   S257      1.0  0.37960  0.02200  0.74086  1.0000
  H   H771      1.0  0.39385  0.06547  0.73030  1.0000
  H   H772      1.0  0.32070  0.39636  0.83736  1.0000
  H   H773      1.0  0.48956  0.11060  0.93525  1.0000
  S   S258      1.0  0.37367  0.04237  0.68374  1.0000
  Fe  Fe131     1.0  0.38976  0.04078  0.86402  1.0000
  S   S259      1.0  0.40229  0.06823  0.84599  1.0000
  S   S260      1.0  0.35609  0.04080  0.87413  1.0000
  Fe  Fe132     1.0  0.43159  0.01597  0.86605  1.0000
  S   S261      1.0  0.44731  0.04121  0.84777  1.0000
  Fe  Fe133     1.0  0.42527  0.06119  0.86728  1.0000
  S   S262      1.0  0.43302  0.08590  0.88161  1.0000
  Fe  Fe134     1.0  0.42329  0.04572  0.82828  1.0000
  S   S263      1.0  0.43324  0.04826  0.79443  1.0000
  S   S264      1.0  0.41081  0.03553  0.88688  1.0000
  S   S265      1.0  0.40943  0.01887  0.84502  1.0000
  H   H774      1.0  0.41976  0.07556  0.74543  1.0000
  Fe  Fe135     1.0  0.31660  0.39374  0.96279  1.0000
  S   S266      1.0  0.34917  0.38233  0.95127  1.0000
  S   S267      1.0  0.48366  0.18527  0.68074  1.0000
  Fe  Fe136     1.0  0.32526  0.43303  0.97017  1.0000
  S   S268      1.0  0.35827  0.42575  0.95860  1.0000
  H   H775      1.0  0.28859  0.02441  0.90911  1.0000
  Fe  Fe137     1.0  0.34888  0.41396  0.93394  1.0000
  S   S269      1.0  0.36653  0.41813  0.90225  1.0000
  C   C769      1.0  0.41502  0.10440  0.66528  1.0000
  S   S270      1.0  0.31590  0.42451  0.94365  1.0000
  H   H776      1.0  0.46630  0.36621  0.79566  1.0000
  H   H777      1.0  0.34125  0.04154  0.91942  1.0000
  H   H778      1.0  0.32350  0.43772  0.68511  1.0000
  N   N66       1.0  0.37758  0.47050  0.85011  1.0000
  C   C770      1.0  0.41128  0.08681  0.73532  1.0000
  C   C771      1.0  0.27205  0.40267  0.93750  1.0000
  C   C772      1.0  0.27114  0.38575  0.95277  1.0000
  H   H779      1.0  0.49035  0.25526  0.65850  1.0000
  C   C773      1.0  0.43141  0.11184  0.73850  1.0000
  S   S271      1.0  0.29167  0.45517  0.66213  1.0000
  H   H780      1.0  0.28549  0.40945  0.93323  1.0000
  H   H781      1.0  0.44846  0.00443  0.80624  1.0000
  H   H782      1.0  0.33273  0.36157  0.92033  1.0000
  C   C774      1.0  0.45754  0.08761  0.88573  1.0000
  C   C775      1.0  0.46058  0.10511  0.89210  1.0000
  H   H783      1.0  0.28754  0.38708  0.89769  1.0000
  H   H784      1.0  0.38188  0.12622  0.69829  1.0000
  H   H785      1.0  0.44810  0.11745  0.89392  1.0000
  C   C776      1.0  0.24457  0.44716  0.96362  1.0000
  C   C777      1.0  0.39502  0.02739  0.75655  1.0000
  C   C778      1.0  0.38660  0.03144  0.77610  1.0000
  C   C779      1.0  0.39834  0.03724  0.78818  1.0000
  C   C780      1.0  0.41853  0.03913  0.78068  1.0000
  C   C781      1.0  0.42709  0.03445  0.76143  1.0000
  C   C782      1.0  0.41544  0.02844  0.74950  1.0000
  H   H786      1.0  0.37086  0.03056  0.78180  1.0000
  H   H787      1.0  0.39159  0.04079  0.80304  1.0000
  H   H788      1.0  0.44276  0.03566  0.75561  1.0000
  H   H789      1.0  0.42232  0.02465  0.73482  1.0000
  H   H790      1.0  0.43811  0.41173  0.72329  1.0000
  H   H791      1.0  0.33657  0.44959  0.71155  1.0000
  H   H792      1.0  0.31830  0.38618  0.92369  1.0000
  H   H793      1.0  0.38850  0.45114  0.87583  1.0000
  C   C783      1.0  0.32268  0.00920  0.84027  1.0000
  H   H794      1.0  0.26718  0.01461  0.88844  1.0000
  C   C784      1.0  0.35339  0.02053  0.84356  1.0000
  C   C785      1.0  0.34335  0.02900  0.86061  1.0000
  C   C786      1.0  0.32279  0.02785  0.86722  1.0000
  C   C787      1.0  0.31246  0.01797  0.85709  1.0000
  C   C788      1.0  0.40451  0.12047  0.71775  1.0000
  H   H795      1.0  0.36909  0.02157  0.83810  1.0000
  H   H796      1.0  0.31487  0.03458  0.88025  1.0000
  H   H797      1.0  0.29667  0.01706  0.86233  1.0000
  C   C789      1.0  0.40612  0.38203  0.76433  1.0000
  C   C790      1.0  0.40181  0.38232  0.78516  1.0000
  C   C791      1.0  0.41262  0.36770  0.79837  1.0000
  C   C792      1.0  0.42801  0.35291  0.79082  1.0000
  C   C793      1.0  0.43235  0.35261  0.76999  1.0000
  C   C794      1.0  0.42124  0.36698  0.75682  1.0000
  H   H798      1.0  0.38995  0.39358  0.79114  1.0000
  H   H799      1.0  0.40909  0.36785  0.81449  1.0000
  H   H800      1.0  0.44395  0.34106  0.76408  1.0000
  H   H801      1.0  0.42451  0.36656  0.74074  1.0000
  C   C795      1.0  0.33715  0.43480  0.84529  1.0000
  C   C796      1.0  0.32503  0.43547  0.86434  1.0000
  C   C797      1.0  0.33371  0.42981  0.88211  1.0000
  C   C798      1.0  0.35456  0.42345  0.88082  1.0000
  C   C799      1.0  0.36656  0.42238  0.86183  1.0000
  C   C800      1.0  0.35791  0.42809  0.84413  1.0000
  H   H802      1.0  0.30891  0.44053  0.86532  1.0000
  H   H803      1.0  0.32436  0.43073  0.89671  1.0000
  H   H804      1.0  0.38267  0.41726  0.86077  1.0000
  H   H805      1.0  0.36733  0.42714  0.82964  1.0000
  C   C801      1.0  0.47002  0.24485  0.71351  1.0000
  C   C802      1.0  0.46353  0.26259  0.72230  1.0000
  H   H806      1.0  0.47282  0.39004  0.79789  1.0000
  H   H807      1.0  0.45006  0.27276  0.71848  1.0000
  C   C803      1.0  0.27633  0.46165  0.73434  1.0000
  C   C804      1.0  0.43948  0.12719  0.67756  1.0000
  C   C805      1.0  0.44245  0.10597  0.68253  1.0000
  C   C806      1.0  0.47532  0.11103  0.94554  1.0000
  C   C807      1.0  0.48272  0.01969  0.80623  1.0000
  H   H808      1.0  0.46942  0.28134  0.74210  1.0000
  C   C808      1.0  0.29121  0.42306  0.72513  1.0000
  H   H809      1.0  0.45397  0.09826  0.69150  1.0000
  H   H810      1.0  0.43294  0.07830  0.68019  1.0000
  C   C809      1.0  0.31791  0.45290  0.68848  1.0000
  H   H811      1.0  0.35460  0.46643  0.87590  1.0000
  C   C810      1.0  0.30284  0.46545  0.67834  1.0000
  N   N67       1.0  0.41503  0.10635  0.73072  1.0000
  C   C811      1.0  0.32533  0.45957  0.70348  1.0000
  H   H812      1.0  0.44165  0.40806  0.78589  1.0000
  H   H813      1.0  0.40806  0.13574  0.71346  1.0000
  S   S272      1.0  0.40389  0.99842  0.69033  1.0000
  H   H814      1.0  0.27150  0.43121  0.70285  1.0000
  Fe  Fe138     1.0  0.38146  0.46842  0.77003  1.0000
  S   S273      1.0  0.27176  0.09778  0.95429  1.0000
  C   C812      1.0  0.44804  0.40342  0.77136  1.0000
  C   C813      1.0  0.47396  0.37909  0.78746  1.0000
  C   C814      1.0  0.28074  0.99184  0.77144  1.0000
  H   H815      1.0  0.40239  0.47153  0.86409  1.0000
  C   C815      1.0  0.48308  0.00083  0.86501  1.0000
  H   H816      1.0  0.29353  0.02677  0.79383  1.0000
  N   N68       1.0  0.46658  0.09396  0.95185  1.0000
  C   C816      1.0  0.47389  0.07186  0.88327  1.0000
  H   H817      1.0  0.32663  0.48268  0.85704  1.0000
  H   H818      1.0  0.29705  0.45454  0.75587  1.0000
  H   H819      1.0  0.36837  0.06139  0.89954  1.0000
  H   H820      1.0  0.44558  0.10998  0.72739  1.0000
  H   H821      1.0  0.47357  0.14249  0.94814  1.0000
  H   H822      1.0  0.27423  0.44663  0.97069  1.0000
  C   C817      1.0  0.31770  0.47889  0.70844  1.0000
  H   H823      1.0  0.35268  0.38324  0.85110  1.0000
  H   H824      1.0  0.32518  0.06332  0.90827  1.0000
  N   N69       1.0  0.31955  0.37851  0.89486  1.0000
  C   C818      1.0  0.30186  0.38592  0.88747  1.0000
  C   C819      1.0  0.33766  0.37771  0.88208  1.0000
  C   C820      1.0  0.30197  0.39226  0.86668  1.0000
  C   C821      1.0  0.33830  0.38368  0.86119  1.0000
  C   C822      1.0  0.38972  0.11518  0.70908  1.0000
  C   C823      1.0  0.31910  0.37256  0.91673  1.0000
  C   C824      1.0  0.25299  0.08382  0.90695  1.0000
  H   H825      1.0  0.35175  0.37275  0.88802  1.0000
  C   C825      1.0  0.27846  0.00715  0.78301  1.0000
  H   H826      1.0  0.40472  0.44940  0.85217  1.0000
  C   C826      1.0  0.32033  0.39101  0.85348  1.0000
  C   C827      1.0  0.43041  0.09461  0.67627  1.0000
  Fe  Fe139     1.0  0.38751  0.01724  0.66553  1.0000
  H   H827      1.0  0.30578  0.36514  0.92391  1.0000
  N   N70       1.0  0.34610  0.07009  0.92420  1.0000
  C   C828      1.0  0.34050  0.08226  0.93880  1.0000
  C   C829      1.0  0.36402  0.07080  0.91128  1.0000
  C   C830      1.0  0.35316  0.09531  0.94092  1.0000
  C   C831      1.0  0.37703  0.08368  0.91295  1.0000
  C   C832      1.0  0.37154  0.09598  0.92790  1.0000
  N   N71       1.0  0.31411  0.00800  0.77471  1.0000
  H   H828      1.0  0.32618  0.08197  0.94895  1.0000
  H   H829      1.0  0.27111  0.47693  0.73765  1.0000
  H   H830      1.0  0.47498  0.06181  0.95628  1.0000
  H   H831      1.0  0.39125  0.08414  0.90265  1.0000
  H   H832      1.0  0.38147  0.10607  0.92932  1.0000
  H   H833      1.0  0.32071  0.05451  0.93521  1.0000
  C   C833      1.0  0.26361  0.03555  0.93074  1.0000
  H   H834      1.0  0.31663  0.99317  0.90002  1.0000
  S   S274      1.0  0.46187  0.00349  0.67256  1.0000
  H   H835      1.0  0.26365  0.01256  0.79099  1.0000
  S   S275      1.0  0.29149  0.37560  0.96609  1.0000
  C   C834      1.0  0.42461  0.13701  0.66587  1.0000
  S   S276      1.0  0.34811  0.47887  0.77722  1.0000
  C   C835      1.0  0.45867  0.99597  0.81701  1.0000
  H   H836      1.0  0.32943  0.02316  0.79035  1.0000
  H   H837      1.0  0.29734  0.40822  0.72098  1.0000
  H   H838      1.0  0.24468  0.46151  0.95344  1.0000
  S   S277      1.0  0.43762  0.20105  0.67005  1.0000
  H   H839      1.0  0.48185  0.12070  0.90020  1.0000
  H   H840      1.0  0.34866  0.10486  0.95258  1.0000
  Fe  Fe140     1.0  0.28305  0.09626  0.98335  1.0000
  C   C836      1.0  0.41231  0.12564  0.65989  1.0000
  H   H841      1.0  0.35113  0.00394  0.82045  1.0000
  C   C837      1.0  0.43923  0.11234  0.97235  1.0000
  H   H842      1.0  0.26811  0.08497  0.90880  1.0000
  H   H843      1.0  0.28796  0.39838  0.86086  1.0000
  S   S278      1.0  0.32449  0.48690  0.72900  1.0000
  C   C838      1.0  0.29586  0.48510  0.68266  1.0000
  C   C839      1.0  0.29848  0.42960  0.74010  1.0000
  C   C840      1.0  0.36638  0.48822  0.81919  1.0000
  Fe  Fe141     1.0  0.42884  0.01622  0.67584  1.0000
  H   H844      1.0  0.34540  0.00471  0.77662  1.0000
  C   C841      1.0  0.44815  0.12975  0.96616  1.0000
  C   C842      1.0  0.47971  0.10694  0.89581  1.0000
  C   C843      1.0  0.46626  0.12917  0.95261  1.0000
  C   C844      1.0  0.35805  0.47259  0.85996  1.0000
  H   H845      1.0  0.42511  0.42370  0.75614  1.0000
  C   C845      1.0  0.25545  0.41088  0.92755  1.0000
  C   C846      1.0  0.25010  0.07444  0.89152  1.0000
  H   H846      1.0  0.43395  0.10226  0.75325  1.0000
  C   C847      1.0  0.43865  0.41237  0.75458  1.0000
  C   C848      1.0  0.27657  0.43612  0.71496  1.0000
  H   H847      1.0  0.25534  0.48485  0.70769  1.0000
  C   C849      1.0  0.46271  0.39023  0.73452  1.0000
  H   H848      1.0  0.37513  0.09074  0.70623  1.0000
  S   S279      1.0  0.31010  0.46157  0.98221  1.0000
  H   H849      1.0  0.47428  0.01444  0.87003  1.0000
  H   H850      1.0  0.42793  0.12794  0.74088  1.0000
  H   H851      1.0  0.31030  0.41988  0.74766  1.0000
  N   N72       1.0  0.46466  0.38861  0.76959  1.0000
  S   S280      1.0  0.27943  0.04374  0.94396  1.0000
  C   C850      1.0  0.26029  0.02074  0.90202  1.0000
  C   C851      1.0  0.27239  0.02648  0.91366  1.0000
  C   C852      1.0  0.33261  0.05676  0.92173  1.0000
  H   H852      1.0  0.46823  0.38449  0.72038  1.0000
  H   H853      1.0  0.48086  0.28479  0.67632  1.0000
  C   C853      1.0  0.38596  0.09525  0.71351  1.0000
  C   C854      1.0  0.29097  0.44899  0.74480  1.0000
  C   C855      1.0  0.47190  0.38180  0.75155  1.0000
  H   H854      1.0  0.47031  0.03202  0.80860  1.0000
  Fe  Fe142     1.0  0.40116  0.05671  0.66987  1.0000
  H   H855      1.0  0.44188  0.08089  0.97023  1.0000
  C   C856      1.0  0.47448  0.26750  0.73572  1.0000
  C   C857      1.0  0.44597  0.40561  0.73610  1.0000
  C   C858      1.0  0.38189  0.47842  0.83004  1.0000
  S   S281      1.0  0.31070  0.99570  0.82776  1.0000
  C   C859      1.0  0.44869  0.09447  0.96496  1.0000
  C   C860      1.0  0.34215  0.48192  0.84943  1.0000
  H   H856      1.0  0.33483  0.02857  0.76295  1.0000
  C   C861      1.0  0.25358  0.37690  0.95778  1.0000
  H   H857      1.0  0.25281  0.36368  0.96945  1.0000
  H   H858      1.0  0.42552  0.11241  0.98344  1.0000
  S   S282      1.0  0.40675  0.48200  0.77643  1.0000
  H   H859      1.0  0.42211  0.15339  0.66211  1.0000
  S   S283      1.0  0.25033  0.01220  0.83595  1.0000
  C   C862      1.0  0.33173  0.01661  0.77620  1.0000
  C   C863      1.0  0.39411  0.46021  0.86111  1.0000
  H   H860      1.0  0.46837  0.07342  0.93166  1.0000
  H   H861      1.0  0.26298  0.06816  0.88130  1.0000
  H   H862      1.0  0.39736  0.47704  0.82220  1.0000
  H   H863      1.0  0.48467  0.36958  0.75033  1.0000
  H   H864      1.0  0.25624  0.42403  0.91581  1.0000
  H   H865      1.0  0.45308  0.00090  0.83195  1.0000
  H   H866      1.0  0.49030  0.37329  0.78314  1.0000
  H   H867      1.0  0.44134  0.14351  0.97231  1.0000
  S   S284      1.0  0.48728  0.32045  0.76368  1.0000
  C   C864      1.0  0.26129  0.43885  0.97331  1.0000
  C   C865      1.0  0.34638  0.48964  0.82888  1.0000
  S   S285      1.0  0.48442  0.28622  0.80503  1.0000
  Fe  Fe143     1.0  0.35618  0.39478  0.97684  1.0000
  C   C866      1.0  0.31642  0.99337  0.76287  1.0000
  C   C867      1.0  0.48742  0.23180  0.71868  1.0000
  H   H868      1.0  0.25594  0.46585  0.69288  1.0000
  C   C868      1.0  0.26135  0.42027  0.98623  1.0000
  C   C869      1.0  0.24262  0.03835  0.93647  1.0000
  H   H869      1.0  0.47327  0.91431  0.11688  1.0000
  S   S286      1.0  0.44769  0.58163  0.26920  1.0000
  S   S287      1.0  0.47635  0.62839  0.24432  1.0000
  H   H870      1.0  0.48734  0.59979  0.13385  1.0000
  C   C870      1.0  0.39404  0.50222  0.03150  1.0000
  C   C871      1.0  0.36556  0.59187  0.98853  1.0000
  Fe  Fe144     1.0  0.38051  0.51887  0.23689  1.0000
  S   S288      1.0  0.25881  0.85911  0.00870  1.0000
  S   S289      1.0  0.38830  0.55037  0.22596  1.0000
  H   H871      1.0  0.39180  0.92357  0.29154  1.0000
  H   H872      1.0  0.40894  0.97546  0.19391  1.0000
  C   C872      1.0  0.46187  0.81036  0.03646  1.0000
  S   S290      1.0  0.34951  0.51132  0.23844  1.0000
  H   H873      1.0  0.32476  0.52918  0.28827  1.0000
  C   C873      1.0  0.48357  0.77961  0.04597  1.0000
  H   H874      1.0  0.39052  0.53889  0.11883  1.0000
  C   C874      1.0  0.41220  0.99003  0.19653  1.0000
  H   H875      1.0  0.40966  0.49489  0.02632  1.0000
  C   C875      1.0  0.45051  0.66666  0.01331  1.0000
  S   S291      1.0  0.26939  0.93656  0.10485  1.0000
  N   N73       1.0  0.36352  0.55946  0.11388  1.0000
  Fe  Fe145     1.0  0.26026  0.94803  0.13431  1.0000
  S   S292      1.0  0.28219  0.95769  0.14998  1.0000
  Fe  Fe146     1.0  0.39757  0.92570  0.14736  1.0000
  S   S293      1.0  0.40638  0.89802  0.16976  1.0000
  S   S294      1.0  0.37562  0.92564  0.12645  1.0000
  Fe  Fe147     1.0  0.42673  0.94898  0.15798  1.0000
  S   S295      1.0  0.43762  0.92351  0.18146  1.0000
  C   C876      1.0  0.47009  0.87063  0.13088  1.0000
  Fe  Fe148     1.0  0.43812  0.90374  0.15853  1.0000
  H   H876      1.0  0.28253  0.97995  0.10705  1.0000
  Fe  Fe149     1.0  0.40506  0.92019  0.19063  1.0000
  S   S296      1.0  0.38978  0.91397  0.22301  1.0000
  S   S297      1.0  0.42967  0.92959  0.13422  1.0000
  S   S298      1.0  0.39382  0.94751  0.16908  1.0000
  C   C877      1.0  0.34626  0.56706  0.25716  1.0000
  S   S299      1.0  0.33652  0.52890  0.03739  1.0000
  C   C878      1.0  0.44531  0.63989  0.31857  1.0000
  Fe  Fe150     1.0  0.32585  0.53113  0.09484  1.0000
  S   S300      1.0  0.32256  0.55919  0.07126  1.0000
  S   S301      1.0  0.31997  0.53670  0.12718  1.0000
  Fe  Fe151     1.0  0.30760  0.54087  0.05627  1.0000
  Fe  Fe152     1.0  0.35164  0.54460  0.05466  1.0000
  S   S302      1.0  0.37923  0.55939  0.04206  1.0000
  S   S303      1.0  0.30838  0.51398  0.08114  1.0000
  S   S304      1.0  0.35609  0.51784  0.07931  1.0000
  C   C879      1.0  0.36319  0.55405  0.28606  1.0000
  H   H877      1.0  0.40399  0.86773  0.25712  1.0000
  H   H878      1.0  0.43006  0.88474  0.23365  1.0000
  C   C880      1.0  0.46666  0.66498  0.02361  1.0000
  S   S305      1.0  0.48798  0.64188  0.18370  1.0000
  C   C881      1.0  0.25721  0.54963  0.05425  1.0000
  C   C882      1.0  0.47094  0.61998  0.98752  1.0000
  Fe  Fe153     1.0  0.33840  0.50328  0.06332  1.0000
  C   C883      1.0  0.46076  0.81593  0.05538  1.0000
  C   C884      1.0  0.35878  0.58415  0.08411  1.0000
  C   C885      1.0  0.26146  0.49686  0.06405  1.0000
  S   S306      1.0  0.38565  0.49964  0.26654  1.0000
  C   C886      1.0  0.47319  0.61737  0.00792  1.0000
  C   C887      1.0  0.25063  0.92358  0.00215  1.0000
  H   H879      1.0  0.46048  0.61475  0.01971  1.0000
  C   C888      1.0  0.37984  0.57611  0.01883  1.0000
  C   C889      1.0  0.39693  0.58538  0.01098  1.0000
  H   H880      1.0  0.32143  0.55235  0.25600  1.0000
  C   C890      1.0  0.25781  0.50275  0.04411  1.0000
  H   H881      1.0  0.46813  0.85050  0.00756  1.0000
  C   C891      1.0  0.36408  0.57948  0.00763  1.0000
  H   H882      1.0  0.40923  0.58274  0.01953  1.0000
  H   H883      1.0  0.43624  0.66256  0.02139  1.0000
  H   H884      1.0  0.45378  0.89996  0.24724  1.0000
  H   H885      1.0  0.35082  0.57244  0.01359  1.0000
  C   C892      1.0  0.48908  0.91527  0.11785  1.0000
  C   C893      1.0  0.46350  0.61333  0.29884  1.0000
  S   S307      1.0  0.24372  0.96971  0.06333  1.0000
  N   N74       1.0  0.41329  0.87253  0.28376  1.0000
  C   C894      1.0  0.25165  0.85545  0.06759  1.0000
  H   H886      1.0  0.42541  0.87950  0.30761  1.0000
  C   C895      1.0  0.45637  0.87695  0.11727  1.0000
  H   H887      1.0  0.47067  0.94555  0.15818  1.0000
  H   H888      1.0  0.44230  0.88680  0.12131  1.0000
  C   C896      1.0  0.25084  0.87346  0.09542  1.0000
  C   C897      1.0  0.39815  0.92483  0.24058  1.0000
  C   C898      1.0  0.41364  0.93649  0.23461  1.0000
  C   C899      1.0  0.42137  0.94335  0.24922  1.0000
  C   C900      1.0  0.41376  0.93842  0.26984  1.0000
  C   C901      1.0  0.39004  0.92057  0.26113  1.0000
  H   H889      1.0  0.41991  0.93991  0.21880  1.0000
  H   H890      1.0  0.43361  0.95204  0.24458  1.0000
  C   C902      1.0  0.34766  0.57024  0.12492  1.0000
  Fe  Fe154     1.0  0.27097  0.83007  0.99636  1.0000
  N   N75       1.0  0.46198  0.62554  0.31471  1.0000
  H   H891      1.0  0.47106  0.80755  0.08419  1.0000
  S   S308      1.0  0.26377  0.88207  0.11123  1.0000
  H   H892      1.0  0.26236  0.93232  0.00333  1.0000
  H   H893      1.0  0.24356  0.94480  0.03278  1.0000
  H   H894      1.0  0.27809  0.86081  0.07730  1.0000
  C   C903      1.0  0.37337  0.49451  0.00927  1.0000
  C   C904      1.0  0.30836  0.95032  0.14255  1.0000
  C   C905      1.0  0.32170  0.95080  0.15564  1.0000
  C   C906      1.0  0.34249  0.94379  0.15066  1.0000
  C   C907      1.0  0.35009  0.93659  0.13237  1.0000
  C   C908      1.0  0.33684  0.93680  0.11897  1.0000
  C   C909      1.0  0.31605  0.94351  0.12408  1.0000
  H   H895      1.0  0.31587  0.95612  0.16993  1.0000
  H   H896      1.0  0.35255  0.94358  0.16115  1.0000
  H   H897      1.0  0.34266  0.93134  0.10475  1.0000
  H   H898      1.0  0.30605  0.94334  0.11373  1.0000
  H   H899      1.0  0.36348  0.51240  0.30797  1.0000
  N   N76       1.0  0.31666  0.89020  0.12891  1.0000
  C   C910      1.0  0.33085  0.52473  0.16474  1.0000
  S   S309      1.0  0.24298  0.92271  0.14939  1.0000
  C   C911      1.0  0.34099  0.49970  0.14237  1.0000
  S   S310      1.0  0.24706  0.81319  0.01564  1.0000
  C   C912      1.0  0.25485  0.54354  0.07524  1.0000
  H   H900      1.0  0.28361  0.97981  0.07040  1.0000
  H   H901      1.0  0.30465  0.89717  0.10141  1.0000
  H   H902      1.0  0.39464  0.51557  0.03843  1.0000
  H   H903      1.0  0.37555  0.55403  0.29391  1.0000
  C   C913      1.0  0.44278  0.89179  0.25752  1.0000
  C   C914      1.0  0.31515  0.88508  0.10941  1.0000
  C   C915      1.0  0.45304  0.67327  0.99239  1.0000
  H   H904      1.0  0.26897  0.49406  0.28068  1.0000
  H   H905      1.0  0.33951  0.51566  0.19440  1.0000
  C   C916      1.0  0.39832  0.59794  0.99197  1.0000
  C   C917      1.0  0.48502  0.66998  0.01295  1.0000
  H   H906      1.0  0.47809  0.65829  0.27308  1.0000
  S   S311      1.0  0.48794  0.59045  0.21878  1.0000
  C   C918      1.0  0.33129  0.51904  0.14594  1.0000
  C   C919      1.0  0.47124  0.80297  0.06976  1.0000
  C   C920      1.0  0.46585  0.95365  0.31256  1.0000
  H   H907      1.0  0.47861  0.61289  0.28926  1.0000
  C   C921      1.0  0.36189  0.50018  0.99359  1.0000
  H   H908      1.0  0.32377  0.59614  0.12442  1.0000
  H   H909      1.0  0.38137  0.55741  0.08481  1.0000
  S   S312      1.0  0.43785  0.97900  0.15144  1.0000
  C   C922      1.0  0.46217  0.97788  0.15685  1.0000
  C   C923      1.0  0.36909  0.56616  0.09370  1.0000
  C   C924      1.0  0.47274  0.67795  0.29562  1.0000
  C   C925      1.0  0.33500  0.54008  0.28280  1.0000
  C   C926      1.0  0.43282  0.57188  0.25617  1.0000
  C   C927      1.0  0.42349  0.55519  0.26589  1.0000
  C   C928      1.0  0.41070  0.54779  0.25624  1.0000
  C   C929      1.0  0.40653  0.55752  0.23713  1.0000
  C   C930      1.0  0.41586  0.57423  0.22741  1.0000
  C   C931      1.0  0.42924  0.58118  0.23675  1.0000
  H   H910      1.0  0.42625  0.54790  0.28088  1.0000
  H   H911      1.0  0.40365  0.53493  0.26387  1.0000
  H   H912      1.0  0.41263  0.58190  0.21268  1.0000
  H   H913      1.0  0.43625  0.59417  0.22921  1.0000
  C   C932      1.0  0.35260  0.52605  0.31183  1.0000
  H   H914      1.0  0.37045  0.53800  0.14009  1.0000
  H   H915      1.0  0.48153  0.58869  0.17118  1.0000
  H   H916      1.0  0.49124  0.77462  0.07602  1.0000
  C   C933      1.0  0.44135  0.89041  0.27840  1.0000
  H   H917      1.0  0.27614  0.49717  0.06766  1.0000
  N   N77       1.0  0.34994  0.54068  0.29333  1.0000
  S   S313      1.0  0.46548  0.87957  0.15408  1.0000
  H   H918      1.0  0.45215  0.61969  0.28863  1.0000
  C   C934      1.0  0.47911  0.85787  0.09289  1.0000
  C   C935      1.0  0.42951  0.88320  0.24988  1.0000
  C   C936      1.0  0.34244  0.59509  0.09519  1.0000
  H   H919      1.0  0.34135  0.49517  0.12795  1.0000
  S   S314      1.0  0.42487  0.94564  0.28794  1.0000
  H   H920      1.0  0.36311  0.58926  0.06803  1.0000
  C   C937      1.0  0.48397  0.66249  0.28501  1.0000
  H   H921      1.0  0.45821  0.68549  0.29178  1.0000
  C   C938      1.0  0.37099  0.53358  0.98767  1.0000
  C   C939      1.0  0.47542  0.95947  0.15932  1.0000
  C   C940      1.0  0.37391  0.54001  0.12328  1.0000
  H   H922      1.0  0.34270  0.56455  0.14073  1.0000
  H   H923      1.0  0.37219  0.57789  0.26203  1.0000
  H   H924      1.0  0.45239  0.83052  0.05865  1.0000
  H   H925      1.0  0.30613  0.49311  0.27219  1.0000
  S   S315      1.0  0.39640  0.49469  0.21875  1.0000
  H   H926      1.0  0.25858  0.90882  0.99774  1.0000
  C   C941      1.0  0.33680  0.58811  0.11574  1.0000
  H   H927      1.0  0.31464  0.49552  0.03775  1.0000
  H   H928      1.0  0.32324  0.53961  0.16765  1.0000
  H   H929      1.0  0.38918  0.87302  0.30853  1.0000
  H   H930      1.0  0.32997  0.88352  0.09928  1.0000
  H   H931      1.0  0.47750  0.77131  0.01153  1.0000
  Fe  Fe155     1.0  0.47409  0.59521  0.25021  1.0000
  C   C942      1.0  0.27779  0.49227  0.29267  1.0000
  H   H932      1.0  0.37796  0.91168  0.26579  1.0000
  H   H933      1.0  0.30908  0.87064  0.11189  1.0000
  C   C943      1.0  0.48254  0.78455  0.06516  1.0000
  C   C944      1.0  0.39792  0.92723  0.27574  1.0000
  C   C945      1.0  0.26177  0.86303  0.07987  1.0000
  C   C946      1.0  0.47995  0.68344  0.31143  1.0000
  C   C947      1.0  0.34933  0.49167  0.17656  1.0000
  C   C948      1.0  0.33294  0.55324  0.26457  1.0000
  H   H934      1.0  0.45128  0.89745  0.28449  1.0000
  H   H935      1.0  0.33394  0.60872  0.08777  1.0000
  H   H936      1.0  0.26764  0.54132  0.08303  1.0000
  N   N78       1.0  0.38282  0.50825  0.01445  1.0000
  C   C949      1.0  0.34005  0.51119  0.17992  1.0000
  Fe  Fe156     1.0  0.24994  0.91304  0.11873  1.0000
  H   H937      1.0  0.46515  0.65937  0.03975  1.0000
  H   H938      1.0  0.36887  0.52738  0.11846  1.0000
  H   H939      1.0  0.48675  0.65277  0.14104  1.0000
  N   N79       1.0  0.47334  0.79250  0.03190  1.0000
  C   C950      1.0  0.41469  0.87365  0.26329  1.0000
  C   C951      1.0  0.29937  0.89651  0.14144  1.0000
  C   C952      1.0  0.33512  0.88839  0.13465  1.0000
  C   C953      1.0  0.30027  0.90186  0.15999  1.0000
  C   C954      1.0  0.33657  0.89334  0.15323  1.0000
  C   C955      1.0  0.31902  0.90028  0.16586  1.0000
  H   H940      1.0  0.28476  0.89777  0.13692  1.0000
  H   H941      1.0  0.28656  0.90778  0.16943  1.0000
  H   H942      1.0  0.35129  0.89273  0.15731  1.0000
  H   H943      1.0  0.32001  0.90502  0.17988  1.0000
  S   S316      1.0  0.48473  0.85118  0.06859  1.0000
  H   H944      1.0  0.39033  0.53805  0.00717  1.0000
  H   H945      1.0  0.30019  0.49173  0.00828  1.0000
  C   C956      1.0  0.39767  0.86270  0.29784  1.0000
  S   S317      1.0  0.28104  0.55225  0.03982  1.0000
  C   C957      1.0  0.46084  0.87049  0.09834  1.0000
  H   H946      1.0  0.44806  0.97717  0.29444  1.0000
  C   C958      1.0  0.47918  0.84323  0.99645  1.0000
  H   H947      1.0  0.34892  0.88375  0.12465  1.0000
  H   H948      1.0  0.38662  0.85873  0.28990  1.0000
  H   H949      1.0  0.45021  0.87551  0.08781  1.0000
  C   C959      1.0  0.38230  0.52736  0.00347  1.0000
  C   C960      1.0  0.42653  0.88050  0.29138  1.0000
  H   H950      1.0  0.40477  0.84863  0.30686  1.0000
  C   C961      1.0  0.36135  0.56764  0.26805  1.0000
  H   H951      1.0  0.46126  0.59756  0.30561  1.0000
  H   H952      1.0  0.45380  0.82063  0.02531  1.0000
  C   C962      1.0  0.46094  0.97332  0.30241  1.0000
  H   H953      1.0  0.26020  0.84739  0.05567  1.0000
  H   H954      1.0  0.34542  0.57680  0.24264  1.0000
  H   H955      1.0  0.46298  0.79554  0.00365  1.0000
  C   C963      1.0  0.48822  0.85775  0.12556  1.0000
  C   C964      1.0  0.48716  0.67611  0.99198  1.0000
  C   C965      1.0  0.47265  0.98794  0.30274  1.0000
  H   H956      1.0  0.34651  0.81021  0.99128  1.0000
  H   H957      1.0  0.42880  0.98782  0.19621  1.0000
  H   H958      1.0  0.48396  0.90758  0.08242  1.0000
  H   H959      1.0  0.24923  0.50716  0.00758  1.0000
  H   H960      1.0  0.26983  0.50781  0.03249  1.0000
  N   N80       1.0  0.48892  0.98297  0.31272  1.0000
  H   H961      1.0  0.45681  0.94224  0.31252  1.0000
  C   C966      1.0  0.47603  0.78788  0.01135  1.0000
  H   H962      1.0  0.43321  0.64259  0.30972  1.0000
  S   S318      1.0  0.30344  0.81498  0.99528  1.0000
  H   H963      1.0  0.48988  0.79329  0.00229  1.0000
  H   H964      1.0  0.33810  0.52102  0.31947  1.0000
  H   H965      1.0  0.49083  0.90979  0.13396  1.0000
  C   C967      1.0  0.29881  0.49175  0.28782  1.0000
  H   H966      1.0  0.24205  0.93192  0.98995  1.0000
  H   H967      1.0  0.49129  0.93137  0.11376  1.0000
  H   H968      1.0  0.24216  0.55790  0.02819  1.0000
  H   H969      1.0  0.38646  0.49148  0.04368  1.0000
  C   C968      1.0  0.24577  0.49162  0.07938  1.0000
  C   C969      1.0  0.49179  0.61828  0.01309  1.0000
  H   H970      1.0  0.34200  0.71047  0.44802  1.0000
  S   S319      1.0  0.48238  0.71674  0.59174  1.0000
  H   H971      1.0  0.47484  0.82736  0.36354  1.0000
  Fe  Fe157     1.0  0.46179  0.74653  0.58659  1.0000
  S   S320      1.0  0.44557  0.75493  0.55947  1.0000
  S   S321      1.0  0.44763  0.74563  0.61916  1.0000
  Fe  Fe158     1.0  0.30853  0.73275  0.51897  1.0000
  S   S322      1.0  0.30985  0.76322  0.49934  1.0000
  S   S323      1.0  0.28020  0.71888  0.52082  1.0000
  Fe  Fe159     1.0  0.34709  0.73454  0.53496  1.0000
  S   S324      1.0  0.35139  0.76474  0.51609  1.0000
  S   S325      1.0  0.36642  0.72008  0.55909  1.0000
  Fe  Fe160     1.0  0.31804  0.77360  0.52553  1.0000
  S   S326      1.0  0.30212  0.80305  0.53643  1.0000
  Fe  Fe161     1.0  0.34301  0.75171  0.49157  1.0000
  S   S327      1.0  0.35675  0.75871  0.45862  1.0000
  S   S328      1.0  0.31410  0.74415  0.54597  1.0000
  S   S329      1.0  0.34137  0.72049  0.50958  1.0000
  Fe  Fe162     1.0  0.47488  0.75181  0.36733  1.0000
  Fe  Fe163     1.0  0.47298  0.76134  0.62167  1.0000
  H   H972      1.0  0.38439  0.81252  0.41970  1.0000
  Fe  Fe164     1.0  0.47203  0.71340  0.35175  1.0000
  H   H973      1.0  0.29204  0.98706  0.38014  1.0000
  Fe  Fe165     1.0  0.45786  0.71691  0.39642  1.0000
  S   S330      1.0  0.43981  0.70670  0.42679  1.0000
  S   S331      1.0  0.44870  0.73608  0.36787  1.0000
  Fe  Fe166     1.0  0.43442  0.92151  0.35883  1.0000
  S   S332      1.0  0.40928  0.90546  0.37665  1.0000
  C   C970      1.0  0.41254  0.94611  0.41077  1.0000
  S   S333      1.0  0.38940  0.91632  0.33484  1.0000
  H   H974      1.0  0.38191  0.77420  0.56669  1.0000
  Fe  Fe167     1.0  0.38926  0.93172  0.36124  1.0000
  S   S334      1.0  0.36047  0.94585  0.37944  1.0000
  Fe  Fe168     1.0  0.41170  0.89133  0.34891  1.0000
  S   S335      1.0  0.40766  0.85938  0.34759  1.0000
  S   S336      1.0  0.41427  0.94859  0.34513  1.0000
  H   H975      1.0  0.37411  0.95063  0.56786  1.0000
  Fe  Fe169     1.0  0.33957  0.88658  0.57730  1.0000
  S   S337      1.0  0.32157  0.89354  0.60719  1.0000
  S   S338      1.0  0.35256  0.85542  0.56882  1.0000
  Fe  Fe170     1.0  0.33976  0.93126  0.56014  1.0000
  S   S339      1.0  0.32135  0.94204  0.58805  1.0000
  S   S340      1.0  0.35229  0.95269  0.53346  1.0000
  Fe  Fe171     1.0  0.34143  0.91720  0.60492  1.0000
  S   S341      1.0  0.35704  0.92156  0.63019  1.0000
  Fe  Fe172     1.0  0.30312  0.91789  0.58781  1.0000
  S   S342      1.0  0.26911  0.92557  0.59211  1.0000
  S   S343      1.0  0.36112  0.90783  0.57677  1.0000
  S   S344      1.0  0.31985  0.90945  0.55818  1.0000
  C   C971      1.0  0.33323  0.97140  0.52434  1.0000
  C   C972      1.0  0.46085  0.82502  0.35989  1.0000
  C   C973      1.0  0.31341  0.97314  0.53477  1.0000
  H   H976      1.0  0.35328  0.98359  0.49850  1.0000
  H   H977      1.0  0.30967  0.96282  0.54857  1.0000
  C   C974      1.0  0.25700  0.91565  0.53499  1.0000
  C   C975      1.0  0.26622  0.88877  0.58243  1.0000
  H   H978      1.0  0.28218  0.88444  0.58310  1.0000
  C   C976      1.0  0.36019  0.96744  0.39019  1.0000
  C   C977      1.0  0.34345  0.97368  0.40433  1.0000
  C   C978      1.0  0.48767  0.97226  0.37325  1.0000
  H   H979      1.0  0.33124  0.96494  0.40877  1.0000
  H   H980      1.0  0.47089  0.82788  0.64514  1.0000
  H   H981      1.0  0.25798  0.54273  0.41833  1.0000
  H   H982      1.0  0.42357  0.93827  0.39996  1.0000
  H   H983      1.0  0.43504  0.96362  0.36724  1.0000
  C   C979      1.0  0.35878  0.94565  0.63558  1.0000
  H   H984      1.0  0.44300  0.78055  0.39857  1.0000
  C   C980      1.0  0.47247  0.98887  0.36955  1.0000
  H   H985      1.0  0.28398  0.54527  0.55692  1.0000
  C   C981      1.0  0.34967  0.96373  0.62502  1.0000
  C   C982      1.0  0.41264  0.93148  0.61896  1.0000
  C   C983      1.0  0.38564  0.80473  0.58437  1.0000
  C   C984      1.0  0.45819  0.80535  0.35877  1.0000
  C   C985      1.0  0.47740  0.62239  0.32566  1.0000
  C   C986      1.0  0.44549  0.84170  0.35646  1.0000
  C   C987      1.0  0.42736  0.83883  0.35176  1.0000
  C   C988      1.0  0.42473  0.81919  0.35047  1.0000
  C   C989      1.0  0.44006  0.80245  0.35406  1.0000
  S   S345      1.0  0.25469  0.54239  0.60085  1.0000
  C   C990      1.0  0.25562  0.51167  0.55596  1.0000
  H   H986      1.0  0.41074  0.81688  0.34679  1.0000
  H   H987      1.0  0.43791  0.78738  0.35304  1.0000
  C   C991      1.0  0.37864  0.74277  0.44930  1.0000
  C   C992      1.0  0.38786  0.74749  0.42912  1.0000
  C   C993      1.0  0.40647  0.73627  0.42186  1.0000
  C   C994      1.0  0.41578  0.72012  0.43471  1.0000
  C   C995      1.0  0.40617  0.71492  0.45465  1.0000
  C   C996      1.0  0.38767  0.72626  0.46198  1.0000
  H   H988      1.0  0.38085  0.76018  0.41922  1.0000
  H   H989      1.0  0.41370  0.74025  0.40641  1.0000
  H   H990      1.0  0.41328  0.70234  0.46460  1.0000
  H   H991      1.0  0.38067  0.72250  0.47754  1.0000
  C   C997      1.0  0.31633  0.81889  0.54349  1.0000
  C   C998      1.0  0.33744  0.81548  0.53957  1.0000
  C   C999      1.0  0.34836  0.82747  0.54655  1.0000
  C   C1000     1.0  0.33831  0.84299  0.55751  1.0000
  C   C1001     1.0  0.31720  0.84688  0.56083  1.0000
  C   C1002     1.0  0.30627  0.83487  0.55383  1.0000
  H   H992      1.0  0.34537  0.80343  0.53141  1.0000
  H   H993      1.0  0.36468  0.82446  0.54376  1.0000
  H   H994      1.0  0.30932  0.85871  0.56935  1.0000
  H   H995      1.0  0.28997  0.83767  0.55687  1.0000
  C   C1003     1.0  0.42277  0.74638  0.56008  1.0000
  C   C1004     1.0  0.41241  0.73692  0.57803  1.0000
  C   C1005     1.0  0.39472  0.72946  0.57771  1.0000
  C   C1006     1.0  0.38737  0.73138  0.55947  1.0000
  C   C1007     1.0  0.39738  0.74142  0.54167  1.0000
  C   C1008     1.0  0.41502  0.74891  0.54200  1.0000
  H   H996      1.0  0.41819  0.73509  0.59206  1.0000
  H   H997      1.0  0.38689  0.72189  0.59156  1.0000
  H   H998      1.0  0.39190  0.74287  0.52754  1.0000
  H   H999      1.0  0.42293  0.75634  0.52811  1.0000
  C   C1009     1.0  0.26939  0.66562  0.49379  1.0000
  C   C1010     1.0  0.28908  0.66982  0.49190  1.0000
  C   C1011     1.0  0.29287  0.68542  0.50088  1.0000
  C   C1012     1.0  0.27693  0.69711  0.51179  1.0000
  C   C1013     1.0  0.25737  0.69234  0.51441  1.0000
  H   H1000     1.0  0.44716  0.94618  0.64753  1.0000
  H   H1001     1.0  0.30144  0.66123  0.48304  1.0000
  H   H1002     1.0  0.30802  0.68876  0.49888  1.0000
  C   C1014     1.0  0.25359  0.67668  0.50549  1.0000
  C   C1015     1.0  0.41986  0.67541  0.62308  1.0000
  H   H1003     1.0  0.44766  0.85676  0.35752  1.0000
  H   H1004     1.0  0.26117  0.49993  0.56772  1.0000
  C   C1016     1.0  0.38190  0.95540  0.57814  1.0000
  C   C1017     1.0  0.25860  0.54241  0.53304  1.0000
  C   C1018     1.0  0.44981  0.96586  0.36856  1.0000
  H   H1005     1.0  0.35829  0.53274  0.32280  1.0000
  N   N81       1.0  0.25331  0.93589  0.53629  1.0000
  C   C1019     1.0  0.24921  0.81772  0.55629  1.0000
  S   S346      1.0  0.48441  0.91828  0.64446  1.0000
  C   C1020     1.0  0.36959  0.97642  0.45346  1.0000
  C   C1021     1.0  0.32564  0.71205  0.45147  1.0000
  C   C1022     1.0  0.47872  0.94328  0.64931  1.0000
  H   H1006     1.0  0.28459  0.52029  0.57081  1.0000
  C   C1023     1.0  0.33794  0.98481  0.50646  1.0000
  C   C1024     1.0  0.44399  0.65183  0.33348  1.0000
  C   C1025     1.0  0.45972  0.64882  0.34460  1.0000
  S   S347      1.0  0.47904  0.69316  0.38052  1.0000
  S   S348      1.0  0.48522  0.76471  0.58859  1.0000
  H   H1007     1.0  0.45824  0.70102  0.56402  1.0000
  H   H1008     1.0  0.28143  0.93423  0.54645  1.0000
  H   H1009     1.0  0.35390  0.97469  0.45291  1.0000
  C   C1026     1.0  0.39243  0.94098  0.59161  1.0000
  H   H1010     1.0  0.28319  0.99007  0.53577  1.0000
  C   C1027     1.0  0.26170  0.71855  0.46534  1.0000
  C   C1028     1.0  0.35001  0.77404  0.57401  1.0000
  C   C1029     1.0  0.41490  0.76240  0.46525  1.0000
  H   H1011     1.0  0.40389  0.91884  0.62514  1.0000
  H   H1012     1.0  0.27556  0.95507  0.52659  1.0000
  H   H1013     1.0  0.43012  0.96946  0.40973  1.0000
  C   C1030     1.0  0.39455  0.93882  0.41916  1.0000
  C   C1031     1.0  0.29842  0.98848  0.52748  1.0000
  H   H1014     1.0  0.43275  0.66435  0.62846  1.0000
  H   H1015     1.0  0.25879  0.82845  0.54657  1.0000
  S   S349      1.0  0.45957  0.68749  0.64136  1.0000
  C   C1032     1.0  0.43029  0.77125  0.42982  1.0000
  H   H1016     1.0  0.38503  0.79119  0.45340  1.0000
  H   H1017     1.0  0.42308  0.74671  0.46437  1.0000
  H   H1018     1.0  0.25505  0.72931  0.45302  1.0000
  H   H1019     1.0  0.32390  0.68659  0.43774  1.0000
  C   C1033     1.0  0.40131  0.96711  0.60503  1.0000
  H   H1020     1.0  0.31766  0.77856  0.58237  1.0000
  H   H1021     1.0  0.27136  0.90644  0.53771  1.0000
  C   C1034     1.0  0.33109  0.79940  0.59366  1.0000
  H   H1022     1.0  0.32673  0.98118  0.36053  1.0000
  S   S350      1.0  0.26516  0.64815  0.47938  1.0000
  H   H1023     1.0  0.24481  0.89018  0.53042  1.0000
  H   H1024     1.0  0.37315  0.96982  0.46883  1.0000
  H   H1025     1.0  0.40594  0.66857  0.62856  1.0000
  H   H1026     1.0  0.41357  0.80744  0.39219  1.0000
  C   C1035     1.0  0.28383  0.52932  0.55544  1.0000
  C   C1036     1.0  0.36774  0.78107  0.57466  1.0000
  H   H1027     1.0  0.25640  0.70377  0.46705  1.0000
  C   C1037     1.0  0.47650  0.63395  0.34077  1.0000
  C   C1038     1.0  0.25545  0.87519  0.57761  1.0000
  N   N82       1.0  0.28379  0.71607  0.46086  1.0000
  H   H1028     1.0  0.39944  0.79350  0.58071  1.0000
  S   S351      1.0  0.46808  0.78861  0.63741  1.0000
  N   N83       1.0  0.41422  0.77429  0.44496  1.0000
  H   H1029     1.0  0.44308  0.75940  0.43245  1.0000
  C   C1039     1.0  0.25626  0.90790  0.58647  1.0000
  H   H1030     1.0  0.26273  0.95518  0.55249  1.0000
  N   N84       1.0  0.38414  0.96632  0.43827  1.0000
  H   H1031     1.0  0.39133  0.92549  0.41468  1.0000
  C   C1040     1.0  0.33158  0.78335  0.58349  1.0000
  H   H1032     1.0  0.24493  0.70119  0.52294  1.0000
  H   H1033     1.0  0.38896  0.97408  0.37380  1.0000
  S   S352      1.0  0.24555  0.50096  0.65046  1.0000
  C   C1041     1.0  0.46506  0.94923  0.37186  1.0000
  S   S353      1.0  0.48208  0.73439  0.39722  1.0000
  S   S354      1.0  0.24308  0.59796  0.49297  1.0000
  S   S355      1.0  0.43883  0.90492  0.33252  1.0000
  H   H1034     1.0  0.28525  0.74086  0.47519  1.0000
  H   H1035     1.0  0.43352  0.69765  0.54300  1.0000
  H   H1036     1.0  0.38602  0.80873  0.59931  1.0000
  H   H1037     1.0  0.26635  0.55527  0.52683  1.0000
  Fe  Fe173     1.0  0.46985  0.71685  0.62477  1.0000
  N   N85       1.0  0.40176  0.94693  0.60498  1.0000
  C   C1042     1.0  0.29362  0.72919  0.46657  1.0000
  C   C1043     1.0  0.35249  0.98257  0.62872  1.0000
  H   H1038     1.0  0.38618  0.81869  0.57281  1.0000
  C   C1044     1.0  0.39742  0.80104  0.42246  1.0000
  C   C1045     1.0  0.48603  0.82033  0.64038  1.0000
  S   S356      1.0  0.47789  0.78494  0.36351  1.0000
  H   H1039     1.0  0.34059  0.96323  0.61386  1.0000
  H   H1040     1.0  0.28664  0.69048  0.44611  1.0000
  C   C1046     1.0  0.26903  0.94559  0.54055  1.0000
  H   H1041     1.0  0.25749  0.57730  0.56961  1.0000
  H   H1042     1.0  0.42770  0.92540  0.61102  1.0000
  H   H1043     1.0  0.41827  0.68919  0.63013  1.0000
  C   C1047     1.0  0.31550  0.69876  0.44564  1.0000
  H   H1044     1.0  0.48913  0.63202  0.34881  1.0000
  N   N86       1.0  0.42376  0.68078  0.60097  1.0000
  C   C1048     1.0  0.41009  0.67883  0.58951  1.0000
  C   C1049     1.0  0.44102  0.68832  0.59198  1.0000
  C   C1050     1.0  0.41360  0.68445  0.56846  1.0000
  C   C1051     1.0  0.44490  0.69432  0.57100  1.0000
  C   C1052     1.0  0.43106  0.69239  0.55920  1.0000
  H   H1045     1.0  0.39612  0.67337  0.59659  1.0000
  H   H1046     1.0  0.45171  0.69001  0.60113  1.0000
  H   H1047     1.0  0.40236  0.68360  0.55950  1.0000
  C   C1053     1.0  0.38105  0.97598  0.57834  1.0000
  H   H1048     1.0  0.42254  0.76982  0.47406  1.0000
  C   C1054     1.0  0.43029  0.78306  0.41060  1.0000
  H   H1049     1.0  0.32242  0.73773  0.46654  1.0000
  H   H1050     1.0  0.43127  0.66389  0.33587  1.0000
  N   N87       1.0  0.36715  0.79671  0.58479  1.0000
  C   C1055     1.0  0.34913  0.80591  0.59419  1.0000
  C   C1056     1.0  0.48893  0.80121  0.63447  1.0000
  H   H1051     1.0  0.39942  0.76096  0.47355  1.0000
  H   H1052     1.0  0.25819  0.80218  0.55745  1.0000
  Fe  Fe174     1.0  0.41649  0.93081  0.32020  1.0000
  C   C1057     1.0  0.40177  0.97357  0.43014  1.0000
  H   H1053     1.0  0.24798  0.81397  0.51870  1.0000
  H   H1054     1.0  0.48582  0.93364  0.33136  1.0000
  C   C1058     1.0  0.48225  0.94879  0.32295  1.0000
  C   C1059     1.0  0.39086  0.98193  0.59182  1.0000
  C   C1060     1.0  0.39793  0.78899  0.44151  1.0000
  S   S357      1.0  0.46111  0.92438  0.37228  1.0000
  C   C1061     1.0  0.37596  0.97877  0.38462  1.0000
  H   H1055     1.0  0.34856  0.81897  0.60136  1.0000
  H   H1056     1.0  0.26322  0.86045  0.57444  1.0000
  H   H1057     1.0  0.25595  0.72431  0.47992  1.0000
  H   H1058     1.0  0.31678  0.80728  0.60042  1.0000
  C   C1062     1.0  0.41376  0.79810  0.40698  1.0000
  H   H1059     1.0  0.37250  0.98725  0.56829  1.0000
  H   H1060     1.0  0.40464  0.98726  0.43420  1.0000
  C   C1063     1.0  0.37044  0.94667  0.65015  1.0000
  C   C1064     1.0  0.45347  0.98561  0.36746  1.0000
  H   H1061     1.0  0.35047  0.76181  0.56575  1.0000
  H   H1062     1.0  0.36653  0.94335  0.43945  1.0000
  C   C1065     1.0  0.31465  0.72739  0.46193  1.0000
  S   S358      1.0  0.46414  0.70139  0.32575  1.0000
  C   C1066     1.0  0.36464  0.98361  0.64281  1.0000
  C   C1067     1.0  0.38051  0.94908  0.43309  1.0000
  H   H1063     1.0  0.39256  0.92499  0.59178  1.0000
  H   H1064     1.0  0.40843  0.97189  0.61582  1.0000
  H   H1065     1.0  0.41467  0.93777  0.63217  1.0000
  C   C1068     1.0  0.24389  0.57159  0.56925  1.0000
  C   C1069     1.0  0.29442  0.70111  0.45033  1.0000
  C   C1070     1.0  0.41621  0.96360  0.41626  1.0000
  Fe  Fe175     1.0  0.25046  0.51079  0.61665  1.0000
  H   H1066     1.0  0.24550  0.82224  0.57156  1.0000
  S   S359      1.0  0.24640  0.57151  0.44576  1.0000
  C   C1071     1.0  0.48392  0.95245  0.37452  1.0000
  H   H1067     1.0  0.49088  0.61145  0.32212  1.0000
  C   C1072     1.0  0.45872  0.95341  0.65061  1.0000
  H   H1068     1.0  0.45926  0.65862  0.35555  1.0000
  N   N88       1.0  0.26546  0.52785  0.54814  1.0000
  H   H1069     1.0  0.29738  0.52386  0.54486  1.0000
  C   C1073     1.0  0.24208  0.90637  0.53078  1.0000
  H   H1070     1.0  0.46127  0.67990  0.84538  1.0000
  Fe  Fe176     1.0  0.46282  0.62101  0.74747  1.0000
  H   H1071     1.0  0.41605  0.74315  0.96758  1.0000
  C   C1074     1.0  0.43914  0.55027  0.72011  1.0000
  Fe  Fe177     1.0  0.43755  0.58681  0.76085  1.0000
  S   S360      1.0  0.46110  0.56653  0.77743  1.0000
  S   S361      1.0  0.40874  0.57642  0.75831  1.0000
  Fe  Fe178     1.0  0.46410  0.59450  0.78861  1.0000
  H   H1072     1.0  0.49052  0.51363  0.73808  1.0000
  C   C1075     1.0  0.31149  0.97907  0.89997  1.0000
  Fe  Fe179     1.0  0.43741  0.83700  0.95173  1.0000
  S   S362      1.0  0.43872  0.61427  0.77424  1.0000
  S   S363      1.0  0.45926  0.59551  0.73261  1.0000
  H   H1073     1.0  0.46200  0.87321  0.95162  1.0000
  S   S364      1.0  0.44700  0.83774  0.98127  1.0000
  C   C1076     1.0  0.34215  0.80246  0.93861  1.0000
  C   C1077     1.0  0.40316  0.61389  0.86718  1.0000
  C   C1078     1.0  0.45565  0.54212  0.73010  1.0000
  C   C1079     1.0  0.37136  0.81083  0.91462  1.0000
  H   H1074     1.0  0.46556  0.55207  0.73182  1.0000
  C   C1080     1.0  0.34509  0.77425  0.96698  1.0000
  S   S365      1.0  0.26840  0.96555  0.82884  1.0000
  Fe  Fe180     1.0  0.25587  0.95590  0.86143  1.0000
  S   S366      1.0  0.26320  0.92287  0.87486  1.0000
  H   H1075     1.0  0.43598  0.56646  0.71468  1.0000
  C   C1081     1.0  0.38326  0.79441  0.92465  1.0000
  S   S367      1.0  0.48844  0.60274  0.76284  1.0000
  Fe  Fe181     1.0  0.40047  0.84610  0.93094  1.0000
  H   H1076     1.0  0.34291  0.75976  0.96321  1.0000
  S   S368      1.0  0.36739  0.85784  0.93049  1.0000
  Fe  Fe182     1.0  0.44046  0.85820  0.90829  1.0000
  S   S369      1.0  0.45898  0.83074  0.92357  1.0000
  S   S370      1.0  0.45148  0.88381  0.88520  1.0000
  Fe  Fe183     1.0  0.43569  0.81354  0.91919  1.0000
  S   S371      1.0  0.44487  0.78484  0.90549  1.0000
  H   H1077     1.0  0.25980  0.87627  0.93919  1.0000
  S   S372      1.0  0.41912  0.84051  0.90114  1.0000
  C   C1082     1.0  0.48469  0.80683  0.69029  1.0000
  Fe  Fe184     1.0  0.45341  0.63894  0.94016  1.0000
  S   S373      1.0  0.42695  0.64683  0.96393  1.0000
  N   N89       1.0  0.31144  0.95123  0.88307  1.0000
  Fe  Fe185     1.0  0.42968  0.65537  0.90558  1.0000
  S   S374      1.0  0.40144  0.66517  0.92662  1.0000
  S   S375      1.0  0.42799  0.66161  0.87212  1.0000
  Fe  Fe186     1.0  0.42176  0.67631  0.94272  1.0000
  S   S376      1.0  0.41524  0.70478  0.95684  1.0000
  Fe  Fe187     1.0  0.40927  0.63484  0.94574  1.0000
  S   S377      1.0  0.38431  0.61594  0.95634  1.0000
  S   S378      1.0  0.44937  0.66918  0.92004  1.0000
  S   S379      1.0  0.43630  0.62431  0.92359  1.0000
  C   C1083     1.0  0.43719  0.76243  0.92007  1.0000
  C   C1084     1.0  0.42897  0.76155  0.94058  1.0000
  C   C1085     1.0  0.42239  0.74374  0.95171  1.0000
  C   C1086     1.0  0.42403  0.72669  0.94245  1.0000
  C   C1087     1.0  0.43247  0.72746  0.92201  1.0000
  C   C1088     1.0  0.43905  0.74529  0.91086  1.0000
  H   H1078     1.0  0.42780  0.77450  0.94793  1.0000
  C   C1089     1.0  0.47602  0.67016  0.84127  1.0000
  H   H1079     1.0  0.43366  0.71445  0.91469  1.0000
  H   H1080     1.0  0.44538  0.74586  0.89500  1.0000
  C   C1090     1.0  0.25558  0.89164  0.93182  1.0000
  C   C1091     1.0  0.47615  0.51410  0.74897  1.0000
  H   H1081     1.0  0.44792  0.93195  0.69384  1.0000
  N   N90       1.0  0.35405  0.78680  0.94877  1.0000
  H   H1082     1.0  0.47520  0.49869  0.75776  1.0000
  H   H1083     1.0  0.48618  0.85649  0.89894  1.0000
  C   C1092     1.0  0.37429  0.78242  0.94177  1.0000
  H   H1084     1.0  0.48839  0.67897  0.83987  1.0000
  C   C1093     1.0  0.46253  0.95221  0.70467  1.0000
  H   H1085     1.0  0.46880  0.78483  0.68449  1.0000
  C   C1094     1.0  0.29981  0.98496  0.76117  1.0000
  C   C1095     1.0  0.29143  0.95310  0.91593  1.0000
  N   N91       1.0  0.47686  0.66276  0.82227  1.0000
  C   C1096     1.0  0.26166  0.89698  0.91090  1.0000
  C   C1097     1.0  0.47790  0.91821  0.69940  1.0000
  C   C1098     1.0  0.46795  0.66801  0.78901  1.0000
  C   C1099     1.0  0.46658  0.84556  0.85542  1.0000
  H   H1086     1.0  0.45266  0.64986  0.66656  1.0000
  H   H1087     1.0  0.36987  0.49444  0.80329  1.0000
  H   H1088     1.0  0.45466  0.92699  0.88857  1.0000
  C   C1100     1.0  0.34983  0.84756  0.95022  1.0000
  H   H1089     1.0  0.44987  0.96457  0.70355  1.0000
  C   C1101     1.0  0.43008  0.51690  0.72570  1.0000
  H   H1090     1.0  0.47396  0.69106  0.70855  1.0000
  H   H1091     1.0  0.47390  0.91099  0.85644  1.0000
  C   C1102     1.0  0.40686  0.55040  0.76533  1.0000
  C   C1103     1.0  0.39129  0.54292  0.75985  1.0000
  C   C1104     1.0  0.39056  0.52196  0.76378  1.0000
  C   C1105     1.0  0.40540  0.50846  0.77330  1.0000
  C   C1106     1.0  0.42040  0.51602  0.77955  1.0000
  C   C1107     1.0  0.42114  0.53687  0.77557  1.0000
  H   H1092     1.0  0.38009  0.55331  0.75205  1.0000
  H   H1093     1.0  0.37889  0.51626  0.75892  1.0000
  H   H1094     1.0  0.43181  0.50567  0.78709  1.0000
  H   H1095     1.0  0.43283  0.54239  0.78035  1.0000
  C   C1108     1.0  0.45668  0.61111  0.83511  1.0000
  C   C1109     1.0  0.46060  0.60965  0.85480  1.0000
  C   C1110     1.0  0.45171  0.62499  0.86635  1.0000
  C   C1111     1.0  0.43892  0.64193  0.85821  1.0000
  C   C1112     1.0  0.43503  0.64347  0.83849  1.0000
  C   C1113     1.0  0.44377  0.62801  0.82699  1.0000
  H   H1096     1.0  0.47742  0.90415  0.69438  1.0000
  H   H1097     1.0  0.45506  0.62381  0.88141  1.0000
  H   H1098     1.0  0.42523  0.65662  0.83207  1.0000
  H   H1099     1.0  0.44079  0.62933  0.81177  1.0000
  H   H1100     1.0  0.45984  0.67717  0.77728  1.0000
  C   C1114     1.0  0.46203  0.67821  0.66698  1.0000
  C   C1115     1.0  0.46812  0.68975  0.67888  1.0000
  C   C1116     1.0  0.46687  0.67460  0.80745  1.0000
  C   C1117     1.0  0.46479  0.66265  0.70805  1.0000
  C   C1118     1.0  0.45885  0.65107  0.69608  1.0000
  C   C1119     1.0  0.45740  0.65887  0.67566  1.0000
  H   H1101     1.0  0.35498  0.77094  0.97877  1.0000
  S   S380      1.0  0.25503  0.83905  0.96934  1.0000
  H   H1102     1.0  0.45518  0.63620  0.70260  1.0000
  H   H1103     1.0  0.38334  0.65592  0.88656  1.0000
  H   H1104     1.0  0.36628  0.64451  0.87661  1.0000
  H   H1105     1.0  0.45956  0.69192  0.95489  1.0000
  S   S381      1.0  0.26860  0.97871  0.87255  1.0000
  C   C1120     1.0  0.32100  0.82869  0.97891  1.0000
  C   C1121     1.0  0.45352  0.97251  0.65680  1.0000
  H   H1106     1.0  0.38684  0.62673  0.91339  1.0000
  H   H1107     1.0  0.45776  0.97958  0.81904  1.0000
  N   N92       1.0  0.47979  0.95498  0.71034  1.0000
  S   S382      1.0  0.46630  0.65357  0.73392  1.0000
  S   S383      1.0  0.41533  0.81763  0.94863  1.0000
  H   H1108     1.0  0.37822  0.82078  0.90183  1.0000
  C   C1122     1.0  0.38235  0.64557  0.87613  1.0000
  H   H1109     1.0  0.29885  0.84962  0.96342  1.0000
  H   H1110     1.0  0.38871  0.65271  0.86075  1.0000
  H   H1111     1.0  0.48274  0.82179  0.95463  1.0000
  C   C1123     1.0  0.48739  0.82752  0.96635  1.0000
  C   C1124     1.0  0.34165  0.82251  0.97973  1.0000
  C   C1125     1.0  0.42624  0.53756  0.71799  1.0000
  H   H1112     1.0  0.47655  0.52419  0.75987  1.0000
  H   H1113     1.0  0.28071  0.94693  0.92837  1.0000
  C   C1126     1.0  0.29774  0.97136  0.91614  1.0000
  H   H1114     1.0  0.47735  0.65736  0.85410  1.0000
  C   C1127     1.0  0.47757  0.88364  0.87834  1.0000
  S   S384      1.0  0.44826  0.98461  0.87558  1.0000
  N   N93       1.0  0.46778  0.91384  0.91480  1.0000
  H   H1115     1.0  0.29740  0.50679  0.70135  1.0000
  H   H1116     1.0  0.44902  0.49336  0.74237  1.0000
  C   C1128     1.0  0.47219  0.82806  0.86899  1.0000
  C   C1129     1.0  0.47294  0.83639  0.98097  1.0000
  C   C1130     1.0  0.25601  0.91682  0.90114  1.0000
  H   H1117     1.0  0.29357  0.92899  0.89908  1.0000
  H   H1118     1.0  0.32881  0.97492  0.87085  1.0000
  Fe  Fe188     1.0  0.48288  0.57671  0.75023  1.0000
  C   C1131     1.0  0.48840  0.91103  0.91025  1.0000
  H   H1119     1.0  0.29194  0.97957  0.92876  1.0000
  C   C1132     1.0  0.48831  0.64444  0.81912  1.0000
  C   C1133     1.0  0.31475  0.84474  0.96411  1.0000
  H   H1120     1.0  0.30172  0.97317  0.75198  1.0000
  H   H1121     1.0  0.44198  0.90217  0.93239  1.0000
  C   C1134     1.0  0.49061  0.88106  0.93583  1.0000
  H   H1122     1.0  0.48539  0.69365  0.95438  1.0000
  S   S385      1.0  0.42059  0.86587  0.93676  1.0000
  C   C1135     1.0  0.48457  0.89898  0.86328  1.0000
  H   H1123     1.0  0.32428  0.86620  0.93802  1.0000
  H   H1124     1.0  0.47068  0.59665  0.86110  1.0000
  C   C1136     1.0  0.41579  0.58717  0.89265  1.0000
  C   C1137     1.0  0.45833  0.90033  0.92927  1.0000
  H   H1125     1.0  0.47866  0.66965  0.95280  1.0000
  H   H1126     1.0  0.41298  0.54382  0.71090  1.0000
  H   H1127     1.0  0.45665  0.61890  0.98368  1.0000
  H   H1128     1.0  0.47104  0.81730  0.69438  1.0000
  C   C1138     1.0  0.39454  0.61780  0.90176  1.0000
  H   H1129     1.0  0.46276  0.94481  0.90060  1.0000
  H   H1130     1.0  0.47731  0.86953  0.83278  1.0000
  N   N94       1.0  0.45900  0.52197  0.73811  1.0000
  H   H1131     1.0  0.33121  0.98805  0.75478  1.0000
  H   H1132     1.0  0.32613  0.80606  0.94422  1.0000
  C   C1139     1.0  0.48353  0.78841  0.68469  1.0000
  H   H1133     1.0  0.48451  0.75682  0.66812  1.0000
  H   H1134     1.0  0.41981  0.50697  0.72467  1.0000
  H   H1135     1.0  0.42483  0.57251  0.89685  1.0000
  C   C1140     1.0  0.41452  0.59476  0.87234  1.0000
  H   H1136     1.0  0.32067  0.95227  0.85123  1.0000
  H   H1137     1.0  0.47165  0.70468  0.67235  1.0000
  C   C1141     1.0  0.30323  0.49175  0.69771  1.0000
  C   C1142     1.0  0.24378  0.90615  0.94301  1.0000
  C   C1143     1.0  0.44664  0.50930  0.73578  1.0000
  C   C1144     1.0  0.35606  0.83196  0.96543  1.0000
  N   N95       1.0  0.47120  0.67787  0.98200  1.0000
  H   H1138     1.0  0.33026  0.78218  0.97384  1.0000
  H   H1139     1.0  0.42265  0.58612  0.86059  1.0000
  H   H1140     1.0  0.46049  0.82057  0.87894  1.0000
  C   C1145     1.0  0.40551  0.59861  0.90750  1.0000
  C   C1146     1.0  0.31806  0.94104  0.86530  1.0000
  C   C1147     1.0  0.48603  0.96554  0.86182  1.0000
  H   H1141     1.0  0.47925  0.95212  0.86345  1.0000
  H   H1142     1.0  0.30626  0.93278  0.86322  1.0000
  H   H1143     1.0  0.44025  0.93464  0.91160  1.0000
  H   H1144     1.0  0.48613  0.79296  0.88905  1.0000
  H   H1145     1.0  0.45779  0.68911  0.80993  1.0000
  S   S386      1.0  0.46883  0.59195  0.82092  1.0000
  H   H1146     1.0  0.40630  0.59292  0.92339  1.0000
  H   H1147     1.0  0.38366  0.76975  0.94958  1.0000
  C   C1148     1.0  0.24468  0.93147  0.91241  1.0000
  H   H1148     1.0  0.27061  0.88567  0.90223  1.0000
  H   H1149     1.0  0.37012  0.54898  0.97945  1.0000
  C   C1149     1.0  0.47946  0.64931  0.78577  1.0000
  H   H1150     1.0  0.40242  0.61976  0.85134  1.0000
  C   C1150     1.0  0.46957  0.88383  0.94009  1.0000
  C   C1151     1.0  0.46940  0.68201  0.69937  1.0000
  H   H1151     1.0  0.37195  0.82692  0.96596  1.0000
  C   C1152     1.0  0.46131  0.93380  0.69915  1.0000
  N   N96       1.0  0.39383  0.62536  0.88179  1.0000
  H   H1152     1.0  0.35336  0.59438  0.97987  1.0000
  C   C1153     1.0  0.48735  0.62331  0.97223  1.0000
  C   C1154     1.0  0.32915  0.85411  0.94975  1.0000
  C   C1155     1.0  0.45580  0.93087  0.90334  1.0000
  H   H1153     1.0  0.39937  0.79120  0.91935  1.0000
  C   C1156     1.0  0.29869  0.94304  0.89927  1.0000
  H   H1154     1.0  0.35134  0.52464  0.97097  1.0000
  C   C1157     1.0  0.47387  0.68355  0.95993  1.0000
  C   C1158     1.0  0.31832  0.96869  0.88350  1.0000
  H   H1155     1.0  0.33220  0.93013  0.86704  1.0000
  S   S387      1.0  0.48492  0.62693  0.94657  1.0000
  H   H1156     1.0  0.38281  0.96610  0.66460  1.0000
  H   H1157     1.0  0.34140  0.82788  0.91411  1.0000
  C   C1159     1.0  0.35064  0.81476  0.92146  1.0000
  C   C1160     1.0  0.47423  0.98353  0.86720  1.0000
  H   H1158     1.0  0.45074  0.85180  0.85522  1.0000
  C   C1161     1.0  0.38267  0.60113  0.98065  1.0000
  H   H1159     1.0  0.48028  0.64404  0.77159  1.0000
  C   C1162     1.0  0.36053  0.51993  0.98290  1.0000
  H   H1160     1.0  0.37740  0.93277  0.65854  1.0000
  C   C1163     1.0  0.46837  0.98147  0.66156  1.0000
  C   C1164     1.0  0.48969  0.63739  0.80088  1.0000
  H   H1161     1.0  0.43797  0.98001  0.65843  1.0000
  H   H1162     1.0  0.46637  0.98441  0.71762  1.0000
  H   H1163     1.0  0.33418  0.49653  0.82041  1.0000
  C   C1165     1.0  0.48143  0.97479  0.71474  1.0000
  H   H1164     1.0  0.28441  0.49498  0.67480  1.0000
  C   C1166     1.0  0.48849  0.97178  0.65929  1.0000
  C   C1167     1.0  0.48149  0.85552  0.84282  1.0000
  H   H1165     1.0  0.26769  0.98536  0.77052  1.0000
  H   H1166     1.0  0.44041  0.67460  0.98448  1.0000
  Fe  Fe189     1.0  0.27877  0.99009  0.83994  1.0000
  C   C1168     1.0  0.49142  0.86820  0.88717  1.0000
  H   H1167     1.0  0.41161  0.60493  0.98599  1.0000
  C   C1169     1.0  0.37352  0.96554  0.65364  1.0000
  H   H1168     1.0  0.49039  0.98309  0.70149  1.0000
  H   H1169     1.0  0.48879  0.97298  0.72828  1.0000
  C   C1170     1.0  0.65133  0.43529  0.01445  1.0000
  Fe  Fe190     1.0  0.52105  0.35899  0.22191  1.0000
  S   S388      1.0  0.53976  0.38389  0.20845  1.0000
  Fe  Fe191     1.0  0.64571  0.44413  0.20798  1.0000
  S   S389      1.0  0.65175  0.41732  0.23220  1.0000
  S   S390      1.0  0.65559  0.44338  0.17436  1.0000
  Fe  Fe192     1.0  0.62599  0.47228  0.23884  1.0000
  S   S391      1.0  0.62979  0.44717  0.26517  1.0000
  Fe  Fe193     1.0  0.66112  0.43901  0.24865  1.0000
  S   S392      1.0  0.69032  0.43284  0.26220  1.0000
  Fe  Fe194     1.0  0.61989  0.42826  0.24632  1.0000
  S   S393      1.0  0.59733  0.40700  0.26019  1.0000
  S   S394      1.0  0.65775  0.46492  0.22298  1.0000
  S   S395      1.0  0.61336  0.45419  0.22140  1.0000
  H   H1170     1.0  0.56652  0.41324  0.19919  1.0000
  Fe  Fe195     1.0  0.69808  0.10632  0.02295  1.0000
  S   S396      1.0  0.68644  0.08898  0.05321  1.0000
  H   H1171     1.0  0.51750  0.03720  0.10332  1.0000
  C   C1171     1.0  0.69957  0.04559  0.14616  1.0000
  C   C1172     1.0  0.62209  0.01430  0.14139  1.0000
  C   C1173     1.0  0.64302  0.32681  0.99205  1.0000
  H   H1172     1.0  0.57519  0.12279  0.99928  1.0000
  Fe  Fe196     1.0  0.57026  0.02952  0.15077  1.0000
  S   S397      1.0  0.55275  0.05854  0.16015  1.0000
  C   C1174     1.0  0.50654  0.27388  0.28914  1.0000
  Fe  Fe197     1.0  0.54108  0.03889  0.18881  1.0000
  S   S398      1.0  0.53598  0.05098  0.21828  1.0000
  Fe  Fe198     1.0  0.52730  0.05159  0.14770  1.0000
  N   N97       1.0  0.50241  0.30822  0.10606  1.0000
  Fe  Fe199     1.0  0.51602  0.32111  0.25332  1.0000
  H   H1173     1.0  0.53328  0.31164  0.13813  1.0000
  C   C1175     1.0  0.51402  0.29997  0.00258  1.0000
  S   S399      1.0  0.68922  0.13990  0.01306  1.0000
  H   H1174     1.0  0.70992  0.45721  0.00454  1.0000
  C   C1176     1.0  0.59627  0.34337  0.24028  1.0000
  C   C1177     1.0  0.65926  0.47325  0.03804  1.0000
  C   C1178     1.0  0.69853  0.39140  0.14509  1.0000
  H   H1175     1.0  0.67668  0.41095  0.01528  1.0000
  N   N98       1.0  0.71065  0.38103  0.13075  1.0000
  Fe  Fe200     1.0  0.65251  0.37381  0.09771  1.0000
  S   S400      1.0  0.67056  0.34598  0.08583  1.0000
  S   S401      1.0  0.64248  0.37294  0.13164  1.0000
  Fe  Fe201     1.0  0.65335  0.39780  0.05519  1.0000
  S   S402      1.0  0.67215  0.37234  0.04004  1.0000
  S   S403      1.0  0.63909  0.42741  0.03893  1.0000
  Fe  Fe202     1.0  0.65124  0.35307  0.06110  1.0000
  S   S404      1.0  0.63366  0.33156  0.05228  1.0000
  Fe  Fe203     1.0  0.68980  0.36773  0.06582  1.0000
  S   S405      1.0  0.72395  0.35951  0.06316  1.0000
  S   S406      1.0  0.63153  0.37897  0.07503  1.0000
  S   S407      1.0  0.67270  0.39507  0.07898  1.0000
  C   C1179     1.0  0.66984  0.42459  0.00652  1.0000
  C   C1180     1.0  0.64278  0.45319  0.00312  1.0000
  C   C1181     1.0  0.52557  0.28199  0.01060  1.0000
  H   H1176     1.0  0.58313  0.44745  0.26895  1.0000
  C   C1182     1.0  0.70539  0.40625  0.15234  1.0000
  C   C1183     1.0  0.63176  0.32608  0.02828  1.0000
  C   C1184     1.0  0.64514  0.33163  0.01068  1.0000
  H   H1177     1.0  0.54291  0.10207  0.29256  1.0000
  C   C1185     1.0  0.61388  0.31130  0.00824  1.0000
  C   C1186     1.0  0.61621  0.31582  0.02692  1.0000
  H   H1178     1.0  0.65725  0.33942  0.01146  1.0000
  H   H1179     1.0  0.60175  0.30354  0.00747  1.0000
  H   H1180     1.0  0.60582  0.31137  0.04043  1.0000
  H   H1181     1.0  0.63753  0.08149  0.12674  1.0000
  C   C1187     1.0  0.50020  0.29495  0.09237  1.0000
  C   C1188     1.0  0.72948  0.39584  0.07226  1.0000
  H   H1182     1.0  0.58256  0.48201  0.27612  1.0000
  H   H1183     1.0  0.71380  0.40131  0.07107  1.0000
  H   H1184     1.0  0.58962  0.42215  0.21881  1.0000
  H   H1185     1.0  0.56797  0.38037  0.27043  1.0000
  C   C1189     1.0  0.53781  0.09334  0.28284  1.0000
  N   N99       1.0  0.73088  0.03248  0.03491  1.0000
  C   C1190     1.0  0.54036  0.03476  0.24094  1.0000
  C   C1191     1.0  0.53122  0.04138  0.25922  1.0000
  C   C1192     1.0  0.53658  0.03060  0.27759  1.0000
  C   C1193     1.0  0.55099  0.01296  0.27794  1.0000
  C   C1194     1.0  0.55955  0.00581  0.25970  1.0000
  C   C1195     1.0  0.55427  0.01671  0.24119  1.0000
  H   H1186     1.0  0.66758  0.44630  0.05924  1.0000
  H   H1187     1.0  0.53003  0.03646  0.29128  1.0000
  C   C1196     1.0  0.65764  0.99928  0.13619  1.0000
  H   H1188     1.0  0.56149  0.01156  0.22711  1.0000
  S   S408      1.0  0.55944  0.00041  0.30072  1.0000
  C   C1197     1.0  0.49931  0.27790  0.03989  1.0000
  H   H1189     1.0  0.67542  0.47864  0.31319  1.0000
  C   C1198     1.0  0.49406  0.32842  0.31391  1.0000
  Fe  Fe204     1.0  0.50508  0.32388  0.21131  1.0000
  H   H1190     1.0  0.57367  0.34420  0.19999  1.0000
  C   C1199     1.0  0.70405  0.07257  0.06685  1.0000
  C   C1200     1.0  0.69847  0.05480  0.07889  1.0000
  C   C1201     1.0  0.71150  0.04222  0.09135  1.0000
  C   C1202     1.0  0.59179  0.16807  0.99050  1.0000
  H   H1191     1.0  0.64457  0.47699  0.04704  1.0000
  C   C1203     1.0  0.62731  0.31675  0.99066  1.0000
  H   H1192     1.0  0.68385  0.05096  0.07890  1.0000
  H   H1193     1.0  0.70668  0.02902  0.10108  1.0000
  C   C1204     1.0  0.51827  0.27103  0.02928  1.0000
  H   H1194     1.0  0.59497  0.03265  0.26118  1.0000
  N   N100      1.0  0.59453  0.36341  0.20091  1.0000
  C   C1205     1.0  0.73057  0.00011  0.05659  1.0000
  H   H1195     1.0  0.70058  0.43624  0.03805  1.0000
  C   C1206     1.0  0.69624  0.44570  0.28012  1.0000
  C   C1207     1.0  0.71647  0.44348  0.28292  1.0000
  C   C1208     1.0  0.72199  0.45418  0.29623  1.0000
  C   C1209     1.0  0.70726  0.46701  0.30719  1.0000
  C   C1210     1.0  0.49832  0.25770  0.30200  1.0000
  C   C1211     1.0  0.68149  0.45833  0.29127  1.0000
  H   H1196     1.0  0.53862  0.28100  0.31847  1.0000
  C   C1212     1.0  0.51878  0.30373  0.11588  1.0000
  C   C1213     1.0  0.55923  0.07490  0.25664  1.0000
  C   C1214     1.0  0.65027  0.42433  0.16282  1.0000
  C   C1215     1.0  0.65338  0.42660  0.14160  1.0000
  C   C1216     1.0  0.65048  0.41122  0.13185  1.0000
  C   C1217     1.0  0.64469  0.39329  0.14326  1.0000
  C   C1218     1.0  0.64158  0.39101  0.16448  1.0000
  C   C1219     1.0  0.64421  0.40651  0.17426  1.0000
  H   H1197     1.0  0.65812  0.44032  0.13266  1.0000
  H   H1198     1.0  0.65285  0.41323  0.11552  1.0000
  H   H1199     1.0  0.63769  0.37695  0.17335  1.0000
  H   H1200     1.0  0.64210  0.40451  0.19060  1.0000
  C   C1220     1.0  0.52097  0.28245  0.29509  1.0000
  H   H1201     1.0  0.59637  0.36498  0.02336  1.0000
  H   H1202     1.0  0.70982  0.05885  0.02712  1.0000
  H   H1203     1.0  0.61671  0.36353  0.24113  1.0000
  H   H1204     1.0  0.70491  0.35106  0.13318  1.0000
  S   S409      1.0  0.54566  0.02405  0.13605  1.0000
  C   C1221     1.0  0.55442  0.39140  0.22352  1.0000
  C   C1222     1.0  0.55476  0.38233  0.24369  1.0000
  C   C1223     1.0  0.56763  0.38764  0.25489  1.0000
  C   C1224     1.0  0.58045  0.40183  0.24596  1.0000
  C   C1225     1.0  0.57983  0.41120  0.22589  1.0000
  C   C1226     1.0  0.56675  0.40610  0.21478  1.0000
  H   H1205     1.0  0.54537  0.37098  0.25059  1.0000
  H   H1206     1.0  0.50214  0.00919  0.29876  1.0000
  H   H1207     1.0  0.64158  0.01647  0.11246  1.0000
  H   H1208     1.0  0.71075  0.36396  0.10748  1.0000
  C   C1227     1.0  0.49204  0.05062  0.08812  1.0000
  C   C1228     1.0  0.62467  0.38770  0.01964  1.0000
  H   H1209     1.0  0.68286  0.02275  0.16431  1.0000
  H   H1210     1.0  0.73371  0.05704  0.01021  1.0000
  H   H1211     1.0  0.55936  0.06588  0.30680  1.0000
  H   H1212     1.0  0.71598  0.04152  0.00898  1.0000
  H   H1213     1.0  0.53023  0.29061  0.11334  1.0000
  H   H1214     1.0  0.52049  0.05535  0.25909  1.0000
  N   N101      1.0  0.61890  0.37998  0.00334  1.0000
  C   C1229     1.0  0.69597  0.46188  0.01435  1.0000
  H   H1215     1.0  0.55670  0.44132  0.25163  1.0000
  S   S410      1.0  0.51132  0.07615  0.12627  1.0000
  C   C1230     1.0  0.68697  0.46876  0.30482  1.0000
  H   H1216     1.0  0.57072  0.99216  0.25982  1.0000
  S   S411      1.0  0.50657  0.30539  0.18652  1.0000
  H   H1217     1.0  0.71345  0.03928  0.15220  1.0000
  C   C1231     1.0  0.58395  0.04553  0.26539  1.0000
  H   H1218     1.0  0.54014  0.27653  0.00245  1.0000
  C   C1232     1.0  0.64055  0.01064  0.12848  1.0000
  H   H1219     1.0  0.65071  0.07348  0.10318  1.0000
  C   C1233     1.0  0.52071  0.31564  0.12975  1.0000
  S   S412      1.0  0.73722  0.16601  0.98897  1.0000
  C   C1234     1.0  0.69071  0.45011  0.03310  1.0000
  H   H1220     1.0  0.72801  0.43375  0.27437  1.0000
  C   C1235     1.0  0.70291  0.36590  0.12302  1.0000
  C   C1236     1.0  0.73825  0.37624  0.06865  1.0000
  C   C1237     1.0  0.62076  0.00664  0.16204  1.0000
  Fe  Fe205     1.0  0.53460  0.00719  0.16643  1.0000
  C   C1238     1.0  0.59348  0.37401  0.18017  1.0000
  H   H1221     1.0  0.61522  0.38088  0.20606  1.0000
  H   H1222     1.0  0.59722  0.38954  0.17801  1.0000
  H   H1223     1.0  0.60420  0.36539  0.16916  1.0000
  H   H1224     1.0  0.57791  0.37589  0.17672  1.0000
  C   C1239     1.0  0.57502  0.13904  0.99541  1.0000
  H   H1225     1.0  0.69544  0.41485  0.16329  1.0000
  C   C1240     1.0  0.50057  0.99866  0.31341  1.0000
  N   N102      1.0  0.55415  0.07729  0.27655  1.0000
  C   C1241     1.0  0.57427  0.05907  0.25075  1.0000
  N   N103      1.0  0.66476  0.06071  0.12912  1.0000
  Fe  Fe206     1.0  0.73897  0.00191  0.12390  1.0000
  H   H1226     1.0  0.49854  0.27982  0.16118  1.0000
  H   H1227     1.0  0.67174  0.99632  0.12612  1.0000
  C   C1242     1.0  0.55634  0.45633  0.25505  1.0000
  H   H1228     1.0  0.52976  0.46967  0.24187  1.0000
  H   H1229     1.0  0.62662  0.37534  0.03274  1.0000
  C   C1243     1.0  0.73575  0.06517  0.07983  1.0000
  H   H1230     1.0  0.66586  0.46012  0.28940  1.0000
  S   S413      1.0  0.56081  0.01021  0.18051  1.0000
  H   H1231     1.0  0.50664  0.34091  0.14500  1.0000
  C   C1244     1.0  0.50278  0.03548  0.10079  1.0000
  C   C1245     1.0  0.73018  0.38411  0.12427  1.0000
  H   H1232     1.0  0.65164  0.03732  0.14992  1.0000
  H   H1233     1.0  0.50226  0.00679  0.12067  1.0000
  C   C1246     1.0  0.57120  0.45974  0.26480  1.0000
  H   H1234     1.0  0.68112  0.08329  0.11083  1.0000
  H   H1235     1.0  0.60658  0.00947  0.17207  1.0000
  H   H1236     1.0  0.61291  0.40025  0.02466  1.0000
  C   C1247     1.0  0.57866  0.04808  0.28564  1.0000
  C   C1248     1.0  0.55803  0.15190  0.98902  1.0000
  H   H1237     1.0  0.52733  0.25719  0.03548  1.0000
  H   H1238     1.0  0.68658  0.37071  0.12202  1.0000
  H   H1239     1.0  0.57761  0.05674  0.23507  1.0000
  C   C1249     1.0  0.58414  0.33794  0.22863  1.0000
  C   C1250     1.0  0.60676  0.36856  0.21212  1.0000
  S   S414      1.0  0.53374  0.32601  0.22193  1.0000
  H   H1240     1.0  0.62844  0.46148  0.00919  1.0000
  H   H1241     1.0  0.68340  0.38830  0.15091  1.0000
  H   H1242     1.0  0.49325  0.28182  0.10116  1.0000
  C   C1251     1.0  0.58353  0.34812  0.20880  1.0000
  C   C1252     1.0  0.66497  0.04438  0.14439  1.0000
  C   C1253     1.0  0.64659  0.06847  0.11976  1.0000
  C   C1254     1.0  0.68125  0.07028  0.12291  1.0000
  C   C1255     1.0  0.60773  0.35871  0.23199  1.0000
  C   C1256     1.0  0.72505  0.41001  0.14526  1.0000
  H   H1243     1.0  0.71218  0.07007  0.12595  1.0000
  H   H1244     1.0  0.51503  0.28911  0.08376  1.0000
  H   H1245     1.0  0.59644  0.33600  0.25586  1.0000
  H   H1246     1.0  0.55118  0.08473  0.24522  1.0000
  H   H1247     1.0  0.57491  0.32626  0.23507  1.0000
  C   C1257     1.0  0.73003  0.04752  0.09214  1.0000
  H   H1248     1.0  0.72716  0.09140  0.05788  1.0000
  C   C1258     1.0  0.56366  0.06416  0.29098  1.0000
  S   S415      1.0  0.68689  0.09762  0.99754  1.0000
  N   N104      1.0  0.66469  0.48488  0.01977  1.0000
  S   S416      1.0  0.60100  0.02824  0.13115  1.0000
  C   C1259     1.0  0.69885  0.06293  0.13141  1.0000
  S   S417      1.0  0.73038  0.10514  0.00749  1.0000
  C   C1260     1.0  0.67226  0.45583  0.04506  1.0000
  C   C1261     1.0  0.54116  0.47240  0.24963  1.0000
  S   S418      1.0  0.53055  0.30373  0.28006  1.0000
  C   C1262     1.0  0.49500  0.30683  0.01319  1.0000
  H   H1249     1.0  0.53270  0.10420  0.26972  1.0000
  H   H1250     1.0  0.50162  0.27975  0.27469  1.0000
  H   H1251     1.0  0.70982  0.01287  0.03575  1.0000
  C   C1263     1.0  0.72288  0.07757  0.06700  1.0000
  H   H1252     1.0  0.60510  0.17449  0.99056  1.0000
  C   C1264     1.0  0.68249  0.03629  0.15283  1.0000
  H   H1253     1.0  0.63695  0.05659  0.12164  1.0000
  S   S419      1.0  0.51401  0.03435  0.17709  1.0000
  H   H1254     1.0  0.73407  0.42349  0.08045  1.0000
  H   H1255     1.0  0.50122  0.33685  0.29955  1.0000
  S   S420      1.0  0.50530  0.35439  0.25401  1.0000
  S   S421      1.0  0.73006  0.99240  0.15740  1.0000
  H   H1256     1.0  0.58635  0.35137  0.99629  1.0000
  H   H1257     1.0  0.58564  0.03722  0.29720  1.0000
  H   H1258     1.0  0.69048  0.18940  0.99226  1.0000
  C   C1265     1.0  0.60366  0.36869  0.00782  1.0000
  C   C1266     1.0  0.59790  0.36099  0.99260  1.0000
  Fe  Fe207     1.0  0.72088  0.13841  0.99559  1.0000
  C   C1267     1.0  0.72214  0.04823  0.01961  1.0000
  H   H1259     1.0  0.67696  0.22620  0.98820  1.0000
  C   C1268     1.0  0.50573  0.33215  0.13359  1.0000
  C   C1269     1.0  0.57075  0.47907  0.26902  1.0000
  C   C1270     1.0  0.74105  0.40845  0.07746  1.0000
  H   H1260     1.0  0.63919  0.39360  0.01481  1.0000
  H   H1261     1.0  0.52470  0.08649  0.29178  1.0000
  C   C1271     1.0  0.72263  0.01514  0.04175  1.0000
  C   C1272     1.0  0.52738  0.27450  0.31382  1.0000
  H   H1262     1.0  0.60539  0.13740  0.00077  1.0000
  C   C1273     1.0  0.63788  0.99537  0.16975  1.0000
  H   H1263     1.0  0.73055  0.42158  0.15063  1.0000
  H   H1264     1.0  0.69309  0.47267  0.23748  1.0000
  C   C1274     1.0  0.49411  0.01856  0.11069  1.0000
  C   C1275     1.0  0.59195  0.14724  0.99623  1.0000
  H   H1265     1.0  0.54502  0.14535  0.98819  1.0000
  S   S422      1.0  0.49384  0.35738  0.20856  1.0000
  C   C1276     1.0  0.67993  0.43203  0.98739  1.0000
  C   C1277     1.0  0.70162  0.48423  0.23959  1.0000
  H   H1266     1.0  0.71573  0.47556  0.24481  1.0000
  H   H1267     1.0  0.73771  0.45290  0.29754  1.0000
  H   H1268     1.0  0.49878  0.06388  0.08079  1.0000
  C   C1278     1.0  0.68270  0.47929  0.00788  1.0000
  C   C1279     1.0  0.49392  0.10597  0.98896  1.0000
  H   H1269     1.0  0.68668  0.48795  0.99302  1.0000
  C   C1280     1.0  0.73763  0.39873  0.13130  1.0000
  H   H1270     1.0  0.49297  0.00946  0.16237  1.0000
  H   H1271     1.0  0.74004  0.37545  0.11337  1.0000
  H   H1272     1.0  0.51616  0.99198  0.31626  1.0000
  C   C1281     1.0  0.65634  0.99168  0.15686  1.0000
  H   H1273     1.0  0.74192  0.32004  0.04514  1.0000
  Fe  Fe208     1.0  0.63353  0.22706  0.50728  1.0000
  S   S423      1.0  0.60078  0.23243  0.50344  1.0000
  S   S424      1.0  0.65572  0.24700  0.48846  1.0000
  Fe  Fe209     1.0  0.63005  0.18692  0.53522  1.0000
  S   S425      1.0  0.59719  0.18896  0.53419  1.0000
  S   S426      1.0  0.64780  0.15984  0.55238  1.0000
  Fe  Fe210     1.0  0.60543  0.19949  0.50092  1.0000
  S   S427      1.0  0.59324  0.18416  0.48048  1.0000
  Fe  Fe211     1.0  0.59490  0.22152  0.53702  1.0000
  S   S428      1.0  0.56662  0.23678  0.55469  1.0000
  S   S429      1.0  0.63859  0.19481  0.50167  1.0000
  S   S430      1.0  0.62727  0.21881  0.54117  1.0000
  S   S431      1.0  0.59704  0.00037  0.60259  1.0000
  S   S432      1.0  0.72864  0.34382  0.50889  1.0000
  Fe  Fe212     1.0  0.51935  0.21387  0.40500  1.0000
  S   S433      1.0  0.51602  0.18143  0.41658  1.0000
  S   S434      1.0  0.53234  0.23235  0.42210  1.0000
  Fe  Fe213     1.0  0.52883  0.17634  0.38493  1.0000
  S   S435      1.0  0.55208  0.14794  0.38340  1.0000
  H   H1274     1.0  0.69027  0.40888  0.41163  1.0000
  Fe  Fe214     1.0  0.50906  0.01850  0.36088  1.0000
  S   S436      1.0  0.53445  0.20839  0.37373  1.0000
  C   C1282     1.0  0.70265  0.20558  0.53953  1.0000
  C   C1283     1.0  0.69464  0.42927  0.38323  1.0000
  S   S437      1.0  0.52804  0.18503  0.63541  1.0000
  H   H1275     1.0  0.52371  0.25269  0.34136  1.0000
  H   H1276     1.0  0.67448  0.17993  0.52078  1.0000
  Fe  Fe215     1.0  0.73411  0.31162  0.50298  1.0000
  C   C1284     1.0  0.68976  0.20427  0.50379  1.0000
  H   H1277     1.0  0.73012  0.01125  0.61118  1.0000
  H   H1278     1.0  0.73664  0.37342  0.53142  1.0000
  C   C1285     1.0  0.53693  0.10321  0.34878  1.0000
  S   S438      1.0  0.72102  0.44957  0.62393  1.0000
  H   H1279     1.0  0.58504  0.99637  0.56328  1.0000
  C   C1286     1.0  0.73802  0.42392  0.34076  1.0000
  S   S439      1.0  0.52922  0.08640  0.33638  1.0000
  Fe  Fe216     1.0  0.63718  0.04821  0.55494  1.0000
  S   S440      1.0  0.63522  0.03800  0.58844  1.0000
  S   S441      1.0  0.62358  0.07896  0.53990  1.0000
  Fe  Fe217     1.0  0.66662  0.02107  0.58060  1.0000
  H   H1280     1.0  0.70516  0.00990  0.52101  1.0000
  C   C1287     1.0  0.51498  0.11232  0.41759  1.0000
  H   H1281     1.0  0.54983  0.18635  0.51483  1.0000
  S   S442      1.0  0.66944  0.03375  0.54755  1.0000
  S   S443      1.0  0.62463  0.02186  0.54977  1.0000
  Fe  Fe218     1.0  0.73574  0.43382  0.65069  1.0000
  C   C1288     1.0  0.52076  0.22279  0.48650  1.0000
  H   H1282     1.0  0.51880  0.12926  0.33388  1.0000
  S   S444      1.0  0.52196  0.03659  0.37785  1.0000
  H   H1283     1.0  0.68132  0.26838  0.54251  1.0000
  C   C1289     1.0  0.72234  0.23232  0.52284  1.0000
  C   C1290     1.0  0.71280  0.02881  0.58863  1.0000
  S   S445      1.0  0.72357  0.38116  0.45867  1.0000
  S   S446      1.0  0.49862  0.18197  0.37505  1.0000
  H   H1284     1.0  0.73633  0.30560  0.54799  1.0000
  C   C1291     1.0  0.73627  0.45730  0.55005  1.0000
  C   C1292     1.0  0.71288  0.04382  0.57141  1.0000
  N   N105      1.0  0.49323  0.11413  0.38666  1.0000
  H   H1285     1.0  0.56553  0.10505  0.38388  1.0000
  C   C1293     1.0  0.68396  0.19083  0.52119  1.0000
  H   H1286     1.0  0.69949  0.04880  0.56442  1.0000
  H   H1287     1.0  0.70638  0.22859  0.49100  1.0000
  H   H1288     1.0  0.68429  0.20437  0.48985  1.0000
  H   H1289     1.0  0.72349  0.24397  0.50895  1.0000
  C   C1294     1.0  0.73662  0.49024  0.52930  1.0000
  C   C1295     1.0  0.51729  0.09564  0.40777  1.0000
  H   H1290     1.0  0.52390  0.11189  0.42923  1.0000
  Fe  Fe219     1.0  0.62503  0.01039  0.58282  1.0000
  H   H1291     1.0  0.72131  0.38457  0.40261  1.0000
  Fe  Fe220     1.0  0.55009  0.01331  0.37316  1.0000
  S   S447      1.0  0.51865  0.03683  0.33102  1.0000
  H   H1292     1.0  0.69949  0.35514  0.60985  1.0000
  C   C1296     1.0  0.54667  0.13090  0.36959  1.0000
  C   C1297     1.0  0.53358  0.13765  0.35541  1.0000
  C   C1298     1.0  0.73015  0.02273  0.59777  1.0000
  C   C1299     1.0  0.55527  0.11031  0.37302  1.0000
  H   H1293     1.0  0.52732  0.15356  0.35228  1.0000
  H   H1294     1.0  0.68111  0.44004  0.38699  1.0000
  Fe  Fe221     1.0  0.65680  0.00642  0.54533  1.0000
  C   C1300     1.0  0.67016  0.26057  0.49835  1.0000
  C   C1301     1.0  0.68381  0.27178  0.48487  1.0000
  C   C1302     1.0  0.69661  0.28165  0.49206  1.0000
  C   C1303     1.0  0.69588  0.28040  0.51287  1.0000
  C   C1304     1.0  0.68201  0.26944  0.52638  1.0000
  C   C1305     1.0  0.66924  0.25951  0.51918  1.0000
  H   H1295     1.0  0.68462  0.27267  0.46873  1.0000
  H   H1296     1.0  0.70723  0.28997  0.48149  1.0000
  H   H1297     1.0  0.65882  0.25092  0.52971  1.0000
  C   C1306     1.0  0.57547  0.19811  0.46550  1.0000
  C   C1307     1.0  0.56478  0.18748  0.45676  1.0000
  C   C1308     1.0  0.55146  0.19790  0.44357  1.0000
  C   C1309     1.0  0.54856  0.21906  0.43913  1.0000
  C   C1310     1.0  0.55897  0.22979  0.44820  1.0000
  C   C1311     1.0  0.57244  0.21933  0.46139  1.0000
  H   H1298     1.0  0.56693  0.17108  0.46002  1.0000
  H   H1299     1.0  0.54366  0.18947  0.43670  1.0000
  H   H1300     1.0  0.55682  0.24619  0.44480  1.0000
  H   H1301     1.0  0.58072  0.22764  0.46800  1.0000
  C   C1312     1.0  0.55578  0.22189  0.57669  1.0000
  C   C1313     1.0  0.56688  0.20405  0.58565  1.0000
  C   C1314     1.0  0.55815  0.19280  0.60359  1.0000
  C   C1315     1.0  0.53817  0.19909  0.61246  1.0000
  C   C1316     1.0  0.52694  0.21668  0.60324  1.0000
  C   C1317     1.0  0.53580  0.22815  0.58551  1.0000
  H   H1302     1.0  0.58235  0.19921  0.57904  1.0000
  H   H1303     1.0  0.56692  0.17926  0.61072  1.0000
  H   H1304     1.0  0.51152  0.22159  0.60987  1.0000
  H   H1305     1.0  0.52714  0.24192  0.57863  1.0000
  C   C1318     1.0  0.64370  0.13697  0.54672  1.0000
  C   C1319     1.0  0.63068  0.13738  0.53314  1.0000
  C   C1320     1.0  0.62550  0.11928  0.53041  1.0000
  C   C1321     1.0  0.63332  0.10066  0.54118  1.0000
  C   C1322     1.0  0.64719  0.10006  0.55400  1.0000
  C   C1323     1.0  0.65236  0.11825  0.55677  1.0000
  H   H1306     1.0  0.62426  0.15165  0.52498  1.0000
  H   H1307     1.0  0.61497  0.11979  0.52028  1.0000
  H   H1308     1.0  0.65336  0.08570  0.56229  1.0000
  H   H1309     1.0  0.66257  0.11784  0.56719  1.0000
  Fe  Fe222     1.0  0.50288  0.21469  0.36648  1.0000
  S   S448      1.0  0.65627  0.99246  0.57792  1.0000
  Fe  Fe223     1.0  0.54686  0.01400  0.32921  1.0000
  C   C1324     1.0  0.70960  0.36138  0.59629  1.0000
  H   H1310     1.0  0.55658  0.08047  0.36576  1.0000
  H   H1311     1.0  0.71649  0.39801  0.55299  1.0000
  H   H1312     1.0  0.55522  0.21672  0.52659  1.0000
  S   S449      1.0  0.56283  0.99971  0.40187  1.0000
  H   H1313     1.0  0.71847  0.45709  0.57958  1.0000
  C   C1325     1.0  0.71715  0.39811  0.39193  1.0000
  H   H1314     1.0  0.51148  0.22468  0.47481  1.0000
  H   H1315     1.0  0.73392  0.41656  0.32930  1.0000
  N   N106      1.0  0.60216  0.17646  0.42144  1.0000
  C   C1326     1.0  0.59107  0.17090  0.40936  1.0000
  C   C1327     1.0  0.60311  0.19651  0.42069  1.0000
  C   C1328     1.0  0.58050  0.18559  0.39615  1.0000
  C   C1329     1.0  0.59260  0.21159  0.40774  1.0000
  C   C1330     1.0  0.58115  0.20606  0.39548  1.0000
  C   C1331     1.0  0.61250  0.16076  0.43565  1.0000
  H   H1316     1.0  0.59005  0.15506  0.41006  1.0000
  H   H1317     1.0  0.61137  0.20101  0.43070  1.0000
  H   H1318     1.0  0.57159  0.18108  0.38675  1.0000
  H   H1319     1.0  0.59270  0.22750  0.40775  1.0000
  H   H1320     1.0  0.57244  0.21766  0.38583  1.0000
  H   H1321     1.0  0.62305  0.14936  0.42743  1.0000
  H   H1322     1.0  0.62125  0.16723  0.44428  1.0000
  H   H1323     1.0  0.60124  0.15309  0.44699  1.0000
  N   N107      1.0  0.53668  0.23745  0.50737  1.0000
  C   C1332     1.0  0.52443  0.23974  0.49312  1.0000
  H   H1324     1.0  0.60073  0.99806  0.52700  1.0000
  H   H1325     1.0  0.70119  0.37527  0.58821  1.0000
  C   C1333     1.0  0.70731  0.43293  0.36466  1.0000
  C   C1334     1.0  0.54024  0.25519  0.51454  1.0000
  C   C1335     1.0  0.72361  0.46654  0.56554  1.0000
  H   H1326     1.0  0.52741  0.19024  0.48913  1.0000
  C   C1336     1.0  0.50123  0.12965  0.41223  1.0000
  H   H1327     1.0  0.53340  0.25487  0.53074  1.0000
  H   H1328     1.0  0.55673  0.25500  0.51327  1.0000
  H   H1329     1.0  0.53383  0.26971  0.50573  1.0000
  C   C1337     1.0  0.54227  0.20127  0.50896  1.0000
  H   H1330     1.0  0.70333  0.44660  0.35404  1.0000
  C   C1338     1.0  0.51901  0.25843  0.32678  1.0000
  H   H1331     1.0  0.70026  0.32124  0.55268  1.0000
  S   S450      1.0  0.56369  0.03098  0.34389  1.0000
  H   H1332     1.0  0.73023  0.06438  0.55021  1.0000
  S   S451      1.0  0.71327  0.29056  0.52261  1.0000
  H   H1333     1.0  0.52805  0.08211  0.41169  1.0000
  N   N108      1.0  0.72479  0.41978  0.36016  1.0000
  N   N109      1.0  0.59635  0.11614  0.57719  1.0000
  C   C1339     1.0  0.60162  0.13317  0.58121  1.0000
  C   C1340     1.0  0.60383  0.09732  0.58667  1.0000
  C   C1341     1.0  0.61522  0.13156  0.59456  1.0000
  C   C1342     1.0  0.61741  0.09515  0.60016  1.0000
  C   C1343     1.0  0.62318  0.11240  0.60403  1.0000
  C   C1344     1.0  0.58205  0.11811  0.56319  1.0000
  H   H1334     1.0  0.59583  0.14810  0.57362  1.0000
  H   H1335     1.0  0.59985  0.08379  0.58330  1.0000
  H   H1336     1.0  0.61998  0.14507  0.59701  1.0000
  H   H1337     1.0  0.62377  0.08015  0.60716  1.0000
  H   H1338     1.0  0.63408  0.11092  0.61407  1.0000
  H   H1339     1.0  0.58331  0.13173  0.55132  1.0000
  H   H1340     1.0  0.58536  0.10482  0.55510  1.0000
  H   H1341     1.0  0.56641  0.11925  0.57163  1.0000
  H   H1342     1.0  0.50834  0.08389  0.38445  1.0000
  C   C1345     1.0  0.71063  0.32569  0.56059  1.0000
  Fe  Fe224     1.0  0.53439  0.05270  0.34754  1.0000
  C   C1346     1.0  0.52973  0.20345  0.49453  1.0000
  C   C1347     1.0  0.54550  0.21853  0.51533  1.0000
  C   C1348     1.0  0.55023  0.09640  0.36278  1.0000
  S   S452      1.0  0.69160  0.01693  0.59893  1.0000
  H   H1343     1.0  0.73766  0.22367  0.52422  1.0000
  C   C1349     1.0  0.71646  0.00654  0.53090  1.0000
  S   S453      1.0  0.72454  0.41249  0.58683  1.0000
  C   C1350     1.0  0.69024  0.19157  0.53924  1.0000
  N   N110      1.0  0.71715  0.34619  0.58287  1.0000
  N   N111      1.0  0.70854  0.21850  0.52230  1.0000
  H   H1344     1.0  0.51756  0.25471  0.48661  1.0000
  C   C1351     1.0  0.52890  0.12388  0.34488  1.0000
  C   C1352     1.0  0.73567  0.41204  0.42967  1.0000
  C   C1353     1.0  0.73094  0.31686  0.55793  1.0000
  H   H1345     1.0  0.68539  0.18135  0.55288  1.0000
  H   H1346     1.0  0.70752  0.20606  0.55361  1.0000
  Fe  Fe225     1.0  0.73817  0.35188  0.47538  1.0000
  C   C1354     1.0  0.69970  0.41179  0.39699  1.0000
  H   H1347     1.0  0.72371  0.42188  0.43767  1.0000
  C   C1355     1.0  0.70222  0.21802  0.50458  1.0000
  H   H1348     1.0  0.71680  0.24071  0.53581  1.0000
  C   C1356     1.0  0.50612  0.09676  0.39233  1.0000
  Fe  Fe226     1.0  0.73947  0.42449  0.60785  1.0000
  C   C1357     1.0  0.73710  0.33756  0.58036  1.0000
  C   C1358     1.0  0.73026  0.05269  0.56343  1.0000
  C   C1359     1.0  0.72963  0.40239  0.37335  1.0000
  S   S454      1.0  0.71344  0.48265  0.32247  1.0000
  C   C1360     1.0  0.70396  0.34045  0.57317  1.0000
  H   H1349     1.0  0.72207  0.36631  0.60147  1.0000
  Fe  Fe227     1.0  0.49463  0.19186  0.64724  1.0000
  H   H1350     1.0  0.68817  0.34737  0.57505  1.0000
  C   C1361     1.0  0.73177  0.39140  0.55523  1.0000
  N   N112      1.0  0.71799  0.48717  0.56311  1.0000
  H   H1351     1.0  0.49909  0.14264  0.41991  1.0000
  H   H1352     1.0  0.70654  0.48742  0.59449  1.0000
  H   H1353     1.0  0.51810  0.22962  0.64563  1.0000
  Fe  Fe228     1.0  0.74072  0.48007  0.33847  1.0000
  H   H1354     1.0  0.73676  0.02445  0.51056  1.0000
  C   C1362     1.0  0.73432  0.01474  0.52511  1.0000
  H   H1355     1.0  0.73670  0.44050  0.33519  1.0000
  S   S455      1.0  0.73531  0.46661  0.37144  1.0000
  S   S456      1.0  0.53616  0.99417  0.35810  1.0000
  C   C1363     1.0  0.73924  0.39120  0.43708  1.0000
  C   C1364     1.0  0.73993  0.39652  0.57054  1.0000
  S   S457      1.0  0.74110  0.32014  0.46903  1.0000
  H   H1356     1.0  0.74099  0.44096  0.55225  1.0000
  H   H1357     1.0  0.50657  0.31753  0.32022  1.0000
  C   C1365     1.0  0.50428  0.25013  0.32098  1.0000
  H   H1358     1.0  0.49289  0.00743  0.32567  1.0000
  C   C1366     1.0  0.71303  0.99439  0.54978  1.0000
  H   H1359     1.0  0.69625  0.46309  0.66794  1.0000
  H   H1360     1.0  0.59588  0.42330  0.75197  1.0000
  Fe  Fe229     1.0  0.60436  0.43758  0.78732  1.0000
  H   H1361     1.0  0.59579  0.39633  0.83910  1.0000
  S   S458      1.0  0.58623  0.39148  0.79578  1.0000
  C   C1367     1.0  0.69016  0.10175  0.92834  1.0000
  H   H1362     1.0  0.61294  0.41411  0.83709  1.0000
  S   S459      1.0  0.63828  0.44216  0.77948  1.0000
  H   H1363     1.0  0.65746  0.06865  0.90235  1.0000
  C   C1368     1.0  0.65295  0.47332  0.86136  1.0000
  H   H1364     1.0  0.50404  0.21341  0.83399  1.0000
  Fe  Fe230     1.0  0.51314  0.32875  0.77457  1.0000
  C   C1369     1.0  0.52426  0.26303  0.69446  1.0000
  S   S460      1.0  0.52590  0.35622  0.75672  1.0000
  Fe  Fe231     1.0  0.51073  0.29697  0.81257  1.0000
  S   S461      1.0  0.52187  0.28138  0.84186  1.0000
  S   S462      1.0  0.52867  0.29648  0.78132  1.0000
  S   S463      1.0  0.59974  0.45913  0.81122  1.0000
  C   C1370     1.0  0.51102  0.32123  0.89345  1.0000
  C   C1371     1.0  0.50345  0.00049  0.85660  1.0000
  C   C1372     1.0  0.70096  0.03025  0.94467  1.0000
  H   H1365     1.0  0.65169  0.13947  0.91661  1.0000
  S   S464      1.0  0.68700  0.01438  0.93747  1.0000
  H   H1366     1.0  0.63779  0.07341  0.92370  1.0000
  S   S465      1.0  0.71169  0.13159  0.96787  1.0000
  H   H1367     1.0  0.56536  0.26414  0.82553  1.0000
  N   N113      1.0  0.55801  0.17233  0.98337  1.0000
  H   H1368     1.0  0.54664  0.00394  0.86883  1.0000
  H   H1369     1.0  0.66297  0.45918  0.86488  1.0000
  Fe  Fe232     1.0  0.56767  0.11639  0.93319  1.0000
  S   S466      1.0  0.56128  0.12594  0.90129  1.0000
  S   S467      1.0  0.59754  0.09971  0.94216  1.0000
  Fe  Fe233     1.0  0.52507  0.13417  0.95106  1.0000
  S   S468      1.0  0.51524  0.14526  0.92078  1.0000
  H   H1370     1.0  0.50364  0.29886  0.95031  1.0000
  Fe  Fe234     1.0  0.53136  0.11482  0.91324  1.0000
  S   S469      1.0  0.52030  0.09199  0.89890  1.0000
  Fe  Fe235     1.0  0.54564  0.15538  0.91176  1.0000
  S   S470      1.0  0.54876  0.18774  0.89717  1.0000
  S   S471      1.0  0.53918  0.10309  0.94450  1.0000
  S   S472      1.0  0.55403  0.14630  0.94262  1.0000
  Fe  Fe236     1.0  0.55363  0.30065  0.96424  1.0000
  S   S473      1.0  0.57903  0.27940  0.97767  1.0000
  Fe  Fe237     1.0  0.57657  0.30384  0.92131  1.0000
  S   S474      1.0  0.60423  0.28358  0.93118  1.0000
  S   S475      1.0  0.57332  0.31881  0.88912  1.0000
  Fe  Fe238     1.0  0.58217  0.26428  0.95025  1.0000
  S   S476      1.0  0.58853  0.23015  0.95140  1.0000
  Fe  Fe239     1.0  0.59884  0.30053  0.95769  1.0000
  S   S477      1.0  0.62482  0.31192  0.96657  1.0000
  S   S478      1.0  0.55496  0.28364  0.93895  1.0000
  S   S479      1.0  0.57314  0.32269  0.94580  1.0000
  C   C1373     1.0  0.56056  0.19999  0.91120  1.0000
  C   C1374     1.0  0.57570  0.18903  0.92201  1.0000
  C   C1375     1.0  0.58437  0.19859  0.93389  1.0000
  C   C1376     1.0  0.57812  0.21926  0.93502  1.0000
  C   C1377     1.0  0.56345  0.23044  0.92365  1.0000
  C   C1378     1.0  0.55474  0.22085  0.91173  1.0000
  H   H1371     1.0  0.58097  0.17322  0.92094  1.0000
  H   H1372     1.0  0.59601  0.18992  0.94220  1.0000
  H   H1373     1.0  0.55859  0.24640  0.92419  1.0000
  H   H1374     1.0  0.54318  0.22954  0.90326  1.0000
  N   N114      1.0  0.66312  0.08839  0.92038  1.0000
  C   C1379     1.0  0.70056  0.48462  0.84635  1.0000
  H   H1375     1.0  0.64648  0.47475  0.97570  1.0000
  H   H1376     1.0  0.50731  0.10066  0.97893  1.0000
  C   C1380     1.0  0.52241  0.22607  0.66098  1.0000
  H   H1377     1.0  0.56448  0.43764  0.77666  1.0000
  S   S480      1.0  0.72259  0.42670  0.68387  1.0000
  C   C1381     1.0  0.57957  0.42775  0.80444  1.0000
  Fe  Fe240     1.0  0.69804  0.00052  0.90887  1.0000
  C   C1382     1.0  0.51471  0.32228  0.92710  1.0000
  C   C1383     1.0  0.63781  0.13425  0.96461  1.0000
  C   C1384     1.0  0.62262  0.14487  0.95359  1.0000
  C   C1385     1.0  0.60977  0.13446  0.94722  1.0000
  C   C1386     1.0  0.61212  0.11329  0.95168  1.0000
  C   C1387     1.0  0.62732  0.10264  0.96270  1.0000
  H   H1378     1.0  0.54236  0.23511  0.68716  1.0000
  H   H1379     1.0  0.52219  0.20497  0.86374  1.0000
  H   H1380     1.0  0.59842  0.14277  0.93837  1.0000
  C   C1388     1.0  0.66685  0.22329  0.97902  1.0000
  H   H1381     1.0  0.62887  0.40016  0.80468  1.0000
  C   C1389     1.0  0.66042  0.12434  0.91896  1.0000
  C   C1390     1.0  0.70265  0.05396  0.96671  1.0000
  C   C1391     1.0  0.69251  0.04024  0.96126  1.0000
  H   H1382     1.0  0.65694  0.48536  0.88716  1.0000
  H   H1383     1.0  0.67787  0.03770  0.96968  1.0000
  C   C1392     1.0  0.53720  0.29168  0.85394  1.0000
  C   C1393     1.0  0.54354  0.31036  0.84604  1.0000
  C   C1394     1.0  0.55516  0.31828  0.85664  1.0000
  C   C1395     1.0  0.56039  0.30764  0.87521  1.0000
  C   C1396     1.0  0.55444  0.28874  0.88278  1.0000
  C   C1397     1.0  0.54292  0.28081  0.87218  1.0000
  H   H1384     1.0  0.53939  0.31878  0.83187  1.0000
  H   H1385     1.0  0.55990  0.33282  0.85054  1.0000
  H   H1386     1.0  0.55869  0.28021  0.89681  1.0000
  H   H1387     1.0  0.53820  0.26627  0.87832  1.0000
  C   C1398     1.0  0.66519  0.46428  0.71363  1.0000
  C   C1399     1.0  0.67290  0.46997  0.69310  1.0000
  C   C1400     1.0  0.69044  0.45857  0.68374  1.0000
  C   C1401     1.0  0.70041  0.44139  0.69489  1.0000
  C   C1402     1.0  0.69273  0.43574  0.71541  1.0000
  C   C1403     1.0  0.67518  0.44711  0.72476  1.0000
  C   C1404     1.0  0.49833  0.23667  0.73218  1.0000
  S   S481      1.0  0.73452  0.07499  0.96191  1.0000
  H   H1388     1.0  0.70038  0.42248  0.72413  1.0000
  H   H1389     1.0  0.66947  0.44261  0.74057  1.0000
  C   C1405     1.0  0.56877  0.38257  0.78482  1.0000
  C   C1406     1.0  0.56225  0.36418  0.79419  1.0000
  C   C1407     1.0  0.54888  0.35608  0.78590  1.0000
  C   C1408     1.0  0.54210  0.36622  0.76798  1.0000
  C   C1409     1.0  0.54843  0.38465  0.75866  1.0000
  C   C1410     1.0  0.56162  0.39287  0.76705  1.0000
  H   H1390     1.0  0.56770  0.35603  0.80787  1.0000
  H   H1391     1.0  0.54413  0.34181  0.79318  1.0000
  H   H1392     1.0  0.54327  0.39250  0.74475  1.0000
  H   H1393     1.0  0.56637  0.40689  0.75935  1.0000
  H   H1394     1.0  0.70132  0.19304  0.96581  1.0000
  H   H1395     1.0  0.56703  0.05580  0.88016  1.0000
  C   C1411     1.0  0.52717  0.34808  0.89981  1.0000
  C   C1412     1.0  0.68200  0.08544  0.92541  1.0000
  S   S482      1.0  0.68520  0.46046  0.95335  1.0000
  H   H1396     1.0  0.53952  0.34768  0.90844  1.0000
  S   S483      1.0  0.50570  0.14343  0.97931  1.0000
  H   H1397     1.0  0.52671  0.17860  0.98031  1.0000
  C   C1413     1.0  0.65766  0.20173  0.96004  1.0000
  H   H1398     1.0  0.66043  0.18759  0.95414  1.0000
  H   H1399     1.0  0.51424  0.21392  0.67012  1.0000
  C   C1414     1.0  0.57030  0.04054  0.87645  1.0000
  H   H1400     1.0  0.51597  0.23797  0.80402  1.0000
  N   N115      1.0  0.51749  0.24405  0.67094  1.0000
  H   H1401     1.0  0.56913  0.24926  0.84939  1.0000
  H   H1402     1.0  0.51973  0.32932  0.93780  1.0000
  C   C1415     1.0  0.49491  0.27452  0.67804  1.0000
  C   C1416     1.0  0.64397  0.47698  0.84387  1.0000
  H   H1403     1.0  0.60958  0.00324  0.86563  1.0000
  H   H1404     1.0  0.49744  0.29661  0.88917  1.0000
  C   C1417     1.0  0.65298  0.46072  0.98414  1.0000
  C   C1418     1.0  0.51834  0.00836  0.79659  1.0000
  Fe  Fe241     1.0  0.63184  0.46340  0.80218  1.0000
  N   N116      1.0  0.57848  0.00139  0.86720  1.0000
  C   C1419     1.0  0.72149  0.05755  0.95581  1.0000
  C   C1420     1.0  0.62852  0.38420  0.98385  1.0000
  S   S484      1.0  0.50748  0.26096  0.75598  1.0000
  C   C1421     1.0  0.57840  0.43049  0.78218  1.0000
  C   C1422     1.0  0.61578  0.40890  0.79852  1.0000
  H   H1405     1.0  0.60262  0.03786  0.87407  1.0000
  N   N117      1.0  0.54999  0.23866  0.83385  1.0000
  C   C1423     1.0  0.54049  0.24296  0.81723  1.0000
  C   C1424     1.0  0.54370  0.22500  0.85027  1.0000
  C   C1425     1.0  0.52378  0.23404  0.81705  1.0000
  C   C1426     1.0  0.52714  0.21567  0.85056  1.0000
  S   S485      1.0  0.64313  0.47903  0.72484  1.0000
  C   C1427     1.0  0.56743  0.24826  0.83375  1.0000
  H   H1406     1.0  0.54542  0.25385  0.80425  1.0000
  H   H1407     1.0  0.55135  0.22138  0.86336  1.0000
  C   C1428     1.0  0.68756  0.18980  0.97670  1.0000
  H   H1408     1.0  0.68506  0.17433  0.97594  1.0000
  C   C1429     1.0  0.50198  0.30385  0.90004  1.0000
  C   C1430     1.0  0.59020  0.03050  0.87309  1.0000
  C   C1431     1.0  0.55457  0.03091  0.87490  1.0000
  C   C1432     1.0  0.50228  0.02412  0.79976  1.0000
  C   C1433     1.0  0.65046  0.23830  0.97444  1.0000
  C   C1434     1.0  0.59823  0.41228  0.83363  1.0000
  H   H1409     1.0  0.53368  0.01145  0.79203  1.0000
  C   C1435     1.0  0.50555  0.30504  0.93427  1.0000
  H   H1410     1.0  0.58140  0.23947  0.82643  1.0000
  H   H1411     1.0  0.64782  0.25267  0.97999  1.0000
  C   C1436     1.0  0.49294  0.07360  0.88721  1.0000
  Fe  Fe242     1.0  0.68294  0.99243  0.87203  1.0000
  H   H1412     1.0  0.51008  0.01408  0.85450  1.0000
  S   S486      1.0  0.65670  0.99875  0.85466  1.0000
  H   H1413     1.0  0.62094  0.16121  0.94978  1.0000
  H   H1414     1.0  0.66528  0.48324  0.68439  1.0000
  C   C1437     1.0  0.65440  0.07098  0.91838  1.0000
  H   H1415     1.0  0.53439  0.34883  0.88367  1.0000
  Fe  Fe243     1.0  0.62934  0.46991  0.75747  1.0000
  S   S487      1.0  0.69776  0.01732  0.87720  1.0000
  C   C1438     1.0  0.64111  0.21634  0.95524  1.0000
  C   C1439     1.0  0.64009  0.11308  0.96920  1.0000
  H   H1416     1.0  0.66083  0.05682  0.92781  1.0000
  N   N118      1.0  0.59806  0.41706  0.81178  1.0000
  C   C1440     1.0  0.55896  0.01126  0.87015  1.0000
  S   S488      1.0  0.59673  0.46630  0.76328  1.0000
  H   H1417     1.0  0.63279  0.99441  0.82604  1.0000
  S   S489      1.0  0.65370  0.14799  0.97209  1.0000
  H   H1418     1.0  0.50536  0.06124  0.88538  1.0000
  H   H1419     1.0  0.62936  0.08624  0.96606  1.0000
  C   C1441     1.0  0.71986  0.03366  0.93386  1.0000
  H   H1420     1.0  0.70895  0.46932  0.84862  1.0000
  H   H1421     1.0  0.58618  0.42245  0.84196  1.0000
  C   C1442     1.0  0.61536  0.41118  0.77606  1.0000
  H   H1422     1.0  0.62813  0.40434  0.76613  1.0000
  C   C1443     1.0  0.52927  0.24639  0.68415  1.0000
  H   H1423     1.0  0.68504  0.13405  0.92802  1.0000
  H   H1424     1.0  0.53908  0.03868  0.87730  1.0000
  S   S490      1.0  0.65080  0.45944  0.82678  1.0000
  H   H1425     1.0  0.63767  0.10998  0.91232  1.0000
  C   C1444     1.0  0.67164  0.45026  0.97632  1.0000
  H   H1426     1.0  0.69078  0.07039  0.92737  1.0000
  N   N119      1.0  0.67009  0.20517  0.97207  1.0000
  C   C1445     1.0  0.67914  0.12131  0.92531  1.0000
  Fe  Fe244     1.0  0.59364  0.48557  0.78701  1.0000
  C   C1446     1.0  0.65257  0.10760  0.91656  1.0000
  H   H1427     1.0  0.56631  0.43274  0.81489  1.0000
  H   H1428     1.0  0.49231  0.07516  0.93793  1.0000
  C   C1447     1.0  0.59656  0.42207  0.76790  1.0000
  Fe  Fe245     1.0  0.71834  0.09866  0.98127  1.0000
  C   C1448     1.0  0.73014  0.04715  0.93953  1.0000
  H   H1429     1.0  0.64054  0.39325  0.98027  1.0000
  H   H1430     1.0  0.62460  0.24610  0.95899  1.0000
  C   C1449     1.0  0.51706  0.22034  0.83387  1.0000
  C   C1450     1.0  0.50697  0.27716  0.69134  1.0000
  N   N120      1.0  0.51765  0.32993  0.90689  1.0000
  H   H1431     1.0  0.68926  0.48052  0.82025  1.0000
  H   H1432     1.0  0.53780  0.20048  0.98026  1.0000
  H   H1433     1.0  0.70485  0.09917  0.93309  1.0000
  H   H1434     1.0  0.63112  0.21348  0.94590  1.0000
  H   H1435     1.0  0.65353  0.33108  0.97857  1.0000
  H   H1436     1.0  0.51186  0.22657  0.73591  1.0000
  S   S491      1.0  0.49746  0.32980  0.80639  1.0000
  H   H1437     1.0  0.63132  0.37936  0.95296  1.0000
  H   H1438     1.0  0.72650  0.02606  0.92103  1.0000
  H   H1439     1.0  0.53314  0.26448  0.70553  1.0000
  H   H1440     1.0  0.50243  0.28960  0.69995  1.0000
  C   C1451     1.0  0.50035  0.25769  0.66803  1.0000
  H   H1441     1.0  0.51317  0.32737  0.87744  1.0000
  C   C1452     1.0  0.63746  0.23469  0.96257  1.0000
  Fe  Fe246     1.0  0.50127  0.28795  0.77310  1.0000
  H   H1442     1.0  0.50492  0.03967  0.79741  1.0000
  H   H1443     1.0  0.51579  0.36191  0.90161  1.0000
  C   C1453     1.0  0.49935  0.29566  0.92059  1.0000
  H   H1444     1.0  0.69584  0.06172  0.97933  1.0000
  H   H1445     1.0  0.57470  0.19660  0.97925  1.0000
  S   S492      1.0  0.52308  0.31406  0.97938  1.0000
  Fe  Fe247     1.0  0.72706  0.99650  0.86952  1.0000
  C   C1454     1.0  0.59405  0.01085  0.86835  1.0000
  C   C1455     1.0  0.54072  0.18544  0.97525  1.0000
  H   H1446     1.0  0.54385  0.18781  0.95843  1.0000
  C   C1456     1.0  0.62328  0.37654  0.96830  1.0000
  C   C1457     1.0  0.57459  0.18046  0.98404  1.0000
  H   H1447     1.0  0.65175  0.10469  0.97763  1.0000
  H   H1448     1.0  0.69442  0.42395  0.98139  1.0000
  C   C1458     1.0  0.64956  0.48813  0.87398  1.0000
  H   H1449     1.0  0.60423  0.35807  0.96103  1.0000
  H   H1450     1.0  0.53886  0.22006  0.65893  1.0000
  H   H1451     1.0  0.49256  0.21807  0.71215  1.0000
  C   C1459     1.0  0.49600  0.09109  0.89354  1.0000
  H   H1452     1.0  0.49261  0.28204  0.92588  1.0000
  C   C1460     1.0  0.49209  0.25466  0.74058  1.0000
  C   C1461     1.0  0.60793  0.36478  0.97277  1.0000
  Fe  Fe248     1.0  0.68085  0.13092  0.98616  1.0000
  Fe  Fe249     1.0  0.73228  0.86747  0.00793  1.0000
  H   H1453     1.0  0.49763  0.66870  0.02087  1.0000
  H   H1454     1.0  0.52453  0.65053  0.30947  1.0000
  N   N121      1.0  0.50346  0.90285  0.10443  1.0000
  H   H1455     1.0  0.57033  0.95998  0.17688  1.0000
  S   S493      1.0  0.51656  0.63164  0.27833  1.0000
  Fe  Fe250     1.0  0.51765  0.58259  0.23011  1.0000
  S   S494      1.0  0.53630  0.55560  0.21654  1.0000
  S   S495      1.0  0.52387  0.61469  0.22342  1.0000
  C   C1462     1.0  0.55524  0.49474  0.26359  1.0000
  H   H1456     1.0  0.64303  0.49906  0.00079  1.0000
  S   S496      1.0  0.73008  0.94717  0.14650  1.0000
  H   H1457     1.0  0.56702  0.98073  0.14330  1.0000
  H   H1458     1.0  0.49886  0.85283  0.13608  1.0000
  H   H1459     1.0  0.64152  0.92983  0.16248  1.0000
  H   H1460     1.0  0.65883  0.51561  0.00512  1.0000
  C   C1463     1.0  0.50512  0.63476  0.16250  1.0000
  Fe  Fe251     1.0  0.73777  0.82623  0.03518  1.0000
  H   H1461     1.0  0.55092  0.66509  0.09486  1.0000
  Fe  Fe252     1.0  0.69782  0.84367  0.01996  1.0000
  S   S497      1.0  0.67221  0.83474  0.00904  1.0000
  N   N122      1.0  0.53350  0.57258  0.13948  1.0000
  S   S498      1.0  0.69981  0.87586  0.02143  1.0000
  C   C1464     1.0  0.65770  0.51378  0.26911  1.0000
  H   H1462     1.0  0.52692  0.51176  0.23103  1.0000
  C   C1465     1.0  0.58955  0.58076  0.01164  1.0000
  H   H1463     1.0  0.50298  0.68596  0.16977  1.0000
  Fe  Fe253     1.0  0.56625  0.62863  0.03194  1.0000
  S   S499      1.0  0.53915  0.64655  0.01916  1.0000
  S   S500      1.0  0.59480  0.62025  0.01017  1.0000
  Fe  Fe254     1.0  0.54552  0.63039  0.07532  1.0000
  S   S501      1.0  0.51657  0.64820  0.06621  1.0000
  S   S502      1.0  0.55166  0.61958  0.10742  1.0000
  Fe  Fe255     1.0  0.52139  0.62713  0.04359  1.0000
  Fe  Fe256     1.0  0.53640  0.66633  0.04248  1.0000
  S   S503      1.0  0.52597  0.69952  0.03201  1.0000
  S   S504      1.0  0.54867  0.60740  0.05476  1.0000
  S   S505      1.0  0.56525  0.65035  0.05330  1.0000
  Fe  Fe257     1.0  0.56154  0.83600  0.05049  1.0000
  S   S506      1.0  0.54070  0.82126  0.07626  1.0000
  S   S507      1.0  0.58442  0.85104  0.05933  1.0000
  Fe  Fe258     1.0  0.54175  0.82540  0.01882  1.0000
  S   S508      1.0  0.51955  0.80965  0.04184  1.0000
  C   C1466     1.0  0.72536  0.90472  0.06408  1.0000
  Fe  Fe259     1.0  0.51631  0.83603  0.05797  1.0000
  S   S509      1.0  0.50332  0.58481  0.26224  1.0000
  Fe  Fe260     1.0  0.54575  0.79616  0.05795  1.0000
  S   S510      1.0  0.55165  0.76374  0.07365  1.0000
  S   S511      1.0  0.53663  0.85304  0.03359  1.0000
  S   S512      1.0  0.56857  0.80966  0.03351  1.0000
  H   H1464     1.0  0.56378  0.57744  0.13055  1.0000
  C   C1467     1.0  0.50091  0.64284  0.14294  1.0000
  H   H1465     1.0  0.66173  0.49681  0.24488  1.0000
  C   C1468     1.0  0.49598  0.58385  0.16219  1.0000
  H   H1466     1.0  0.73174  0.86309  0.10621  1.0000
  H   H1467     1.0  0.71975  0.83593  0.09470  1.0000
  C   C1469     1.0  0.49970  0.84040  0.99788  1.0000
  C   C1470     1.0  0.73569  0.92010  0.06569  1.0000
  C   C1471     1.0  0.73213  0.92833  0.08361  1.0000
  N   N123      1.0  0.68973  0.49663  0.25445  1.0000
  H   H1468     1.0  0.73752  0.81720  0.08284  1.0000
  C   C1472     1.0  0.53383  0.71701  0.04343  1.0000
  C   C1473     1.0  0.53103  0.73758  0.03485  1.0000
  C   C1474     1.0  0.53675  0.75196  0.04389  1.0000
  C   C1475     1.0  0.54499  0.74586  0.06175  1.0000
  C   C1476     1.0  0.54785  0.72525  0.07034  1.0000
  C   C1477     1.0  0.54239  0.71081  0.06111  1.0000
  C   C1478     1.0  0.58377  0.96207  0.16576  1.0000
  H   H1469     1.0  0.53494  0.76771  0.03691  1.0000
  H   H1470     1.0  0.55436  0.72051  0.08407  1.0000
  H   H1471     1.0  0.54469  0.69493  0.06760  1.0000
  H   H1472     1.0  0.51160  0.64450  0.11085  1.0000
  H   H1473     1.0  0.54268  0.55782  0.16766  1.0000
  H   H1474     1.0  0.73715  0.81818  0.10919  1.0000
  H   H1475     1.0  0.72836  0.89833  0.05028  1.0000
  H   H1476     1.0  0.50684  0.84165  0.10252  1.0000
  S   S513      1.0  0.52641  0.97646  0.16764  1.0000
  C   C1479     1.0  0.66717  0.52040  0.28242  1.0000
  S   S514      1.0  0.69990  0.87682  0.07950  1.0000
  C   C1480     1.0  0.50149  0.97712  0.16398  1.0000
  C   C1481     1.0  0.64768  0.84143  0.02206  1.0000
  C   C1482     1.0  0.63125  0.83688  0.01528  1.0000
  C   C1483     1.0  0.61171  0.84030  0.02636  1.0000
  C   C1484     1.0  0.60845  0.84844  0.04423  1.0000
  C   C1485     1.0  0.62477  0.85361  0.05070  1.0000
  C   C1486     1.0  0.64438  0.85005  0.03968  1.0000
  H   H1477     1.0  0.63366  0.83049  0.00151  1.0000
  H   H1478     1.0  0.59920  0.83661  0.02104  1.0000
  H   H1479     1.0  0.62233  0.86000  0.06448  1.0000
  H   H1480     1.0  0.65697  0.85368  0.04497  1.0000
  H   H1481     1.0  0.52469  0.74236  0.02101  1.0000
  C   C1487     1.0  0.51461  0.68321  0.15685  1.0000
  H   H1482     1.0  0.73120  0.96086  0.98975  1.0000
  C   C1488     1.0  0.70767  0.90590  0.09826  1.0000
  C   C1489     1.0  0.71146  0.89746  0.08043  1.0000
  Fe  Fe261     1.0  0.73920  0.96054  0.11403  1.0000
  H   H1483     1.0  0.69695  0.90030  0.11096  1.0000
  C   C1490     1.0  0.52344  0.62197  0.16488  1.0000
  H   H1484     1.0  0.55518  0.50977  0.26672  1.0000
  H   H1485     1.0  0.50434  0.84542  0.01012  1.0000
  C   C1491     1.0  0.55367  0.56764  0.12784  1.0000
  H   H1486     1.0  0.50529  0.94484  0.16469  1.0000
  N   N124      1.0  0.54353  0.67428  0.12373  1.0000
  C   C1492     1.0  0.51147  0.69226  0.13729  1.0000
  Fe  Fe262     1.0  0.71044  0.86296  0.05107  1.0000
  H   H1487     1.0  0.54083  0.58797  0.98948  1.0000
  C   C1493     1.0  0.55869  0.54201  0.22477  1.0000
  C   C1494     1.0  0.56670  0.54767  0.23978  1.0000
  C   C1495     1.0  0.58428  0.53596  0.24636  1.0000
  C   C1496     1.0  0.59371  0.51845  0.23815  1.0000
  C   C1497     1.0  0.58569  0.51284  0.22311  1.0000
  C   C1498     1.0  0.56829  0.52466  0.21637  1.0000
  H   H1488     1.0  0.55939  0.56105  0.24630  1.0000
  H   H1489     1.0  0.59044  0.54037  0.25801  1.0000
  C   C1499     1.0  0.53614  0.88278  0.09657  1.0000
  H   H1490     1.0  0.56217  0.52023  0.20471  1.0000
  H   H1491     1.0  0.57631  0.58381  0.02283  1.0000
  C   C1500     1.0  0.68807  0.51529  0.28140  1.0000
  C   C1501     1.0  0.53766  0.61770  0.14783  1.0000
  C   C1502     1.0  0.53347  0.62576  0.12828  1.0000
  C   C1503     1.0  0.51500  0.63825  0.12584  1.0000
  H   H1492     1.0  0.52076  0.58960  0.11388  1.0000
  C   C1504     1.0  0.59911  0.97669  0.13269  1.0000
  H   H1493     1.0  0.55192  0.60805  0.14986  1.0000
  H   H1494     1.0  0.52272  0.62142  0.00170  1.0000
  S   S515      1.0  0.61489  0.50339  0.24765  1.0000
  H   H1495     1.0  0.58495  0.55048  0.01096  1.0000
  N   N125      1.0  0.63460  0.78690  0.04526  1.0000
  C   C1505     1.0  0.62243  0.77389  0.04329  1.0000
  C   C1506     1.0  0.62845  0.79966  0.05929  1.0000
  C   C1507     1.0  0.60377  0.77310  0.05589  1.0000
  C   C1508     1.0  0.60972  0.79953  0.07187  1.0000
  C   C1509     1.0  0.59740  0.78605  0.07024  1.0000
  C   C1510     1.0  0.65395  0.78761  0.03165  1.0000
  H   H1496     1.0  0.62705  0.76416  0.03182  1.0000
  H   H1497     1.0  0.63780  0.81038  0.06051  1.0000
  H   H1498     1.0  0.59402  0.76290  0.05422  1.0000
  H   H1499     1.0  0.60456  0.81024  0.08242  1.0000
  H   H1500     1.0  0.58271  0.78594  0.07973  1.0000
  H   H1501     1.0  0.66252  0.77209  0.03088  1.0000
  H   H1502     1.0  0.65130  0.79517  0.01620  1.0000
  H   H1503     1.0  0.66362  0.79640  0.03671  1.0000
  S   S516      1.0  0.72972  0.83608  0.00392  1.0000
  H   H1504     1.0  0.69557  0.51985  0.29204  1.0000
  C   C1511     1.0  0.54692  0.66566  0.14289  1.0000
  H   H1505     1.0  0.56048  0.65482  0.14525  1.0000
  C   C1512     1.0  0.58186  0.97377  0.14685  1.0000
  H   H1506     1.0  0.71536  0.49907  0.26686  1.0000
  H   H1507     1.0  0.49304  0.76568  0.04221  1.0000
  Fe  Fe263     1.0  0.49340  0.62250  0.21367  1.0000
  C   C1513     1.0  0.63982  0.94656  0.16121  1.0000
  H   H1508     1.0  0.69679  0.91497  0.98855  1.0000
  H   H1509     1.0  0.60441  0.94448  0.18506  1.0000
  C   C1514     1.0  0.49923  0.59002  0.14127  1.0000
  C   C1515     1.0  0.61811  0.96759  0.13757  1.0000
  C   C1516     1.0  0.50824  0.62131  0.99780  1.0000
  Fe  Fe264     1.0  0.50643  0.61794  0.25471  1.0000
  H   H1510     1.0  0.64145  0.51761  0.26971  1.0000
  H   H1511     1.0  0.52514  0.52197  0.25368  1.0000
  C   C1517     1.0  0.52623  0.68767  0.12080  1.0000
  H   H1512     1.0  0.52683  0.61563  0.17985  1.0000
  H   H1513     1.0  0.70541  0.49398  0.22482  1.0000
  C   C1518     1.0  0.53138  0.88066  0.07821  1.0000
  H   H1514     1.0  0.52360  0.69455  0.10560  1.0000
  C   C1519     1.0  0.61129  0.55798  0.98994  1.0000
  Fe  Fe265     1.0  0.70832  0.97636  0.14826  1.0000
  C   C1520     1.0  0.60154  0.59576  0.00357  1.0000
  C   C1521     1.0  0.51009  0.65821  0.30550  1.0000
  H   H1515     1.0  0.65229  0.95188  0.14957  1.0000
  S   S517      1.0  0.70559  0.83138  0.05088  1.0000
  C   C1522     1.0  0.53251  0.66998  0.15972  1.0000
  C   C1523     1.0  0.51817  0.58414  0.13005  1.0000
  H   H1516     1.0  0.56014  0.55146  0.13229  1.0000
  C   C1524     1.0  0.49505  0.95909  0.16289  1.0000
  H   H1517     1.0  0.57007  0.65605  0.11021  1.0000
  C   C1525     1.0  0.51254  0.88972  0.07306  1.0000
  C   C1526     1.0  0.53045  0.56652  0.16001  1.0000
  H   H1518     1.0  0.65832  0.52930  0.29363  1.0000
  H   H1519     1.0  0.53478  0.66245  0.17485  1.0000
  H   H1520     1.0  0.55337  0.57035  0.11129  1.0000
  C   C1527     1.0  0.66929  0.50193  0.25507  1.0000
  C   C1528     1.0  0.61869  0.59161  0.98901  1.0000
  H   H1521     1.0  0.50847  0.88766  0.05906  1.0000
  C   C1529     1.0  0.49276  0.85142  0.10657  1.0000
  H   H1522     1.0  0.56606  0.68255  0.09897  1.0000
  H   H1523     1.0  0.71517  0.92761  0.11372  1.0000
  C   C1530     1.0  0.71798  0.92133  0.09986  1.0000
  N   N126      1.0  0.61988  0.95622  0.15621  1.0000
  C   C1531     1.0  0.60302  0.95341  0.17025  1.0000
  H   H1524     1.0  0.63886  0.50811  0.02454  1.0000
  H   H1525     1.0  0.50931  0.56698  0.18783  1.0000
  C   C1532     1.0  0.65069  0.50274  0.01225  1.0000
  H   H1526     1.0  0.54226  0.87190  0.06807  1.0000
  C   C1533     1.0  0.59445  0.56191  0.00486  1.0000
  H   H1527     1.0  0.49751  0.70243  0.13492  1.0000
  C   C1534     1.0  0.55844  0.66934  0.10611  1.0000
  H   H1528     1.0  0.72121  0.92703  0.00375  1.0000
  H   H1529     1.0  0.64186  0.95039  0.17573  1.0000
  C   C1535     1.0  0.49871  0.90091  0.08638  1.0000
  H   H1530     1.0  0.55075  0.87564  0.10064  1.0000
  S   S518      1.0  0.49409  0.61609  0.03866  1.0000
  C   C1536     1.0  0.51161  0.57184  0.17159  1.0000
  S   S519      1.0  0.67719  0.97684  0.16697  1.0000
  C   C1537     1.0  0.69920  0.50343  0.26715  1.0000
  C   C1538     1.0  0.49881  0.67364  0.31618  1.0000
  H   H1531     1.0  0.59290  0.49941  0.21665  1.0000
  H   H1532     1.0  0.59779  0.98637  0.11820  1.0000
  C   C1539     1.0  0.52482  0.50790  0.24781  1.0000
  C   C1540     1.0  0.73545  0.82747  0.09418  1.0000
  H   H1533     1.0  0.52568  0.89556  0.12388  1.0000
  C   C1541     1.0  0.52193  0.89404  0.10957  1.0000
  H   H1534     1.0  0.50967  0.50354  0.25351  1.0000
  H   H1535     1.0  0.72417  0.98626  0.06199  1.0000
  C   C1542     1.0  0.50264  0.65238  0.29004  1.0000
  C   C1543     1.0  0.71452  0.93671  0.99131  1.0000
  H   H1536     1.0  0.63143  0.97013  0.12651  1.0000
  S   S520      1.0  0.71542  0.98818  0.11512  1.0000
  N   N127      1.0  0.54072  0.49128  0.25400  1.0000
  H   H1537     1.0  0.63682  0.98948  0.18577  1.0000
  H   H1538     1.0  0.64755  0.64127  0.49689  1.0000
  H   H1539     1.0  0.61109  0.92609  0.65243  1.0000
  H   H1540     1.0  0.54033  0.79273  0.62483  1.0000
  C   C1544     1.0  0.68608  0.80460  0.46720  1.0000
  H   H1541     1.0  0.53075  0.76807  0.55071  1.0000
  C   C1545     1.0  0.72754  0.99034  0.56247  1.0000
  S   S521      1.0  0.53781  0.73240  0.58435  1.0000
  C   C1546     1.0  0.68678  0.78461  0.47740  1.0000
  H   H1542     1.0  0.55194  0.95769  0.41704  1.0000
  S   S522      1.0  0.53319  0.69764  0.38735  1.0000
  H   H1543     1.0  0.52654  0.78335  0.57978  1.0000
  Fe  Fe266     1.0  0.59652  0.70681  0.48672  1.0000
  S   S523      1.0  0.60688  0.69940  0.45545  1.0000
  S   S524      1.0  0.57104  0.69216  0.50569  1.0000
  Fe  Fe267     1.0  0.62146  0.74051  0.47944  1.0000
  S   S525      1.0  0.63338  0.73645  0.44720  1.0000
  S   S526      1.0  0.62969  0.76380  0.49451  1.0000
  Fe  Fe268     1.0  0.60166  0.73304  0.44573  1.0000
  S   S527      1.0  0.58230  0.74883  0.42215  1.0000
  Fe  Fe269     1.0  0.63767  0.70303  0.45991  1.0000
  S   S528      1.0  0.66538  0.68215  0.44724  1.0000
  S   S529      1.0  0.58946  0.74029  0.47685  1.0000
  S   S530      1.0  0.62769  0.70728  0.49240  1.0000
  C   C1547     1.0  0.54100  0.67410  0.45124  1.0000
  Fe  Fe270     1.0  0.50262  0.71231  0.37922  1.0000
  C   C1548     1.0  0.57230  0.72406  0.35360  1.0000
  C   C1549     1.0  0.67578  0.83197  0.44029  1.0000
  C   C1550     1.0  0.52974  0.76774  0.35040  1.0000
  S   S531      1.0  0.72386  0.62182  0.50175  1.0000
  C   C1551     1.0  0.66772  0.79782  0.44373  1.0000
  H   H1544     1.0  0.70491  0.95595  0.51338  1.0000
  H   H1545     1.0  0.56737  0.93126  0.58262  1.0000
  H   H1546     1.0  0.69314  0.81505  0.47260  1.0000
  S   S532      1.0  0.70966  0.86434  0.45331  1.0000
  H   H1547     1.0  0.62924  0.96649  0.37137  1.0000
  Fe  Fe271     1.0  0.63592  0.87618  0.45361  1.0000
  S   S533      1.0  0.66072  0.88431  0.42850  1.0000
  S   S534      1.0  0.61791  0.85412  0.44771  1.0000
  Fe  Fe272     1.0  0.64344  0.90586  0.47839  1.0000
  S   S535      1.0  0.66904  0.91621  0.45515  1.0000
  S   S536      1.0  0.63378  0.91595  0.50892  1.0000
  Fe  Fe273     1.0  0.64858  0.91649  0.43282  1.0000
  S   S537      1.0  0.64553  0.93890  0.40405  1.0000
  Fe  Fe274     1.0  0.67864  0.88315  0.45299  1.0000
  S   S538      1.0  0.62226  0.90851  0.45625  1.0000
  S   S539      1.0  0.65462  0.87265  0.47797  1.0000
  C   C1552     1.0  0.73926  0.92185  0.48894  1.0000
  H   H1548     1.0  0.71985  0.51536  0.54330  1.0000
  H   H1549     1.0  0.56148  0.72118  0.46250  1.0000
  C   C1553     1.0  0.64548  0.63730  0.48245  1.0000
  H   H1550     1.0  0.67863  0.90136  0.50215  1.0000
  H   H1551     1.0  0.64182  0.65195  0.47230  1.0000
  H   H1552     1.0  0.65982  0.80297  0.43085  1.0000
  H   H1553     1.0  0.69402  0.77966  0.49073  1.0000
  Fe  Fe275     1.0  0.53956  0.85955  0.64849  1.0000
  H   H1554     1.0  0.66088  0.76743  0.44827  1.0000
  C   C1554     1.0  0.69484  0.89449  0.50169  1.0000
  H   H1555     1.0  0.67758  0.75576  0.47859  1.0000
  H   H1556     1.0  0.59666  0.99021  0.36997  1.0000
  H   H1557     1.0  0.72859  0.52937  0.43706  1.0000
  C   C1555     1.0  0.58585  0.73198  0.36155  1.0000
  C   C1556     1.0  0.55406  0.73621  0.34965  1.0000
  C   C1557     1.0  0.62308  0.95668  0.40361  1.0000
  C   C1558     1.0  0.61856  0.96815  0.38511  1.0000
  H   H1558     1.0  0.69914  0.88650  0.48835  1.0000
  C   C1559     1.0  0.60014  0.98154  0.38428  1.0000
  S   S540      1.0  0.49395  0.73245  0.63020  1.0000
  C   C1560     1.0  0.60929  0.95896  0.42132  1.0000
  H   H1559     1.0  0.57429  0.96453  0.58231  1.0000
  H   H1560     1.0  0.61274  0.95044  0.43566  1.0000
  C   C1561     1.0  0.59548  0.97439  0.60928  1.0000
  C   C1562     1.0  0.57772  0.96847  0.62102  1.0000
  C   C1563     1.0  0.57547  0.94792  0.62550  1.0000
  C   C1564     1.0  0.59114  0.93319  0.61848  1.0000
  C   C1565     1.0  0.60896  0.93908  0.60693  1.0000
  C   C1566     1.0  0.61112  0.95964  0.60226  1.0000
  H   H1561     1.0  0.59033  0.94383  0.37882  1.0000
  C   C1567     1.0  0.72971  0.87820  0.44870  1.0000
  H   H1562     1.0  0.62114  0.92771  0.60150  1.0000
  H   H1563     1.0  0.62479  0.96408  0.59310  1.0000
  C   C1568     1.0  0.64340  0.93719  0.51163  1.0000
  C   C1569     1.0  0.64234  0.94182  0.53100  1.0000
  C   C1570     1.0  0.65009  0.95869  0.53342  1.0000
  C   C1571     1.0  0.65945  0.97058  0.51648  1.0000
  C   C1572     1.0  0.66053  0.96593  0.49716  1.0000
  C   C1573     1.0  0.65224  0.94947  0.49471  1.0000
  H   H1564     1.0  0.63559  0.93231  0.54417  1.0000
  H   H1565     1.0  0.64934  0.96214  0.54840  1.0000
  H   H1566     1.0  0.65264  0.94639  0.47970  1.0000
  H   H1567     1.0  0.71184  0.59184  0.44971  1.0000
  H   H1568     1.0  0.54834  0.77062  0.59078  1.0000
  C   C1574     1.0  0.56270  0.76365  0.36117  1.0000
  H   H1569     1.0  0.68903  0.83305  0.42807  1.0000
  N   N128      1.0  0.55433  0.77959  0.55901  1.0000
  H   H1570     1.0  0.65912  0.63701  0.44311  1.0000
  C   C1575     1.0  0.55515  0.94913  0.40414  1.0000
  H   H1571     1.0  0.63255  0.62895  0.48535  1.0000
  C   C1576     1.0  0.66835  0.77769  0.45342  1.0000
  Fe  Fe276     1.0  0.56045  0.89674  0.64149  1.0000
  H   H1572     1.0  0.74031  0.53707  0.57637  1.0000
  C   C1577     1.0  0.71135  0.94223  0.50700  1.0000
  C   C1578     1.0  0.68311  0.66787  0.46244  1.0000
  C   C1579     1.0  0.70056  0.65629  0.45329  1.0000
  C   C1580     1.0  0.71371  0.64273  0.46513  1.0000
  C   C1581     1.0  0.70942  0.64063  0.48624  1.0000
  C   C1582     1.0  0.69239  0.65278  0.49535  1.0000
  C   C1583     1.0  0.67932  0.66643  0.48350  1.0000
  H   H1573     1.0  0.70365  0.65740  0.43699  1.0000
  H   H1574     1.0  0.72682  0.63350  0.45795  1.0000
  H   H1575     1.0  0.68906  0.65131  0.51168  1.0000
  H   H1576     1.0  0.66601  0.67535  0.49072  1.0000
  C   C1584     1.0  0.62553  0.78902  0.48199  1.0000
  C   C1585     1.0  0.61606  0.79406  0.46487  1.0000
  C   C1586     1.0  0.61357  0.81416  0.45464  1.0000
  C   C1587     1.0  0.62075  0.82924  0.46131  1.0000
  C   C1588     1.0  0.63023  0.82418  0.47845  1.0000
  C   C1589     1.0  0.63248  0.80413  0.48884  1.0000
  H   H1577     1.0  0.61067  0.78249  0.45946  1.0000
  H   H1578     1.0  0.60619  0.81799  0.44141  1.0000
  H   H1579     1.0  0.63564  0.83572  0.48382  1.0000
  H   H1580     1.0  0.63984  0.80028  0.50208  1.0000
  C   C1590     1.0  0.54569  0.71154  0.39877  1.0000
  C   C1591     1.0  0.56395  0.70230  0.40544  1.0000
  C   C1592     1.0  0.57488  0.71341  0.41347  1.0000
  C   C1593     1.0  0.56769  0.73389  0.41466  1.0000
  C   C1594     1.0  0.54918  0.74300  0.40848  1.0000
  C   C1595     1.0  0.53815  0.73183  0.40064  1.0000
  H   H1581     1.0  0.56986  0.68661  0.40399  1.0000
  H   H1582     1.0  0.58930  0.70635  0.41788  1.0000
  H   H1583     1.0  0.54358  0.75886  0.40936  1.0000
  H   H1584     1.0  0.52410  0.73907  0.39555  1.0000
  C   C1596     1.0  0.54682  0.72075  0.56274  1.0000
  C   C1597     1.0  0.53459  0.71074  0.55519  1.0000
  C   C1598     1.0  0.54217  0.70171  0.53781  1.0000
  C   C1599     1.0  0.56181  0.70313  0.52765  1.0000
  C   C1600     1.0  0.57393  0.71346  0.53498  1.0000
  C   C1601     1.0  0.56656  0.72193  0.55269  1.0000
  H   H1585     1.0  0.51940  0.70970  0.56287  1.0000
  H   H1586     1.0  0.53276  0.69373  0.53219  1.0000
  H   H1587     1.0  0.58913  0.71456  0.52726  1.0000
  H   H1588     1.0  0.57612  0.72958  0.55850  1.0000
  C   C1602     1.0  0.49363  0.96377  0.32299  1.0000
  C   C1603     1.0  0.52411  0.67967  0.44151  1.0000
  H   H1589     1.0  0.59567  0.93561  0.53048  1.0000
  C   C1604     1.0  0.59574  0.98420  0.53547  1.0000
  C   C1605     1.0  0.50854  0.79161  0.62816  1.0000
  N   N129      1.0  0.54954  0.75579  0.35328  1.0000
  H   H1590     1.0  0.69648  0.88323  0.51564  1.0000
  H   H1591     1.0  0.54324  0.72961  0.34433  1.0000
  N   N130      1.0  0.70743  0.91004  0.50008  1.0000
  C   C1606     1.0  0.72651  0.89913  0.44203  1.0000
  S   S541      1.0  0.53778  0.88841  0.62606  1.0000
  C   C1607     1.0  0.55685  0.76778  0.52747  1.0000
  H   H1592     1.0  0.60549  0.96755  0.51049  1.0000
  H   H1593     1.0  0.68440  0.92903  0.51677  1.0000
  H   H1594     1.0  0.50030  0.84400  0.64582  1.0000
  N   N131      1.0  0.58419  0.94828  0.55753  1.0000
  H   H1595     1.0  0.50216  0.97462  0.37548  1.0000
  H   H1596     1.0  0.55814  0.96034  0.39017  1.0000
  N   N132      1.0  0.67632  0.81102  0.45081  1.0000
  H   H1597     1.0  0.66769  0.97517  0.48403  1.0000
  H   H1598     1.0  0.54016  0.72110  0.48270  1.0000
  C   C1608     1.0  0.57973  0.92891  0.56964  1.0000
  H   H1599     1.0  0.50455  0.67768  0.32830  1.0000
  C   C1609     1.0  0.58109  0.96512  0.56657  1.0000
  C   C1610     1.0  0.67775  0.77113  0.47049  1.0000
  C   C1611     1.0  0.52229  0.81937  0.63556  1.0000
  C   C1612     1.0  0.66841  0.62618  0.45284  1.0000
  H   H1600     1.0  0.66163  0.83753  0.43375  1.0000
  S   S542      1.0  0.58923  0.90726  0.62418  1.0000
  C   C1613     1.0  0.54299  0.78308  0.57893  1.0000
  H   H1601     1.0  0.68957  0.61565  0.42767  1.0000
  Fe  Fe277     1.0  0.50458  0.73477  0.59666  1.0000
  C   C1614     1.0  0.68566  0.61421  0.44400  1.0000
  H   H1602     1.0  0.58065  0.78894  0.56412  1.0000
  H   H1603     1.0  0.57496  0.91947  0.56042  1.0000
  S   S543      1.0  0.73600  0.50670  0.40458  1.0000
  C   C1615     1.0  0.69815  0.60084  0.45637  1.0000
  H   H1604     1.0  0.72472  0.98146  0.57745  1.0000
  H   H1605     1.0  0.58545  0.76835  0.50760  1.0000
  H   H1606     1.0  0.58052  0.97432  0.43435  1.0000
  H   H1607     1.0  0.56165  0.94352  0.63436  1.0000
  N   N133      1.0  0.66382  0.62493  0.47342  1.0000
  C   C1616     1.0  0.51363  0.69948  0.44041  1.0000
  C   C1617     1.0  0.69322  0.59953  0.47734  1.0000
  H   H1608     1.0  0.54158  0.94282  0.40341  1.0000
  C   C1618     1.0  0.58697  0.98326  0.55578  1.0000
  H   H1609     1.0  0.67614  0.84232  0.45089  1.0000
  H   H1610     1.0  0.60071  0.78208  0.53099  1.0000
  H   H1611     1.0  0.50060  0.70394  0.43268  1.0000
  N   N134      1.0  0.57243  0.93280  0.40655  1.0000
  C   C1619     1.0  0.57144  0.91824  0.42346  1.0000
  C   C1620     1.0  0.58936  0.93216  0.39210  1.0000
  C   C1621     1.0  0.58771  0.90251  0.42624  1.0000
  C   C1622     1.0  0.60602  0.91683  0.39456  1.0000
  C   C1623     1.0  0.60512  0.90191  0.41172  1.0000
  C   C1624     1.0  0.59107  0.97254  0.42055  1.0000
  H   H1612     1.0  0.55808  0.91882  0.43497  1.0000
  C   C1625     1.0  0.52517  0.80060  0.62888  1.0000
  H   H1613     1.0  0.58701  0.89098  0.43970  1.0000
  H   H1614     1.0  0.61978  0.91692  0.38355  1.0000
  H   H1615     1.0  0.61801  0.89005  0.41393  1.0000
  H   H1616     1.0  0.74042  0.95133  0.49534  1.0000
  C   C1626     1.0  0.72711  0.90705  0.49079  1.0000
  H   H1617     1.0  0.59339  0.92035  0.57586  1.0000
  N   N135      1.0  0.53744  0.70819  0.45765  1.0000
  H   H1618     1.0  0.56552  0.97988  0.62636  1.0000
  C   C1627     1.0  0.54740  0.68861  0.45944  1.0000
  C   C1628     1.0  0.52053  0.71365  0.44863  1.0000
  Fe  Fe278     1.0  0.51496  0.90146  0.65051  1.0000
  H   H1619     1.0  0.67251  0.61097  0.50196  1.0000
  C   C1629     1.0  0.54475  0.72315  0.46599  1.0000
  H   H1620     1.0  0.55877  0.77885  0.36491  1.0000
  H   H1621     1.0  0.56053  0.68424  0.46704  1.0000
  H   H1622     1.0  0.50915  0.94533  0.65152  1.0000
  C   C1630     1.0  0.58637  0.98374  0.40205  1.0000
  H   H1623     1.0  0.51090  0.77689  0.62353  1.0000
  C   C1631     1.0  0.67585  0.61169  0.48566  1.0000
  C   C1632     1.0  0.57380  0.78321  0.55379  1.0000
  C   C1633     1.0  0.54586  0.77181  0.54620  1.0000
  C   C1634     1.0  0.58107  0.75190  0.36535  1.0000
  H   H1624     1.0  0.53911  0.73895  0.45921  1.0000
  H   H1625     1.0  0.59969  0.72248  0.36544  1.0000
  H   H1626     1.0  0.71186  0.90683  0.43873  1.0000
  H   H1627     1.0  0.54487  0.79785  0.58236  1.0000
  C   C1635     1.0  0.57663  0.77163  0.52194  1.0000
  H   H1628     1.0  0.55028  0.76110  0.51761  1.0000
  H   H1629     1.0  0.70315  0.58974  0.48712  1.0000
  C   C1636     1.0  0.58521  0.77936  0.53515  1.0000
  C   C1637     1.0  0.59271  0.94908  0.53759  1.0000
  H   H1630     1.0  0.51259  0.72914  0.44727  1.0000
  H   H1631     1.0  0.51838  0.76387  0.36391  1.0000
  C   C1638     1.0  0.59836  0.96711  0.52620  1.0000
  S   S544      1.0  0.49751  0.73078  0.34909  1.0000
  C   C1639     1.0  0.50266  0.82947  0.64080  1.0000
  C   C1640     1.0  0.70458  0.49662  0.57943  1.0000
  C   C1641     1.0  0.69970  0.92705  0.50867  1.0000
  H   H1632     1.0  0.73347  0.89326  0.48459  1.0000
  H   H1633     1.0  0.70832  0.51171  0.57981  1.0000
  H   H1634     1.0  0.59110  0.75789  0.37239  1.0000
  H   H1635     1.0  0.50607  0.96001  0.33150  1.0000
  H   H1636     1.0  0.52988  0.78432  0.34813  1.0000
  H   H1637     1.0  0.54922  0.65872  0.45223  1.0000
  C   C1642     1.0  0.72411  0.49899  0.54519  1.0000
  S   S545      1.0  0.54348  0.82866  0.63910  1.0000
  C   C1643     1.0  0.73123  0.93963  0.49692  1.0000
  H   H1638     1.0  0.69901  0.98839  0.55466  1.0000
  H   H1639     1.0  0.57543  0.70832  0.35138  1.0000
  H   H1640     1.0  0.51926  0.66877  0.43456  1.0000
  C   C1644     1.0  0.74050  0.53513  0.42586  1.0000
  H   H1641     1.0  0.68862  0.49831  0.57738  1.0000
  H   H1642     1.0  0.49571  0.93962  0.37736  1.0000
  H   H1643     1.0  0.52472  0.76462  0.33691  1.0000
  H   H1644     1.0  0.73960  0.92647  0.43476  1.0000
  S   S546      1.0  0.67141  0.99020  0.51919  1.0000
  H   H1645     1.0  0.49814  0.62251  0.79872  1.0000
  S   S547      1.0  0.62551  0.49147  0.77957  1.0000
  H   H1646     1.0  0.60385  0.58876  0.93998  1.0000
  S   S548      1.0  0.56818  0.51028  0.79538  1.0000
  C   C1645     1.0  0.70014  0.49786  0.85973  1.0000
  C   C1646     1.0  0.50178  0.84793  0.84394  1.0000
  N   N136      1.0  0.69302  0.94152  0.96619  1.0000
  S   S549      1.0  0.68056  0.97746  0.90436  1.0000
  Fe  Fe279     1.0  0.59543  0.92636  0.82784  1.0000
  S   S550      1.0  0.58568  0.90348  0.81348  1.0000
  S   S551      1.0  0.62534  0.92254  0.83881  1.0000
  Fe  Fe280     1.0  0.55463  0.95310  0.82959  1.0000
  S   S552      1.0  0.54076  0.93285  0.81582  1.0000
  C   C1647     1.0  0.70072  0.92991  0.98257  1.0000
  Fe  Fe281     1.0  0.55712  0.90755  0.83612  1.0000
  S   S553      1.0  0.54503  0.88011  0.85506  1.0000
  Fe  Fe282     1.0  0.57006  0.93041  0.79422  1.0000
  S   S554      1.0  0.57000  0.93602  0.76034  1.0000
  S   S555      1.0  0.56815  0.92822  0.85188  1.0000
  S   S556      1.0  0.58262  0.95291  0.80651  1.0000
  H   H1647     1.0  0.60418  0.90601  0.73399  1.0000
  S   S557      1.0  0.51502  0.87192  0.67192  1.0000
  S   S558      1.0  0.71220  0.97299  0.86178  1.0000
  Fe  Fe283     1.0  0.67135  0.49247  0.94242  1.0000
  Fe  Fe284     1.0  0.53941  0.88178  0.68370  1.0000
  S   S559      1.0  0.53964  0.87568  0.71743  1.0000
  C   C1648     1.0  0.49531  0.92105  0.70551  1.0000
  Fe  Fe285     1.0  0.64964  0.52143  0.91077  1.0000
  S   S560      1.0  0.68240  0.50914  0.91179  1.0000
  S   S561      1.0  0.63460  0.52665  0.88302  1.0000
  Fe  Fe286     1.0  0.64106  0.52842  0.95479  1.0000
  S   S562      1.0  0.67311  0.51695  0.95939  1.0000
  H   H1648     1.0  0.69787  0.89815  0.88675  1.0000
  Fe  Fe287     1.0  0.68154  0.53462  0.92857  1.0000
  S   S563      1.0  0.70646  0.55355  0.92004  1.0000
  H   H1649     1.0  0.49898  0.80841  0.89933  1.0000
  H   H1650     1.0  0.55911  0.61740  0.98340  1.0000
  S   S564      1.0  0.64941  0.54849  0.92530  1.0000
  C   C1649     1.0  0.72022  0.95561  0.98335  1.0000
  C   C1650     1.0  0.69814  0.96028  0.95863  1.0000
  S   S565      1.0  0.53752  0.91240  0.66420  1.0000
  H   H1651     1.0  0.62806  0.60315  0.98277  1.0000
  C   C1651     1.0  0.72947  0.52593  0.94519  1.0000
  C   C1652     1.0  0.72780  0.54454  0.93217  1.0000
  C   C1653     1.0  0.50801  0.82507  0.96754  1.0000
  H   H1652     1.0  0.51883  0.62612  0.96563  1.0000
  H   H1653     1.0  0.71771  0.51677  0.94775  1.0000
  C   C1654     1.0  0.63712  0.50668  0.86917  1.0000
  S   S566      1.0  0.72835  0.98133  0.90184  1.0000
  C   C1655     1.0  0.57327  0.55811  0.75954  1.0000
  H   H1654     1.0  0.60442  0.55378  0.93857  1.0000
  H   H1655     1.0  0.62048  0.51955  0.73683  1.0000
  C   C1656     1.0  0.49934  0.75631  0.67278  1.0000
  C   C1657     1.0  0.60723  0.52088  0.72915  1.0000
  C   C1658     1.0  0.68999  0.94390  0.82829  1.0000
  C   C1659     1.0  0.51918  0.88267  0.86489  1.0000
  C   C1660     1.0  0.51220  0.86770  0.88041  1.0000
  H   H1656     1.0  0.70461  0.94176  0.81796  1.0000
  S   S567      1.0  0.71304  0.92585  0.90473  1.0000
  N   N137      1.0  0.49213  0.82072  0.87001  1.0000
  C   C1661     1.0  0.50536  0.89856  0.85662  1.0000
  H   H1657     1.0  0.52289  0.85549  0.88695  1.0000
  H   H1658     1.0  0.53899  0.51931  0.73321  1.0000
  H   H1659     1.0  0.66225  0.55019  0.85293  1.0000
  H   H1660     1.0  0.51064  0.91013  0.84465  1.0000
  H   H1661     1.0  0.67755  0.87530  0.87824  1.0000
  C   C1662     1.0  0.73903  0.89980  0.96301  1.0000
  C   C1663     1.0  0.58779  0.55526  0.94326  1.0000
  H   H1662     1.0  0.52718  0.97612  0.79774  1.0000
  H   H1663     1.0  0.66917  0.51494  0.81603  1.0000
  C   C1664     1.0  0.50654  0.96509  0.85370  1.0000
  H   H1664     1.0  0.53575  0.80304  0.68223  1.0000
  H   H1665     1.0  0.67995  0.91743  0.96064  1.0000
  S   S568      1.0  0.50660  0.55317  0.73638  1.0000
  H   H1666     1.0  0.51558  0.95122  0.84949  1.0000
  C   C1665     1.0  0.55922  0.92015  0.74939  1.0000
  C   C1666     1.0  0.55498  0.90133  0.75996  1.0000
  C   C1667     1.0  0.54838  0.88808  0.75012  1.0000
  C   C1668     1.0  0.54604  0.89353  0.72969  1.0000
  C   C1669     1.0  0.54965  0.91264  0.71930  1.0000
  C   C1670     1.0  0.55616  0.92592  0.72916  1.0000
  H   H1667     1.0  0.55731  0.89675  0.77554  1.0000
  H   H1668     1.0  0.54557  0.87334  0.75825  1.0000
  H   H1669     1.0  0.54798  0.91697  0.70355  1.0000
  H   H1670     1.0  0.55945  0.94047  0.72092  1.0000
  C   C1671     1.0  0.64689  0.97777  0.85132  1.0000
  C   C1672     1.0  0.63547  0.97992  0.83579  1.0000
  C   C1673     1.0  0.62806  0.96323  0.83235  1.0000
  C   C1674     1.0  0.63187  0.94434  0.84456  1.0000
  C   C1675     1.0  0.64261  0.94241  0.86058  1.0000
  C   C1676     1.0  0.65023  0.95903  0.86389  1.0000
  H   H1671     1.0  0.60134  0.50630  0.73342  1.0000
  H   H1672     1.0  0.61994  0.96483  0.81985  1.0000
  H   H1673     1.0  0.64535  0.92791  0.87028  1.0000
  H   H1674     1.0  0.65875  0.95730  0.87609  1.0000
  C   C1677     1.0  0.54970  0.51987  0.77980  1.0000
  C   C1678     1.0  0.53397  0.53514  0.78575  1.0000
  C   C1679     1.0  0.52024  0.54487  0.77273  1.0000
  C   C1680     1.0  0.52221  0.53940  0.75366  1.0000
  C   C1681     1.0  0.53747  0.52359  0.74796  1.0000
  C   C1682     1.0  0.55125  0.51382  0.76102  1.0000
  H   H1675     1.0  0.53271  0.53982  0.80028  1.0000
  H   H1676     1.0  0.70349  0.92983  0.86344  1.0000
  C   C1683     1.0  0.71820  0.89775  0.93868  1.0000
  H   H1677     1.0  0.71602  0.98240  0.96070  1.0000
  C   C1684     1.0  0.66560  0.54358  0.83871  1.0000
  H   H1678     1.0  0.65070  0.54294  0.83485  1.0000
  C   C1685     1.0  0.60233  0.90364  0.71920  1.0000
  C   C1686     1.0  0.52101  0.79875  0.68358  1.0000
  H   H1679     1.0  0.53293  0.77049  0.67290  1.0000
  C   C1687     1.0  0.56237  0.57216  0.96785  1.0000
  H   H1680     1.0  0.61773  0.52426  0.84843  1.0000
  C   C1688     1.0  0.56221  0.56207  0.72731  1.0000
  H   H1681     1.0  0.49951  0.86827  0.94408  1.0000
  C   C1689     1.0  0.71187  0.96758  0.96700  1.0000
  C   C1690     1.0  0.49497  0.98452  0.80661  1.0000
  H   H1682     1.0  0.57953  0.54207  0.70722  1.0000
  N   N138      1.0  0.57994  0.57235  0.95431  1.0000
  C   C1691     1.0  0.67818  0.51042  0.82810  1.0000
  H   H1683     1.0  0.66347  0.88450  0.84598  1.0000
  C   C1692     1.0  0.67279  0.89403  0.84969  1.0000
  H   H1684     1.0  0.59349  0.87426  0.73018  1.0000
  H   H1685     1.0  0.51101  0.75303  0.65953  1.0000
  C   C1693     1.0  0.55448  0.58842  0.97838  1.0000
  H   H1686     1.0  0.49241  0.96892  0.80978  1.0000
  S   S569      1.0  0.63860  0.50247  0.93995  1.0000
  H   H1687     1.0  0.58475  0.98216  0.84501  1.0000
  H   H1688     1.0  0.68983  0.95608  0.83710  1.0000
  C   C1694     1.0  0.73651  0.92587  0.93323  1.0000
  H   H1689     1.0  0.60885  0.93294  0.70434  1.0000
  C   C1695     1.0  0.57812  0.54681  0.72178  1.0000
  C   C1696     1.0  0.68861  0.51727  0.85697  1.0000
  H   H1690     1.0  0.50131  0.74374  0.68565  1.0000
  C   C1697     1.0  0.62354  0.57279  0.98215  1.0000
  H   H1691     1.0  0.51918  0.81778  0.95652  1.0000
  C   C1698     1.0  0.50013  0.89466  0.92074  1.0000
  S   S570      1.0  0.56416  0.86675  0.66216  1.0000
  H   H1692     1.0  0.70833  0.49300  0.87243  1.0000
  H   H1693     1.0  0.58743  0.87000  0.69664  1.0000
  C   C1699     1.0  0.51930  0.78045  0.67814  1.0000
  H   H1694     1.0  0.59273  0.89712  0.66710  1.0000
  C   C1700     1.0  0.58894  0.54285  0.75356  1.0000
  H   H1695     1.0  0.50987  0.94195  0.71505  1.0000
  N   N139      1.0  0.50072  0.77560  0.67853  1.0000
  H   H1696     1.0  0.50475  0.82658  0.69316  1.0000
  C   C1701     1.0  0.58281  0.98102  0.86172  1.0000
  C   C1702     1.0  0.60481  0.91889  0.70236  1.0000
  H   H1697     1.0  0.50172  0.67931  0.98376  1.0000
  C   C1703     1.0  0.55982  0.56774  0.74632  1.0000
  C   C1704     1.0  0.72574  0.88989  0.95686  1.0000
  N   N140      1.0  0.59135  0.53758  0.73478  1.0000
  H   H1698     1.0  0.66986  0.91598  0.82285  1.0000
  C   C1705     1.0  0.51468  0.98846  0.79981  1.0000
  C   C1706     1.0  0.50358  0.81203  0.68962  1.0000
  H   H1699     1.0  0.54704  0.57894  0.75109  1.0000
  C   C1707     1.0  0.63093  0.49523  0.83949  1.0000
  H   H1700     1.0  0.51227  0.79397  0.87971  1.0000
  C   C1708     1.0  0.68050  0.88901  0.86784  1.0000
  H   H1701     1.0  0.59058  0.61777  0.95844  1.0000
  C   C1709     1.0  0.72341  0.91586  0.92695  1.0000
  H   H1702     1.0  0.55455  0.55923  0.97084  1.0000
  H   H1703     1.0  0.72142  0.87609  0.96602  1.0000
  C   C1710     1.0  0.49768  0.80316  0.88526  1.0000
  H   H1704     1.0  0.59671  0.97204  0.86713  1.0000
  H   H1705     1.0  0.70808  0.88992  0.93387  1.0000
  C   C1711     1.0  0.58229  0.60523  0.96074  1.0000
  H   H1706     1.0  0.59869  0.53476  0.76433  1.0000
  H   H1707     1.0  0.68169  0.93816  0.94030  1.0000
  C   C1712     1.0  0.60397  0.93252  0.66640  1.0000
  Fe  Fe288     1.0  0.71084  0.95960  0.89473  1.0000
  H   H1708     1.0  0.57096  0.56163  0.77475  1.0000
  H   H1709     1.0  0.63662  0.56984  0.97072  1.0000
  C   C1713     1.0  0.59283  0.88348  0.69824  1.0000
  S   S571      1.0  0.54015  0.98299  0.83897  1.0000
  H   H1710     1.0  0.61296  0.52313  0.71262  1.0000
  H   H1711     1.0  0.58056  0.55734  0.92961  1.0000
  C   C1714     1.0  0.59628  0.88585  0.71707  1.0000
  H   H1712     1.0  0.50827  0.90900  0.70577  1.0000
  N   N141      1.0  0.68697  0.92481  0.84180  1.0000
  C   C1715     1.0  0.67644  0.91195  0.83664  1.0000
  H   H1713     1.0  0.69172  0.96969  0.94594  1.0000
  H   H1714     1.0  0.50847  0.55699  0.77728  1.0000
  C   C1716     1.0  0.69495  0.91979  0.85937  1.0000
  H   H1715     1.0  0.62381  0.49815  0.82614  1.0000
  H   H1716     1.0  0.55127  0.56888  0.71731  1.0000
  C   C1717     1.0  0.69181  0.90186  0.87266  1.0000
  H   H1717     1.0  0.67377  0.55375  0.82656  1.0000
  C   C1718     1.0  0.59565  0.89895  0.68167  1.0000
  N   N142      1.0  0.60178  0.91627  0.68384  1.0000
  C   C1719     1.0  0.58978  0.58870  0.95051  1.0000
  H   H1718     1.0  0.51349  0.85604  0.83482  1.0000
  H   H1719     1.0  0.56337  0.50209  0.75634  1.0000
  H   H1720     1.0  0.52263  0.82526  0.85922  1.0000
  C   C1720     1.0  0.62754  0.51002  0.85211  1.0000
  C   C1721     1.0  0.50605  0.62376  0.97741  1.0000
  H   H1721     1.0  0.68812  0.52739  0.86761  1.0000
  H   H1722     1.0  0.67751  0.94948  0.81926  1.0000
  C   C1722     1.0  0.56459  0.60501  0.97483  1.0000
  H   H1723     1.0  0.66298  0.94119  0.96271  1.0000
  N   N143      1.0  0.67762  0.52321  0.84146  1.0000
  C   C1723     1.0  0.67863  0.93423  0.95709  1.0000
  H   H1724     1.0  0.61371  0.94303  0.66840  1.0000
  C   C1724     1.0  0.50686  0.83051  0.85785  1.0000
  H   H1725     1.0  0.51647  0.89235  0.91692  1.0000
  H   H1726     1.0  0.58890  0.94137  0.66411  1.0000
  H   H1727     1.0  0.58507  0.54067  0.95308  1.0000
  H   H1728     1.0  0.57026  0.97238  0.86854  1.0000
  C   C1725     1.0  0.51512  0.98270  0.85074  1.0000
  S   S572      1.0  0.61593  0.53476  0.98078  1.0000
  C   C1726     1.0  0.51415  0.83115  0.98355  1.0000
  H   H1729     1.0  0.50004  0.97884  0.66268  1.0000
  C   C1727     1.0  0.49608  0.93970  0.71081  1.0000
  H   H1730     1.0  0.49586  0.92129  0.89822  1.0000
  H   H1731     1.0  0.49599  0.63487  0.83094  1.0000
  H   H1732     1.0  0.74076  0.93972  0.92418  1.0000
  C   C1728     1.0  0.49365  0.95272  0.65316  1.0000
  C   C1729     1.0  0.68963  0.49095  0.83033  1.0000
  S   S573      1.0  0.53967  0.82624  0.98627  1.0000
  Fe  Fe289     1.0  0.81668  0.21887  0.02737  1.0000
  S   S574      1.0  0.81186  0.24822  0.00598  1.0000
  S   S575      1.0  0.79522  0.19557  0.03687  1.0000
  Fe  Fe290     1.0  0.85760  0.22670  0.03402  1.0000
  S   S576      1.0  0.85601  0.25626  0.01267  1.0000
  S   S577      1.0  0.88617  0.21400  0.04721  1.0000
  Fe  Fe291     1.0  0.82384  0.26188  0.02794  1.0000
  S   S578      1.0  0.80930  0.29296  0.03537  1.0000
  Fe  Fe292     1.0  0.96770  0.23356  0.14929  1.0000
  S   S579      1.0  0.82599  0.23320  0.05073  1.0000
  S   S580      1.0  0.84874  0.20975  0.01283  1.0000
  S   S581      1.0  0.94770  0.26361  0.14256  1.0000
  C   C1730     1.0  0.76199  0.26182  0.03778  1.0000
  Fe  Fe293     1.0  0.94321  0.25222  0.11531  1.0000
  S   S582      1.0  0.91133  0.25995  0.10843  1.0000
  H   H1733     1.0  0.75295  0.99161  0.07633  1.0000
  Fe  Fe294     1.0  0.95584  0.10818  0.23673  1.0000
  H   H1734     1.0  0.96019  0.19112  0.21989  1.0000
  C   C1731     1.0  0.75877  0.36951  0.07001  1.0000
  Fe  Fe295     1.0  0.93181  0.07715  0.26382  1.0000
  S   S583      1.0  0.94510  0.07826  0.29102  1.0000
  S   S584      1.0  0.90525  0.06098  0.26724  1.0000
  Fe  Fe296     1.0  0.94049  0.11183  0.28106  1.0000
  C   C1732     1.0  0.77484  0.19825  0.00444  1.0000
  H   H1735     1.0  0.77541  0.23346  0.05387  1.0000
  C   C1733     1.0  0.91738  0.20334  0.19093  1.0000
  S   S585      1.0  0.92491  0.11099  0.25528  1.0000
  S   S586      1.0  0.96174  0.07394  0.24318  1.0000
  Fe  Fe297     1.0  0.84456  0.23993  0.99283  1.0000
  Fe  Fe298     1.0  0.84344  0.37241  0.08248  1.0000
  S   S587      1.0  0.82534  0.38639  0.10904  1.0000
  S   S588      1.0  0.85293  0.33844  0.08307  1.0000
  Fe  Fe299     1.0  0.84752  0.41372  0.05679  1.0000
  S   S589      1.0  0.82923  0.43098  0.08085  1.0000
  S   S590      1.0  0.86074  0.42732  0.02558  1.0000
  Fe  Fe300     1.0  0.84746  0.40860  0.10197  1.0000
  S   S591      1.0  0.86485  0.41549  0.12470  1.0000
  Fe  Fe301     1.0  0.80894  0.40749  0.08546  1.0000
  S   S592      1.0  0.77514  0.41729  0.08714  1.0000
  S   S593      1.0  0.86694  0.39257  0.07737  1.0000
  S   S594      1.0  0.82585  0.39225  0.05952  1.0000
  C   C1734     1.0  0.85784  0.02022  0.22965  1.0000
  C   C1735     1.0  0.77033  0.38211  0.07526  1.0000
  H   H1736     1.0  0.76697  0.02368  0.06469  1.0000
  H   H1737     1.0  0.91302  0.29704  0.06497  1.0000
  H   H1738     1.0  0.78600  0.37657  0.07667  1.0000
  C   C1736     1.0  0.86046  0.45361  0.02126  1.0000
  C   C1737     1.0  0.81106  0.45087  0.01986  1.0000
  H   H1739     1.0  0.87448  0.99362  0.21789  1.0000
  C   C1738     1.0  0.88072  0.46080  0.14687  1.0000
  C   C1739     1.0  0.87846  0.44164  0.14333  1.0000
  C   C1740     1.0  0.86632  0.44000  0.12942  1.0000
  C   C1741     1.0  0.85631  0.45781  0.11920  1.0000
  H   H1740     1.0  0.89011  0.46177  0.15760  1.0000
  H   H1741     1.0  0.88622  0.42800  0.15140  1.0000
  H   H1742     1.0  0.84690  0.45686  0.10849  1.0000
  C   C1742     1.0  0.90309  0.44296  0.08958  1.0000
  H   H1743     1.0  0.89843  0.21589  0.12554  1.0000
  C   C1743     1.0  0.96520  0.45857  0.13458  1.0000
  C   C1744     1.0  0.95994  0.47805  0.13982  1.0000
  H   H1744     1.0  0.85068  0.45746  0.05239  1.0000
  H   H1745     1.0  0.95359  0.44976  0.13477  1.0000
  C   C1745     1.0  0.86563  0.46347  0.00146  1.0000
  S   S595      1.0  0.96529  0.21758  0.18181  1.0000
  Fe  Fe302     1.0  0.97454  0.07816  0.26977  1.0000
  H   H1746     1.0  0.92413  0.20302  0.12075  1.0000
  S   S596      1.0  0.97093  0.11216  0.26182  1.0000
  C   C1746     1.0  0.76209  0.19133  0.99419  1.0000
  C   C1747     1.0  0.89287  0.02467  0.27110  1.0000
  C   C1748     1.0  0.90950  0.03484  0.26661  1.0000
  C   C1749     1.0  0.92865  0.02453  0.25988  1.0000
  H   H1747     1.0  0.87031  0.45477  0.98917  1.0000
  H   H1748     1.0  0.75912  0.25495  0.02576  1.0000
  H   H1749     1.0  0.87805  0.03256  0.27647  1.0000
  H   H1750     1.0  0.94157  0.03230  0.25646  1.0000
  C   C1750     1.0  0.87522  0.00846  0.22103  1.0000
  C   C1751     1.0  0.96572  0.19110  0.18770  1.0000
  C   C1752     1.0  0.96835  0.17919  0.17255  1.0000
  C   C1753     1.0  0.87746  0.04629  0.22903  1.0000
  C   C1754     1.0  0.96350  0.14933  0.19815  1.0000
  C   C1755     1.0  0.96108  0.16117  0.21332  1.0000
  C   C1756     1.0  0.96229  0.18197  0.20809  1.0000
  C   C1757     1.0  0.85853  0.47694  0.12277  1.0000
  C   C1758     1.0  0.91351  0.04261  0.21474  1.0000
  C   C1759     1.0  0.95634  0.47771  0.23331  1.0000
  C   C1760     1.0  0.85458  0.46492  0.03710  1.0000
  C   C1761     1.0  0.89285  0.22676  0.06441  1.0000
  C   C1762     1.0  0.87898  0.24169  0.07345  1.0000
  C   C1763     1.0  0.88475  0.25160  0.08715  1.0000
  C   C1764     1.0  0.90448  0.24689  0.09160  1.0000
  C   C1765     1.0  0.91836  0.23199  0.08255  1.0000
  C   C1766     1.0  0.91249  0.22185  0.06911  1.0000
  H   H1751     1.0  0.86377  0.24543  0.07004  1.0000
  H   H1752     1.0  0.87391  0.26301  0.09424  1.0000
  H   H1753     1.0  0.93364  0.22831  0.08582  1.0000
  H   H1754     1.0  0.92326  0.21030  0.06214  1.0000
  C   C1767     1.0  0.82068  0.30490  0.04996  1.0000
  C   C1768     1.0  0.81344  0.32535  0.05172  1.0000
  C   C1769     1.0  0.82277  0.33559  0.06242  1.0000
  C   C1770     1.0  0.83932  0.32543  0.07162  1.0000
  C   C1771     1.0  0.84607  0.30476  0.07051  1.0000
  C   C1772     1.0  0.83692  0.29456  0.05955  1.0000
  H   H1755     1.0  0.80085  0.33347  0.04441  1.0000
  H   H1756     1.0  0.81727  0.35141  0.06331  1.0000
  H   H1757     1.0  0.85876  0.29673  0.07771  1.0000
  H   H1758     1.0  0.84251  0.27876  0.05844  1.0000
  C   C1773     1.0  0.75617  0.31364  0.05127  1.0000
  C   C1774     1.0  0.77048  0.17014  0.03163  1.0000
  C   C1775     1.0  0.77914  0.18766  0.02325  1.0000
  H   H1759     1.0  0.96931  0.14925  0.16598  1.0000
  C   C1776     1.0  0.97094  0.46066  0.23735  1.0000
  H   H1760     1.0  0.92006  0.17080  0.19512  1.0000
  H   H1761     1.0  0.90459  0.42655  0.09193  1.0000
  C   C1777     1.0  0.75484  0.02095  0.05791  1.0000
  C   C1778     1.0  0.89352  0.01589  0.21661  1.0000
  H   H1762     1.0  0.92657  0.03030  0.21700  1.0000
  S   S597      1.0  0.96921  0.26498  0.09513  1.0000
  H   H1763     1.0  0.97846  0.44619  0.17446  1.0000
  H   H1764     1.0  0.94805  0.48584  0.24539  1.0000
  H   H1765     1.0  0.85180  0.33003  0.02301  1.0000
  H   H1766     1.0  0.92128  0.44313  0.11190  1.0000
  C   C1779     1.0  0.89124  0.31477  0.04656  1.0000
  C   C1780     1.0  0.87081  0.47861  0.13653  1.0000
  H   H1767     1.0  0.89039  0.32839  0.05293  1.0000
  C   C1781     1.0  0.77117  0.24975  0.05356  1.0000
  C   C1782     1.0  0.84706  0.16279  0.99930  1.0000
  H   H1768     1.0  0.88216  0.99700  0.27120  1.0000
  C   C1783     1.0  0.79981  0.44641  0.03903  1.0000
  C   C1784     1.0  0.86457  0.48460  0.99745  1.0000
  H   H1769     1.0  0.87055  0.29712  0.01400  1.0000
  C   C1785     1.0  0.88015  0.29731  0.02488  1.0000
  H   H1770     1.0  0.91602  0.23559  0.18160  1.0000
  H   H1771     1.0  0.86309  0.34436  0.03572  1.0000
  C   C1786     1.0  0.89812  0.48490  0.08512  1.0000
  H   H1772     1.0  0.77362  0.16183  0.04619  1.0000
  H   H1773     1.0  0.91065  0.23486  0.14694  1.0000
  N   N144      1.0  0.92255  0.34192  0.12677  1.0000
  C   C1787     1.0  0.92282  0.32255  0.12382  1.0000
  C   C1788     1.0  0.90543  0.35613  0.12562  1.0000
  C   C1789     1.0  0.90551  0.31682  0.12004  1.0000
  C   C1790     1.0  0.88786  0.35092  0.12184  1.0000
  C   C1791     1.0  0.88793  0.33111  0.11912  1.0000
  C   C1792     1.0  0.94106  0.34750  0.13036  1.0000
  H   H1774     1.0  0.93649  0.31139  0.12440  1.0000
  H   H1775     1.0  0.90518  0.37160  0.12766  1.0000
  H   H1776     1.0  0.90574  0.30140  0.11781  1.0000
  H   H1777     1.0  0.87428  0.36220  0.12099  1.0000
  H   H1778     1.0  0.87438  0.32683  0.11627  1.0000
  H   H1779     1.0  0.94821  0.33569  0.14174  1.0000
  H   H1780     1.0  0.95209  0.34871  0.11608  1.0000
  H   H1781     1.0  0.93812  0.36213  0.13619  1.0000
  C   C1793     1.0  0.89514  0.00455  0.26800  1.0000
  C   C1794     1.0  0.76148  0.40160  0.07910  1.0000
  N   N145      1.0  0.76073  0.29152  0.05248  1.0000
  C   C1795     1.0  0.83175  0.17665  0.99086  1.0000
  C   C1796     1.0  0.88885  0.47593  0.07334  1.0000
  H   H1782     1.0  0.77395  0.28683  0.07921  1.0000
  H   H1783     1.0  0.81396  0.99629  0.18044  1.0000
  S   S598      1.0  0.96096  0.22127  0.12355  1.0000
  H   H1784     1.0  0.87916  0.15221  0.99643  1.0000
  C   C1797     1.0  0.93091  0.00436  0.25669  1.0000
  H   H1785     1.0  0.92016  0.20354  0.20602  1.0000
  H   H1786     1.0  0.97425  0.45547  0.25261  1.0000
  C   C1798     1.0  0.79265  0.48212  0.04119  1.0000
  C   C1799     1.0  0.90941  0.20254  0.13094  1.0000
  H   H1787     1.0  0.90703  0.00648  0.21022  1.0000
  N   N146      1.0  0.89445  0.03460  0.22060  1.0000
  C   C1800     1.0  0.89292  0.27946  0.03131  1.0000
  C   C1801     1.0  0.91406  0.99450  0.26036  1.0000
  H   H1788     1.0  0.75301  0.40144  0.12577  1.0000
  C   C1802     1.0  0.96729  0.15837  0.17778  1.0000
  C   C1803     1.0  0.89132  0.45481  0.07566  1.0000
  C   C1804     1.0  0.79053  0.46210  0.04980  1.0000
  H   H1789     1.0  0.88393  0.44763  0.06690  1.0000
  H   H1790     1.0  0.94564  0.99659  0.25092  1.0000
  H   H1791     1.0  0.91417  0.05402  0.22418  1.0000
  H   H1792     1.0  0.90358  0.18878  0.12968  1.0000
  C   C1805     1.0  0.86655  0.33335  0.02491  1.0000
  C   C1806     1.0  0.95246  0.48434  0.21358  1.0000
  H   H1793     1.0  0.76872  0.32063  0.04131  1.0000
  H   H1794     1.0  0.78185  0.45866  0.06478  1.0000
  C   C1807     1.0  0.98555  0.45010  0.13008  1.0000
  C   C1808     1.0  0.75776  0.16319  0.02135  1.0000
  N   N147      1.0  0.91187  0.20276  0.15176  1.0000
  C   C1809     1.0  0.91224  0.22080  0.15757  1.0000
  C   C1810     1.0  0.91480  0.18493  0.16494  1.0000
  C   C1811     1.0  0.91502  0.22137  0.17721  1.0000
  C   C1812     1.0  0.91736  0.18497  0.18478  1.0000
  H   H1795     1.0  0.87828  0.06096  0.23256  1.0000
  S   S599      1.0  0.96202  0.12323  0.20404  1.0000
  C   C1813     1.0  0.90409  0.29715  0.05340  1.0000
  C   C1814     1.0  0.77527  0.25878  0.06868  1.0000
  H   H1796     1.0  0.79832  0.43083  0.04560  1.0000
  H   H1797     1.0  0.78111  0.21191  0.99792  1.0000
  S   S600      1.0  0.74583  0.03297  0.10902  1.0000
  H   H1798     1.0  0.75004  0.06941  0.08044  1.0000
  H   H1799     1.0  0.91517  0.04990  0.19863  1.0000
  C   C1815     1.0  0.85894  0.03922  0.23380  1.0000
  H   H1800     1.0  0.84557  0.04837  0.24078  1.0000
  H   H1801     1.0  0.76575  0.35441  0.06722  1.0000
  S   S601      1.0  0.92673  0.13170  0.30461  1.0000
  C   C1816     1.0  0.91232  0.45244  0.10095  1.0000
  N   N148      1.0  0.87947  0.31466  0.03248  1.0000
  H   H1802     1.0  0.84340  0.15266  0.01336  1.0000
  H   H1803     1.0  0.91539  0.17052  0.16013  1.0000
  H   H1804     1.0  0.81630  0.17706  0.99860  1.0000
  H   H1805     1.0  0.96565  0.10823  0.31066  1.0000
  H   H1806     1.0  0.95816  0.15433  0.22907  1.0000
  C   C1817     1.0  0.75344  0.17377  0.00255  1.0000
  N   N149      1.0  0.97703  0.45672  0.20231  1.0000
  Fe  Fe303     1.0  0.97519  0.27417  0.12305  1.0000
  C   C1818     1.0  0.98128  0.45034  0.22155  1.0000
  C   C1819     1.0  0.97502  0.48899  0.14050  1.0000
  H   H1807     1.0  0.91809  0.47490  0.12665  1.0000
  C   C1820     1.0  0.74680  0.00306  0.06466  1.0000
  C   C1821     1.0  0.86708  0.16259  0.98983  1.0000
  H   H1808     1.0  0.75123  0.14971  0.02804  1.0000
  C   C1822     1.0  0.85366  0.48604  0.03311  1.0000
  H   H1809     1.0  0.87410  0.34063  0.01017  1.0000
  C   C1823     1.0  0.91969  0.48266  0.11067  1.0000
  C   C1824     1.0  0.90510  0.27952  0.04547  1.0000
  H   H1810     1.0  0.89323  0.26556  0.02560  1.0000
  H   H1811     1.0  0.84359  0.01451  0.23316  1.0000
  H   H1812     1.0  0.91506  0.26578  0.05055  1.0000
  H   H1813     1.0  0.97111  0.18604  0.15682  1.0000
  C   C1825     1.0  0.75696  0.28283  0.03741  1.0000
  N   N150      1.0  0.90962  0.47314  0.09875  1.0000
  C   C1826     1.0  0.76999  0.27982  0.06787  1.0000
  C   C1827     1.0  0.96308  0.47367  0.19815  1.0000
  H   H1814     1.0  0.78295  0.24960  0.08068  1.0000
  S   S602      1.0  0.97980  0.30680  0.11926  1.0000
  H   H1815     1.0  0.96004  0.47899  0.18285  1.0000
  H   H1816     1.0  0.99029  0.34572  0.11795  1.0000
  H   H1817     1.0  0.75026  0.29219  0.02486  1.0000
  N   N151      1.0  0.80376  0.48636  0.02239  1.0000
  C   C1828     1.0  0.98816  0.44595  0.18585  1.0000
  H   H1818     1.0  0.82158  0.47440  0.99674  1.0000
  H   H1819     1.0  0.94425  0.48440  0.14374  1.0000
  H   H1820     1.0  0.75256  0.04975  0.03825  1.0000
  C   C1829     1.0  0.74657  0.03565  0.04302  1.0000
  H   H1821     1.0  0.93597  0.48183  0.10425  1.0000
  Fe  Fe304     1.0  0.98765  0.23510  0.10560  1.0000
  H   H1822     1.0  0.87963  0.48529  0.06266  1.0000
  C   C1830     1.0  0.81274  0.47107  0.01163  1.0000
  H   H1823     1.0  0.75413  0.31823  0.06640  1.0000
  H   H1824     1.0  0.81878  0.43871  0.01159  1.0000
  H   H1825     1.0  0.85074  0.49057  0.11471  1.0000
  C   C1831     1.0  0.88809  0.43359  0.60693  1.0000
  S   S603      1.0  0.95432  0.48949  0.37224  1.0000
  Fe  Fe305     1.0  0.76704  0.45025  0.36616  1.0000
  S   S604      1.0  0.77590  0.41690  0.37767  1.0000
  C   C1832     1.0  0.82045  0.01713  0.63963  1.0000
  Fe  Fe306     1.0  0.77333  0.31713  0.47394  1.0000
  S   S605      1.0  0.77065  0.34942  0.47753  1.0000
  S   S606      1.0  0.80087  0.30560  0.45253  1.0000
  Fe  Fe307     1.0  0.76162  0.33895  0.51052  1.0000
  C   C1833     1.0  0.98406  0.18603  0.51490  1.0000
  S   S607      1.0  0.94392  0.41470  0.60789  1.0000
  Fe  Fe308     1.0  0.78292  0.48787  0.34184  1.0000
  S   S608      1.0  0.76674  0.30605  0.50733  1.0000
  C   C1834     1.0  0.84216  0.41216  0.64301  1.0000
  S   S609      1.0  0.76607  0.44042  0.59581  1.0000
  C   C1835     1.0  0.96006  0.39120  0.60903  1.0000
  C   C1836     1.0  0.74430  0.32286  0.56778  1.0000
  S   S610      1.0  0.81792  0.02802  0.53640  1.0000
  S   S611      1.0  0.76977  0.05668  0.56173  1.0000
  C   C1837     1.0  0.97148  0.09906  0.50278  1.0000
  S   S612      1.0  0.82366  0.03472  0.58133  1.0000
  C   C1838     1.0  0.91092  0.08543  0.39037  1.0000
  Fe  Fe309     1.0  0.79798  0.03393  0.56551  1.0000
  Fe  Fe310     1.0  0.84359  0.02549  0.55328  1.0000
  S   S613      1.0  0.87174  0.03974  0.54392  1.0000
  S   S614      1.0  0.97093  0.10722  0.38113  1.0000
  H   H1826     1.0  0.84669  0.26625  0.48737  1.0000
  H   H1827     1.0  0.98091  0.15516  0.51553  1.0000
  Fe  Fe311     1.0  0.96465  0.09756  0.45390  1.0000
  S   S615      1.0  0.93304  0.10631  0.46930  1.0000
  C   C1839     1.0  0.85201  0.43392  0.59406  1.0000
  Fe  Fe312     1.0  0.95361  0.11106  0.41205  1.0000
  S   S616      1.0  0.92084  0.12157  0.42357  1.0000
  H   H1828     1.0  0.74771  0.34237  0.58764  1.0000
  Fe  Fe313     1.0  0.93268  0.13447  0.44611  1.0000
  S   S617      1.0  0.91936  0.16175  0.46121  1.0000
  Fe  Fe314     1.0  0.92360  0.09270  0.44601  1.0000
  S   S618      1.0  0.89859  0.07409  0.45180  1.0000
  S   S619      1.0  0.96519  0.12679  0.43244  1.0000
  S   S620      1.0  0.95538  0.08115  0.43277  1.0000
  Fe  Fe315     1.0  0.91412  0.30418  0.45467  1.0000
  S   S621      1.0  0.92865  0.27177  0.46235  1.0000
  S   S622      1.0  0.88437  0.31571  0.47314  1.0000
  Fe  Fe316     1.0  0.94928  0.31423  0.42165  1.0000
  S   S623      1.0  0.96673  0.28261  0.42633  1.0000
  S   S624      1.0  0.95826  0.33930  0.39639  1.0000
  Fe  Fe317     1.0  0.93687  0.27256  0.42889  1.0000
  S   S625      1.0  0.93417  0.24785  0.41236  1.0000
  Fe  Fe318     1.0  0.95721  0.28421  0.45942  1.0000
  C   C1840     1.0  0.96975  0.10678  0.52074  1.0000
  S   S626      1.0  0.91998  0.30404  0.42128  1.0000
  S   S627      1.0  0.94216  0.31684  0.45471  1.0000
  C   C1841     1.0  0.86635  0.41622  0.59593  1.0000
  H   H1829     1.0  0.89266  0.38391  0.60441  1.0000
  H   H1830     1.0  0.75745  0.36241  0.43232  1.0000
  C   C1842     1.0  0.87094  0.02321  0.64084  1.0000
  H   H1831     1.0  0.87876  0.11716  0.47118  1.0000
  C   C1843     1.0  0.92431  0.18535  0.44757  1.0000
  C   C1844     1.0  0.92112  0.20193  0.45781  1.0000
  C   C1845     1.0  0.92487  0.22101  0.44727  1.0000
  C   C1846     1.0  0.93119  0.22373  0.42632  1.0000
  C   C1847     1.0  0.93432  0.20713  0.41609  1.0000
  C   C1848     1.0  0.93117  0.18788  0.42673  1.0000
  H   H1832     1.0  0.91581  0.20000  0.47395  1.0000
  H   H1833     1.0  0.92249  0.23360  0.45536  1.0000
  H   H1834     1.0  0.93919  0.20915  0.39987  1.0000
  H   H1835     1.0  0.93363  0.17513  0.41873  1.0000
  H   H1836     1.0  0.90345  0.08803  0.40543  1.0000
  C   C1849     1.0  0.90099  0.09260  0.37362  1.0000
  H   H1837     1.0  0.99049  0.18265  0.52878  1.0000
  C   C1850     1.0  0.96505  0.38621  0.41884  1.0000
  H   H1838     1.0  0.94725  0.36404  0.43658  1.0000
  C   C1851     1.0  0.76702  0.01950  0.53109  1.0000
  C   C1852     1.0  0.75972  0.38802  0.57327  1.0000
  H   H1839     1.0  0.99092  0.27000  0.51970  1.0000
  H   H1840     1.0  0.95842  0.09498  0.49891  1.0000
  H   H1841     1.0  0.95524  0.10909  0.53039  1.0000
  H   H1842     1.0  0.98281  0.09901  0.34076  1.0000
  H   H1843     1.0  0.76353  0.03602  0.52541  1.0000
  C   C1853     1.0  0.93067  0.07503  0.38756  1.0000
  H   H1844     1.0  0.98682  0.32356  0.35404  1.0000
  H   H1845     1.0  0.97038  0.35249  0.46206  1.0000
  H   H1846     1.0  0.83764  0.43368  0.58963  1.0000
  C   C1854     1.0  0.89958  0.09700  0.33746  1.0000
  C   C1855     1.0  0.88053  0.04648  0.51794  1.0000
  C   C1856     1.0  0.86986  0.04421  0.50319  1.0000
  C   C1857     1.0  0.87588  0.05212  0.48276  1.0000
  C   C1858     1.0  0.89271  0.06211  0.47701  1.0000
  C   C1859     1.0  0.90390  0.06343  0.49166  1.0000
  C   C1860     1.0  0.89777  0.05574  0.51207  1.0000
  H   H1847     1.0  0.85672  0.03679  0.50756  1.0000
  H   H1848     1.0  0.86730  0.05081  0.47145  1.0000
  H   H1849     1.0  0.91717  0.07057  0.48737  1.0000
  H   H1850     1.0  0.90622  0.05733  0.52338  1.0000
  H   H1851     1.0  0.95578  0.06430  0.36577  1.0000
  H   H1852     1.0  0.93751  0.07688  0.33676  1.0000
  H   H1853     1.0  0.76612  0.39188  0.58507  1.0000
  C   C1861     1.0  0.82378  0.42252  0.63728  1.0000
  H   H1854     1.0  0.84706  0.39641  0.64129  1.0000
  C   C1862     1.0  0.93006  0.13277  0.34377  1.0000
  C   C1863     1.0  0.93957  0.12715  0.36100  1.0000
  C   C1864     1.0  0.95864  0.11502  0.35991  1.0000
  C   C1865     1.0  0.96807  0.10842  0.34166  1.0000
  H   H1855     1.0  0.91539  0.14230  0.34456  1.0000
  H   H1856     1.0  0.93228  0.13238  0.37502  1.0000
  H   H1857     1.0  0.96885  0.39429  0.57666  1.0000
  H   H1858     1.0  0.80375  0.45117  0.63460  1.0000
  H   H1859     1.0  0.88600  0.08974  0.33943  1.0000
  C   C1866     1.0  0.98403  0.36624  0.59166  1.0000
  H   H1860     1.0  0.81583  0.02547  0.62567  1.0000
  H   H1861     1.0  0.78056  0.48124  0.41888  1.0000
  H   H1862     1.0  0.78496  0.48768  0.53605  1.0000
  H   H1863     1.0  0.82446  0.46848  0.64954  1.0000
  S   S628      1.0  0.75196  0.40732  0.63547  1.0000
  C   C1867     1.0  0.77110  0.37404  0.56104  1.0000
  C   C1868     1.0  0.96239  0.37882  0.62760  1.0000
  C   C1869     1.0  0.98677  0.11129  0.52634  1.0000
  C   C1870     1.0  0.82369  0.31015  0.45766  1.0000
  C   C1871     1.0  0.84098  0.30925  0.44274  1.0000
  C   C1872     1.0  0.85967  0.31129  0.44714  1.0000
  C   C1873     1.0  0.86113  0.31421  0.46652  1.0000
  C   C1874     1.0  0.84371  0.31574  0.48121  1.0000
  C   C1875     1.0  0.82505  0.31371  0.47681  1.0000
  H   H1864     1.0  0.83997  0.30663  0.42786  1.0000
  H   H1865     1.0  0.87299  0.31035  0.43566  1.0000
  H   H1866     1.0  0.84473  0.31809  0.49619  1.0000
  H   H1867     1.0  0.81180  0.31447  0.48840  1.0000
  C   C1876     1.0  0.76240  0.40746  0.40108  1.0000
  C   C1877     1.0  0.74759  0.03134  0.58962  1.0000
  C   C1878     1.0  0.98605  0.36340  0.37751  1.0000
  C   C1879     1.0  0.76613  0.38664  0.40863  1.0000
  N   N152      1.0  0.74842  0.01080  0.53770  1.0000
  H   H1868     1.0  0.77760  0.37670  0.40024  1.0000
  C   C1880     1.0  0.75474  0.37854  0.42674  1.0000
  C   C1881     1.0  0.87399  0.11125  0.48699  1.0000
  C   C1882     1.0  0.97539  0.36008  0.62816  1.0000
  H   H1869     1.0  0.77705  0.01158  0.51916  1.0000
  H   H1870     1.0  0.96387  0.16197  0.46591  1.0000
  Fe  Fe319     1.0  0.93300  0.42604  0.63763  1.0000
  Fe  Fe320     1.0  0.81760  0.99529  0.54976  1.0000
  H   H1871     1.0  0.94960  0.15538  0.49059  1.0000
  H   H1872     1.0  0.76079  0.02668  0.59695  1.0000
  H   H1873     1.0  0.75414  0.41832  0.34234  1.0000
  H   H1874     1.0  0.90914  0.09400  0.32286  1.0000
  S   S629      1.0  0.77202  0.46211  0.33278  1.0000
  H   H1875     1.0  0.77284  0.47700  0.57233  1.0000
  N   N153      1.0  0.97076  0.17465  0.48970  1.0000
  H   H1876     1.0  0.75297  0.46236  0.51985  1.0000
  C   C1883     1.0  0.81756  0.44288  0.63949  1.0000
  C   C1884     1.0  0.92979  0.07907  0.35181  1.0000
  H   H1877     1.0  0.86188  0.04655  0.61641  1.0000
  H   H1878     1.0  0.98094  0.42562  0.40440  1.0000
  S   S630      1.0  0.80917  0.40993  0.62685  1.0000
  C   C1885     1.0  0.93938  0.12586  0.32561  1.0000
  C   C1886     1.0  0.85583  0.45161  0.59901  1.0000
  Fe  Fe321     1.0  0.77711  0.42563  0.62494  1.0000
  H   H1879     1.0  0.91204  0.39888  0.59197  1.0000
  C   C1887     1.0  0.89907  0.39765  0.60452  1.0000
  C   C1888     1.0  0.97363  0.36441  0.44939  1.0000
  S   S631      1.0  0.76179  0.45095  0.64195  1.0000
  C   C1889     1.0  0.87400  0.45149  0.60545  1.0000
  H   H1880     1.0  0.74354  0.39201  0.36982  1.0000
  H   H1881     1.0  0.89692  0.12226  0.49752  1.0000
  S   S632      1.0  0.91524  0.45754  0.63579  1.0000
  S   S633      1.0  0.78042  0.47426  0.37465  1.0000
  C   C1890     1.0  0.97265  0.21005  0.48683  1.0000
  H   H1882     1.0  0.97006  0.22554  0.47882  1.0000
  H   H1883     1.0  0.74451  0.43628  0.40622  1.0000
  C   C1891     1.0  0.96754  0.19414  0.47957  1.0000
  H   H1884     1.0  0.81262  0.48309  0.39444  1.0000
  H   H1885     1.0  0.78628  0.36718  0.56348  1.0000
  H   H1886     1.0  0.89502  0.11375  0.33603  1.0000
  N   N154      1.0  0.91044  0.08934  0.35467  1.0000
  H   H1887     1.0  0.98507  0.21808  0.51041  1.0000
  S   S634      1.0  0.77673  0.34959  0.53231  1.0000
  N   N155      1.0  0.87158  0.25850  0.43296  1.0000
  C   C1892     1.0  0.85142  0.25779  0.43905  1.0000
  C   C1893     1.0  0.88303  0.26142  0.44616  1.0000
  C   C1894     1.0  0.84221  0.26035  0.45877  1.0000
  C   C1895     1.0  0.87435  0.26392  0.46601  1.0000
  C   C1896     1.0  0.85378  0.26346  0.47229  1.0000
  C   C1897     1.0  0.88129  0.25554  0.41239  1.0000
  H   H1888     1.0  0.84223  0.25569  0.42858  1.0000
  H   H1889     1.0  0.89890  0.26221  0.44118  1.0000
  H   H1890     1.0  0.82604  0.26076  0.46328  1.0000
  H   H1891     1.0  0.88334  0.26701  0.47621  1.0000
  H   H1892     1.0  0.86296  0.40243  0.59259  1.0000
  H   H1893     1.0  0.89170  0.26670  0.40593  1.0000
  H   H1894     1.0  0.89035  0.24006  0.41272  1.0000
  H   H1895     1.0  0.87013  0.25757  0.40201  1.0000
  N   N156      1.0  0.85227  0.09229  0.51248  1.0000
  C   C1898     1.0  0.86243  0.09470  0.52704  1.0000
  C   C1899     1.0  0.87865  0.10547  0.52190  1.0000
  C   C1900     1.0  0.83478  0.08170  0.51831  1.0000
  H   H1896     1.0  0.85833  0.08783  0.54268  1.0000
  H   H1897     1.0  0.88692  0.10701  0.53342  1.0000
  H   H1898     1.0  0.82083  0.09256  0.52226  1.0000
  H   H1899     1.0  0.83289  0.07415  0.50589  1.0000
  N   N157      1.0  0.80707  0.37681  0.44839  1.0000
  C   C1901     1.0  0.79067  0.39118  0.45311  1.0000
  C   C1902     1.0  0.81799  0.36620  0.46301  1.0000
  C   C1903     1.0  0.78483  0.39522  0.47295  1.0000
  C   C1904     1.0  0.81250  0.36975  0.48302  1.0000
  C   C1905     1.0  0.79577  0.38432  0.48800  1.0000
  C   C1906     1.0  0.81192  0.37146  0.42801  1.0000
  H   H1900     1.0  0.78164  0.39919  0.44167  1.0000
  H   H1901     1.0  0.83075  0.35455  0.45934  1.0000
  H   H1902     1.0  0.77141  0.40610  0.47677  1.0000
  H   H1903     1.0  0.82075  0.36078  0.49472  1.0000
  H   H1904     1.0  0.79094  0.38663  0.50363  1.0000
  H   H1905     1.0  0.80754  0.38471  0.41643  1.0000
  H   H1906     1.0  0.82838  0.36617  0.42388  1.0000
  H   H1907     1.0  0.80371  0.35905  0.42741  1.0000
  C   C1907     1.0  0.94021  0.07182  0.36819  1.0000
  H   H1908     1.0  0.95492  0.39100  0.40775  1.0000
  C   C1908     1.0  0.97076  0.38481  0.59106  1.0000
  Fe  Fe322     1.0  0.74863  0.46447  0.61367  1.0000
  H   H1909     1.0  0.97562  0.36949  0.36691  1.0000
  C   C1909     1.0  0.74537  0.99854  0.55606  1.0000
  C   C1910     1.0  0.96056  0.37099  0.43520  1.0000
  H   H1910     1.0  0.96100  0.19750  0.46578  1.0000
  H   H1911     1.0  0.85010  0.09817  0.48102  1.0000
  H   H1912     1.0  0.98752  0.30800  0.46195  1.0000
  C   C1911     1.0  0.99021  0.09593  0.49034  1.0000
  H   H1913     1.0  0.87696  0.46503  0.60978  1.0000
  H   H1914     1.0  0.95409  0.38360  0.64153  1.0000
  H   H1915     1.0  0.93865  0.06969  0.40035  1.0000
  C   C1912     1.0  0.98647  0.35390  0.61023  1.0000
  C   C1913     1.0  0.98103  0.20590  0.50458  1.0000
  H   H1916     1.0  0.90219  0.43355  0.61190  1.0000
  C   C1914     1.0  0.76276  0.36851  0.54608  1.0000
  H   H1917     1.0  0.88573  0.10091  0.37584  1.0000
  H   H1918     1.0  0.97937  0.40987  0.38646  1.0000
  C   C1915     1.0  0.88434  0.11390  0.50175  1.0000
  C   C1916     1.0  0.85782  0.10044  0.49267  1.0000
  N   N158      1.0  0.87714  0.00294  0.64688  1.0000
  H   H1919     1.0  0.97574  0.14394  0.48470  1.0000
  C   C1917     1.0  0.74315  0.37744  0.54301  1.0000
  H   H1920     1.0  0.83673  0.06951  0.53158  1.0000
  N   N159      1.0  0.88403  0.41619  0.60253  1.0000
  S   S635      1.0  0.97719  0.26943  0.48263  1.0000
  C   C1918     1.0  0.82946  0.45276  0.64768  1.0000
  C   C1919     1.0  0.82703  0.99617  0.64161  1.0000
  H   H1921     1.0  0.90495  0.39547  0.61905  1.0000
  H   H1922     1.0  0.77545  0.01796  0.54378  1.0000
  C   C1920     1.0  0.74772  0.04631  0.57242  1.0000
  C   C1921     1.0  0.98800  0.28746  0.49020  1.0000
  C   C1922     1.0  0.86725  0.03056  0.62103  1.0000
  Fe  Fe323     1.0  0.82388  0.00126  0.59111  1.0000
  C   C1923     1.0  0.95838  0.11363  0.32460  1.0000
  H   H1923     1.0  0.97715  0.35051  0.64256  1.0000
  H   H1924     1.0  0.76027  0.31660  0.56524  1.0000
  S   S636      1.0  0.84533  0.99194  0.56394  1.0000
  S   S637      1.0  0.98422  0.12128  0.54864  1.0000
  C   C1924     1.0  0.97870  0.17052  0.50728  1.0000
  C   C1925     1.0  0.97744  0.48211  0.35704  1.0000
  C   C1926     1.0  0.87005  0.01705  0.60736  1.0000
  S   S638      1.0  0.79633  0.00133  0.57800  1.0000
  H   H1925     1.0  0.84452  0.46523  0.59834  1.0000
  C   C1927     1.0  0.96473  0.15821  0.48236  1.0000
  C   C1928     1.0  0.98135  0.34798  0.39365  1.0000
  C   C1929     1.0  0.74738  0.42020  0.41182  1.0000
  C   C1930     1.0  0.99021  0.46439  0.36384  1.0000
  N   N160      1.0  0.98229  0.39436  0.41646  1.0000
  H   H1926     1.0  0.98567  0.45538  0.37827  1.0000
  C   C1931     1.0  0.87643  0.99644  0.61364  1.0000
  C   C1932     1.0  0.99176  0.30515  0.47684  1.0000
  C   C1933     1.0  0.98660  0.41062  0.39950  1.0000
  C   C1934     1.0  0.74288  0.46928  0.53186  1.0000
  H   H1927     1.0  0.86703  0.02247  0.59201  1.0000
  C   C1935     1.0  0.85423  0.42214  0.65098  1.0000
  H   H1928     1.0  0.75652  0.99543  0.56608  1.0000
  H   H1929     1.0  0.99124  0.32838  0.41989  1.0000
  C   C1936     1.0  0.99101  0.37306  0.44703  1.0000
  H   H1930     1.0  0.99043  0.34645  0.32077  1.0000
  H   H1931     1.0  0.86836  0.03375  0.65150  1.0000
  Fe  Fe324     1.0  0.98009  0.07301  0.74693  1.0000
  Fe  Fe325     1.0  0.84167  0.01237  0.71962  1.0000
  N   N161      1.0  0.78533  0.99160  0.74080  1.0000
  C   C1937     1.0  0.78328  0.02757  0.72982  1.0000
  C   C1938     1.0  0.97739  0.06823  0.69165  1.0000
  C   C1939     1.0  0.98919  0.07473  0.67333  1.0000
  S   S639      1.0  0.96472  0.10541  0.74399  1.0000
  H   H1932     1.0  0.94693  0.47159  0.84141  1.0000
  C   C1940     1.0  0.98432  0.09443  0.66321  1.0000
  C   C1941     1.0  0.96294  0.44568  0.74433  1.0000
  S   S640      1.0  0.87538  0.03951  0.76543  1.0000
  H   H1933     1.0  0.89754  0.99580  0.66809  1.0000
  C   C1942     1.0  0.77873  0.40123  0.68154  1.0000
  S   S641      1.0  0.98424  0.24021  0.84763  1.0000
  C   C1943     1.0  0.80452  0.44726  0.69631  1.0000
  C   C1944     1.0  0.78891  0.00766  0.72586  1.0000
  S   S642      1.0  0.82673  0.02999  0.69336  1.0000
  C   C1945     1.0  0.97802  0.46596  0.82718  1.0000
  S   S643      1.0  0.83206  0.01923  0.75128  1.0000
  N   N162      1.0  0.83624  0.18988  0.97343  1.0000
  C   C1946     1.0  0.96848  0.48977  0.66283  1.0000
  C   C1947     1.0  0.84359  0.02662  0.81402  1.0000
  Fe  Fe326     1.0  0.95216  0.24788  0.86212  1.0000
  C   C1948     1.0  0.85582  0.18972  0.96400  1.0000
  S   S644      1.0  0.93250  0.27593  0.84857  1.0000
  Fe  Fe327     1.0  0.95662  0.21313  0.89701  1.0000
  S   S645      1.0  0.94266  0.20028  0.92838  1.0000
  S   S646      1.0  0.94607  0.21575  0.86713  1.0000
  H   H1934     1.0  0.98476  0.27948  0.81872  1.0000
  Fe  Fe328     1.0  0.91123  0.42669  0.86377  1.0000
  S   S647      1.0  0.91703  0.44457  0.83253  1.0000
  S   S648      1.0  0.89224  0.43669  0.89215  1.0000
  Fe  Fe329     1.0  0.93790  0.38813  0.85214  1.0000
  S   S649      1.0  0.94628  0.40236  0.81993  1.0000
  S   S650      1.0  0.95279  0.35720  0.86555  1.0000
  Fe  Fe330     1.0  0.94916  0.42945  0.83258  1.0000
  H   H1935     1.0  0.98909  0.24333  0.93047  1.0000
  Fe  Fe331     1.0  0.91363  0.41634  0.82188  1.0000
  S   S651      1.0  0.89608  0.42087  0.79609  1.0000
  S   S652      1.0  0.94390  0.41405  0.86474  1.0000
  S   S653      1.0  0.90475  0.39961  0.85326  1.0000
  H   H1936     1.0  0.78510  0.38585  0.68871  1.0000
  C   C1949     1.0  0.77364  0.03099  0.74911  1.0000
  C   C1950     1.0  0.82011  0.20519  0.96567  1.0000
  H   H1937     1.0  0.82258  0.46315  0.92214  1.0000
  C   C1951     1.0  0.94633  0.44554  0.77955  1.0000
  H   H1938     1.0  0.89945  0.47388  0.86448  1.0000
  H   H1939     1.0  0.80627  0.19852  0.96681  1.0000
  H   H1940     1.0  0.81984  0.04279  0.83344  1.0000
  Fe  Fe332     1.0  0.93033  0.42116  0.68312  1.0000
  S   S654      1.0  0.94288  0.40245  0.71028  1.0000
  H   H1941     1.0  0.95865  0.43288  0.78334  1.0000
  S   S655      1.0  0.91192  0.45200  0.68483  1.0000
  H   H1942     1.0  0.78665  0.04021  0.71801  1.0000
  H   H1943     1.0  0.81659  0.21789  0.97453  1.0000
  C   C1952     1.0  0.88739  0.46230  0.89518  1.0000
  Fe  Fe333     1.0  0.97921  0.20772  0.85499  1.0000
  H   H1944     1.0  0.87448  0.45548  0.92662  1.0000
  C   C1953     1.0  0.90898  0.41494  0.77246  1.0000
  C   C1954     1.0  0.89963  0.42195  0.75527  1.0000
  C   C1955     1.0  0.90989  0.41819  0.73610  1.0000
  C   C1956     1.0  0.92952  0.40725  0.73407  1.0000
  C   C1957     1.0  0.93876  0.39999  0.75128  1.0000
  C   C1958     1.0  0.92855  0.40385  0.77041  1.0000
  H   H1945     1.0  0.88443  0.43039  0.75677  1.0000
  H   H1946     1.0  0.90250  0.42351  0.72297  1.0000
  H   H1947     1.0  0.95386  0.39132  0.74979  1.0000
  H   H1948     1.0  0.93571  0.39797  0.78355  1.0000
  H   H1949     1.0  0.91699  0.31792  0.83480  1.0000
  H   H1950     1.0  0.81142  0.45922  0.69928  1.0000
  C   C1959     1.0  0.85243  0.00768  0.80886  1.0000
  N   N163      1.0  0.98435  0.32829  0.82286  1.0000
  H   H1951     1.0  0.86557  0.00644  0.79711  1.0000
  H   H1952     1.0  0.97573  0.35997  0.82445  1.0000
  C   C1960     1.0  0.97934  0.47095  0.66989  1.0000
  C   C1961     1.0  0.91843  0.21302  0.93682  1.0000
  C   C1962     1.0  0.91102  0.21129  0.95763  1.0000
  C   C1963     1.0  0.89156  0.22107  0.96462  1.0000
  C   C1964     1.0  0.87930  0.23231  0.95079  1.0000
  C   C1965     1.0  0.88667  0.23398  0.92999  1.0000
  C   C1966     1.0  0.90626  0.22451  0.92301  1.0000
  H   H1953     1.0  0.92038  0.20241  0.96837  1.0000
  S   S656      1.0  0.86152  0.45496  0.66492  1.0000
  H   H1954     1.0  0.87706  0.24230  0.91928  1.0000
  H   H1955     1.0  0.91178  0.22560  0.90694  1.0000
  C   C1967     1.0  0.94655  0.33509  0.86050  1.0000
  C   C1968     1.0  0.95669  0.31636  0.86882  1.0000
  C   C1969     1.0  0.95275  0.29828  0.86474  1.0000
  C   C1970     1.0  0.93831  0.29872  0.85268  1.0000
  C   C1971     1.0  0.92813  0.31748  0.84426  1.0000
  C   C1972     1.0  0.93226  0.33571  0.84813  1.0000
  H   H1956     1.0  0.96786  0.31581  0.87827  1.0000
  H   H1957     1.0  0.96110  0.28404  0.87084  1.0000
  C   C1973     1.0  0.78415  0.45077  0.69431  1.0000
  H   H1958     1.0  0.92440  0.35016  0.84162  1.0000
  C   C1974     1.0  0.82612  0.01670  0.67386  1.0000
  H   H1959     1.0  0.76211  0.01700  0.77920  1.0000
  C   C1975     1.0  0.92712  0.46349  0.73033  1.0000
  H   H1960     1.0  0.88599  0.21966  0.98069  1.0000
  C   C1976     1.0  0.80741  0.41343  0.68905  1.0000
  C   C1977     1.0  0.78223  0.01034  0.81650  1.0000
  C   C1978     1.0  0.96582  0.16596  0.82896  1.0000
  C   C1979     1.0  0.94281  0.45513  0.89596  1.0000
  C   C1980     1.0  0.87355  0.48769  0.91707  1.0000
  H   H1961     1.0  0.98266  0.12207  0.84663  1.0000
  C   C1981     1.0  0.90122  0.04135  0.75880  1.0000
  C   C1982     1.0  0.91472  0.02691  0.74873  1.0000
  C   C1983     1.0  0.93536  0.02828  0.74402  1.0000
  C   C1984     1.0  0.94260  0.04419  0.74917  1.0000
  C   C1985     1.0  0.92910  0.05882  0.75899  1.0000
  C   C1986     1.0  0.90845  0.05731  0.76391  1.0000
  H   H1962     1.0  0.90929  0.01452  0.74479  1.0000
  H   H1963     1.0  0.94573  0.01694  0.73641  1.0000
  H   H1964     1.0  0.93457  0.07109  0.76310  1.0000
  H   H1965     1.0  0.89808  0.06850  0.77173  1.0000
  C   C1987     1.0  0.92789  0.45853  0.75107  1.0000
  S   S657      1.0  0.98940  0.20281  0.88542  1.0000
  S   S658      1.0  0.95971  0.24572  0.89297  1.0000
  H   H1966     1.0  0.94887  0.45924  0.78468  1.0000
  H   H1967     1.0  0.93066  0.10791  0.71233  1.0000
  H   H1968     1.0  0.74474  0.04979  0.93105  1.0000
  H   H1969     1.0  0.95745  0.17137  0.84257  1.0000
  H   H1970     1.0  0.89922  0.26005  0.88367  1.0000
  S   S659      1.0  0.96338  0.12236  0.79677  1.0000
  H   H1971     1.0  0.88812  0.28132  0.86765  1.0000
  H   H1972     1.0  0.80608  0.01183  0.85108  1.0000
  C   C1988     1.0  0.84780  0.44244  0.65344  1.0000
  C   C1989     1.0  0.83458  0.48317  0.89603  1.0000
  H   H1973     1.0  0.84491  0.47108  0.88933  1.0000
  H   H1974     1.0  0.96899  0.43400  0.88595  1.0000
  N   N164      1.0  0.95653  0.10109  0.68986  1.0000
  S   S660      1.0  0.85423  0.24320  0.95900  1.0000
  H   H1975     1.0  0.75993  0.43819  0.68823  1.0000
  C   C1990     1.0  0.83217  0.99568  0.67597  1.0000
  H   H1976     1.0  0.78182  0.02616  0.81721  1.0000
  H   H1977     1.0  0.94567  0.14519  0.82888  1.0000
  H   H1978     1.0  0.77496  0.46545  0.69591  1.0000
  C   C1991     1.0  0.93581  0.47488  0.90004  1.0000
  H   H1979     1.0  0.86826  0.41403  0.65561  1.0000
  C   C1992     1.0  0.98378  0.17301  0.81964  1.0000
  H   H1980     1.0  0.81505  0.04363  0.65411  1.0000
  C   C1993     1.0  0.97673  0.46268  0.88792  1.0000
  H   H1981     1.0  0.97701  0.43871  0.74966  1.0000
  C   C1994     1.0  0.82687  0.02811  0.82935  1.0000
  H   H1982     1.0  0.93227  0.44467  0.89749  1.0000
  H   H1983     1.0  0.97315  0.45728  0.67127  1.0000
  C   C1995     1.0  0.88147  0.99560  0.66752  1.0000
  H   H1984     1.0  0.81682  0.39915  0.68626  1.0000
  H   H1985     1.0  0.95981  0.34975  0.81264  1.0000
  C   C1996     1.0  0.97580  0.34895  0.81434  1.0000
  C   C1997     1.0  0.96339  0.44911  0.88961  1.0000
  H   H1986     1.0  0.83216  0.42575  0.69495  1.0000
  H   H1987     1.0  0.87176  0.00518  0.67829  1.0000
  H   H1988     1.0  0.80708  0.00951  0.79166  1.0000
  N   N165      1.0  0.78738  0.41691  0.68735  1.0000
  H   H1989     1.0  0.75878  0.19971  0.97971  1.0000
  S   S661      1.0  0.96862  0.04525  0.74308  1.0000
  C   C1998     1.0  0.95923  0.15107  0.82123  1.0000
  H   H1990     1.0  0.76943  0.04635  0.75244  1.0000
  Fe  Fe334     1.0  0.86530  0.01643  0.75165  1.0000
  H   H1991     1.0  0.84977  0.04008  0.80609  1.0000
  C   C1999     1.0  0.76956  0.01455  0.76410  1.0000
  H   H1992     1.0  0.93199  0.44101  0.78825  1.0000
  C   C2000     1.0  0.81619  0.42841  0.69390  1.0000
  C   C2001     1.0  0.96106  0.08171  0.69978  1.0000
  C   C2002     1.0  0.76878  0.99930  0.83038  1.0000
  C   C2003     1.0  0.81922  0.01053  0.83929  1.0000
  C   C2004     1.0  0.87817  0.46735  0.91415  1.0000
  Fe  Fe335     1.0  0.89505  0.44432  0.66297  1.0000
  N   N166      1.0  0.89958  0.28878  0.89167  1.0000
  C   C2005     1.0  0.91276  0.28075  0.90501  1.0000
  C   C2006     1.0  0.89494  0.30935  0.88618  1.0000
  C   C2007     1.0  0.92230  0.29339  0.91259  1.0000
  C   C2008     1.0  0.90411  0.32245  0.89356  1.0000
  C   C2009     1.0  0.91800  0.31438  0.90672  1.0000
  C   C2010     1.0  0.88982  0.27535  0.88371  1.0000
  H   H1993     1.0  0.91625  0.26446  0.90956  1.0000
  H   H1994     1.0  0.88454  0.31571  0.87556  1.0000
  H   H1995     1.0  0.93320  0.28691  0.92266  1.0000
  H   H1996     1.0  0.90100  0.33873  0.88858  1.0000
  H   H1997     1.0  0.92571  0.32439  0.91196  1.0000
  H   H1998     1.0  0.87478  0.27387  0.89294  1.0000
  C   C2011     1.0  0.96143  0.47661  0.83839  1.0000
  C   C2012     1.0  0.89227  0.47767  0.87915  1.0000
  C   C2013     1.0  0.94468  0.45945  0.71649  1.0000
  H   H1999     1.0  0.98592  0.15292  0.65418  1.0000
  H   H2000     1.0  0.82465  0.21162  0.94953  1.0000
  S   S662      1.0  0.87437  0.01271  0.71910  1.0000
  C   C2014     1.0  0.98011  0.31211  0.81624  1.0000
  S   S663      1.0  0.98871  0.13448  0.69519  1.0000
  C   C2015     1.0  0.96780  0.10746  0.67172  1.0000
  Fe  Fe336     1.0  0.98015  0.10806  0.76949  1.0000
  C   C2016     1.0  0.97048  0.14318  0.80413  1.0000
  H   H2001     1.0  0.78204  0.40209  0.66485  1.0000
  C   C2017     1.0  0.79654  0.00094  0.80201  1.0000
  N   N167      1.0  0.94564  0.44971  0.75780  1.0000
  H   H2002     1.0  0.79636  0.00518  0.71080  1.0000
  C   C2018     1.0  0.94016  0.11553  0.69903  1.0000
  S   S664      1.0  0.91153  0.41230  0.66351  1.0000
  S   S665      1.0  0.75264  0.01116  0.84961  1.0000
  N   N168      1.0  0.94889  0.48834  0.89751  1.0000
  H   H2003     1.0  0.91983  0.47944  0.90502  1.0000
  H   H2004     1.0  0.85944  0.20042  0.95038  1.0000
  C   C2019     1.0  0.98785  0.15102  0.79423  1.0000
  S   S666      1.0  0.97605  0.44425  0.81792  1.0000
  C   C2020     1.0  0.77575  0.43530  0.68988  1.0000
  C   C2021     1.0  0.96269  0.45036  0.72348  1.0000
  C   C2022     1.0  0.96920  0.48227  0.89224  1.0000
  H   H2005     1.0  0.91411  0.46141  0.76179  1.0000
  Fe  Fe337     1.0  0.93382  0.46212  0.65763  1.0000
  H   H2006     1.0  0.98110  0.05298  0.69977  1.0000
  H   H2007     1.0  0.96984  0.31442  0.80540  1.0000
  H   H2008     1.0  0.91296  0.47013  0.72500  1.0000
  H   H2009     1.0  0.94669  0.12697  0.70425  1.0000
  H   H2010     1.0  0.98467  0.35372  0.79934  1.0000
  C   C2023     1.0  0.81995  0.02737  0.65578  1.0000
  C   C2024     1.0  0.82211  0.47873  0.91449  1.0000
  H   H2011     1.0  0.76207  0.40318  0.68633  1.0000
  H   H2012     1.0  0.97632  0.44689  0.71279  1.0000
  H   H2013     1.0  0.94431  0.46324  0.70037  1.0000
  H   H2014     1.0  0.98395  0.20779  0.93262  1.0000
  C   C2025     1.0  0.77552  0.99484  0.75963  1.0000
  C   C2026     1.0  0.98854  0.29228  0.82370  1.0000
  H   H2015     1.0  0.93023  0.12346  0.68786  1.0000
  H   H2016     1.0  0.95222  0.07667  0.71423  1.0000
  H   H2017     1.0  0.98736  0.00235  0.75576  1.0000
  S   S667      1.0  0.95346  0.43176  0.65707  1.0000
  Fe  Fe338     1.0  0.99159  0.23595  0.87889  1.0000
  H   H2018     1.0  0.88706  0.17634  0.96467  1.0000
  C   C2027     1.0  0.87152  0.17609  0.97203  1.0000
  H   H2019     1.0  0.96455  0.12301  0.66418  1.0000
  N   N169      1.0  0.82774  0.99206  0.83379  1.0000
  H   H2020     1.0  0.76515  0.70882  0.05853  1.0000
  N   N170      1.0  0.95544  0.90936  0.25459  1.0000
  C   C2028     1.0  0.98463  0.92321  0.25649  1.0000
  H   H2021     1.0  0.86424  0.95276  0.18922  1.0000
  S   S668      1.0  0.97155  0.67653  0.13418  1.0000
  C   C2029     1.0  0.85823  0.94729  0.17761  1.0000
  H   H2022     1.0  0.95942  0.61842  0.12529  1.0000
  S   S669      1.0  0.83689  0.69919  0.04013  1.0000
  S   S670      1.0  0.96872  0.51216  0.14939  1.0000
  Fe  Fe339     1.0  0.86979  0.68868  0.04278  1.0000
  S   S671      1.0  0.88025  0.67840  0.07321  1.0000
  Fe  Fe340     1.0  0.95247  0.70747  0.13248  1.0000
  C   C2030     1.0  0.85028  0.53482  0.28866  1.0000
  S   S672      1.0  0.93585  0.72313  0.10668  1.0000
  Fe  Fe341     1.0  0.96262  0.71571  0.17186  1.0000
  C   C2031     1.0  0.80527  0.50750  0.01349  1.0000
  S   S673      1.0  0.95616  0.74096  0.19107  1.0000
  C   C2032     1.0  0.86561  0.54852  0.25592  1.0000
  Fe  Fe342     1.0  0.95780  0.67290  0.16706  1.0000
  S   S674      1.0  0.94837  0.64338  0.18430  1.0000
  C   C2033     1.0  0.75938  0.87317  0.09093  1.0000
  S   S675      1.0  0.93710  0.70299  0.16482  1.0000
  Fe  Fe343     1.0  0.84975  0.95930  0.23948  1.0000
  S   S676      1.0  0.88239  0.94691  0.23046  1.0000
  H   H2023     1.0  0.93293  0.57973  0.11630  1.0000
  Fe  Fe344     1.0  0.85107  0.94203  0.28388  1.0000
  S   S677      1.0  0.88384  0.92833  0.27834  1.0000
  Fe  Fe345     1.0  0.88784  0.95757  0.25761  1.0000
  Fe  Fe346     1.0  0.87579  0.91873  0.25170  1.0000
  S   S678      1.0  0.88971  0.88971  0.23983  1.0000
  S   S679      1.0  0.85564  0.97236  0.26518  1.0000
  S   S680      1.0  0.84250  0.93007  0.25865  1.0000
  H   H2024     1.0  0.90051  0.50379  0.27435  1.0000
  H   H2025     1.0  0.81011  0.61580  0.01863  1.0000
  S   S681      1.0  0.95023  0.83513  0.29555  1.0000
  Fe  Fe347     1.0  0.90343  0.55611  0.16220  1.0000
  S   S682      1.0  0.87963  0.53764  0.17926  1.0000
  S   S683      1.0  0.90003  0.58997  0.15051  1.0000
  Fe  Fe348     1.0  0.93560  0.51896  0.16028  1.0000
  C   C2034     1.0  0.85776  0.54826  0.29734  1.0000
  Fe  Fe349     1.0  0.89266  0.51511  0.15771  1.0000
  H   H2026     1.0  0.88275  0.65388  0.15959  1.0000
  Fe  Fe350     1.0  0.90394  0.52109  0.19746  1.0000
  S   S684      1.0  0.89968  0.51165  0.23160  1.0000
  S   S685      1.0  0.91439  0.53524  0.13921  1.0000
  S   S686      1.0  0.92651  0.54107  0.18184  1.0000
  C   C2035     1.0  0.79314  0.70673  0.01186  1.0000
  N   N171      1.0  0.78852  0.72659  0.00320  1.0000
  S   S687      1.0  0.93336  0.55696  0.28816  1.0000
  H   H2027     1.0  0.78743  0.93343  0.21417  1.0000
  S   S688      1.0  0.83466  0.75130  0.99920  1.0000
  H   H2028     1.0  0.78538  0.49426  0.04962  1.0000
  H   H2029     1.0  0.89058  0.73518  0.11563  1.0000
  C   C2036     1.0  0.91030  0.52356  0.24695  1.0000
  C   C2037     1.0  0.91992  0.54038  0.23889  1.0000
  C   C2038     1.0  0.92714  0.55025  0.25167  1.0000
  C   C2039     1.0  0.92470  0.54354  0.27265  1.0000
  C   C2040     1.0  0.91517  0.52666  0.28072  1.0000
  C   C2041     1.0  0.90806  0.51669  0.26791  1.0000
  H   H2030     1.0  0.92146  0.54611  0.22289  1.0000
  H   H2031     1.0  0.93441  0.56335  0.24528  1.0000
  H   H2032     1.0  0.91317  0.52130  0.29682  1.0000
  H   H2033     1.0  0.86935  0.54827  0.23976  1.0000
  C   C2042     1.0  0.90579  0.87343  0.25546  1.0000
  C   C2043     1.0  0.90272  0.87414  0.27617  1.0000
  C   C2044     1.0  0.91629  0.86202  0.28834  1.0000
  C   C2045     1.0  0.93309  0.84923  0.27987  1.0000
  C   C2046     1.0  0.93603  0.84823  0.25920  1.0000
  C   C2047     1.0  0.92231  0.86025  0.24703  1.0000
  H   H2034     1.0  0.88979  0.88391  0.28289  1.0000
  H   H2035     1.0  0.80343  0.69591  0.00338  1.0000
  H   H2036     1.0  0.94882  0.83819  0.25260  1.0000
  H   H2037     1.0  0.92468  0.85956  0.23102  1.0000
  C   C2048     1.0  0.97225  0.74684  0.20592  1.0000
  H   H2038     1.0  0.92778  0.92818  0.24778  1.0000
  C   C2049     1.0  0.96627  0.76444  0.21496  1.0000
  H   H2039     1.0  0.97461  0.78445  0.23193  1.0000
  H   H2040     1.0  0.95166  0.77360  0.21342  1.0000
  C   C2050     1.0  0.93433  0.62923  0.17483  1.0000
  C   C2051     1.0  0.92685  0.63627  0.15660  1.0000
  C   C2052     1.0  0.91603  0.62425  0.14944  1.0000
  C   C2053     1.0  0.91298  0.60501  0.16026  1.0000
  C   C2054     1.0  0.92048  0.59805  0.17845  1.0000
  C   C2055     1.0  0.93099  0.61016  0.18575  1.0000
  H   H2041     1.0  0.92951  0.65087  0.14799  1.0000
  H   H2042     1.0  0.91024  0.62975  0.13535  1.0000
  H   H2043     1.0  0.91794  0.58346  0.18710  1.0000
  H   H2044     1.0  0.93668  0.60466  0.19989  1.0000
  C   C2056     1.0  0.89896  0.68942  0.07949  1.0000
  C   C2057     1.0  0.90205  0.70907  0.07054  1.0000
  C   C2058     1.0  0.91443  0.71887  0.07831  1.0000
  C   C2059     1.0  0.92385  0.70904  0.09494  1.0000
  C   C2060     1.0  0.92174  0.68895  0.10310  1.0000
  C   C2061     1.0  0.90926  0.67919  0.09541  1.0000
  H   H2045     1.0  0.89417  0.71706  0.05828  1.0000
  H   H2046     1.0  0.91611  0.73440  0.07190  1.0000
  H   H2047     1.0  0.92899  0.68126  0.11588  1.0000
  H   H2048     1.0  0.90697  0.66394  0.10232  1.0000
  C   C2062     1.0  0.77899  0.78550  0.03492  1.0000
  C   C2063     1.0  0.79002  0.76788  0.04453  1.0000
  C   C2064     1.0  0.80726  0.75738  0.03381  1.0000
  C   C2065     1.0  0.81370  0.76459  0.01343  1.0000
  C   C2066     1.0  0.80288  0.78241  0.00390  1.0000
  C   C2067     1.0  0.78551  0.79281  0.01458  1.0000
  H   H2049     1.0  0.78509  0.76218  0.06029  1.0000
  H   H2050     1.0  0.81553  0.74373  0.04132  1.0000
  H   H2051     1.0  0.78878  0.68433  0.03874  1.0000
  H   H2052     1.0  0.77716  0.80643  0.00706  1.0000
  C   C2068     1.0  0.78672  0.95773  0.18873  1.0000
  C   C2069     1.0  0.79312  0.94723  0.20684  1.0000
  C   C2070     1.0  0.80734  0.95406  0.21517  1.0000
  C   C2071     1.0  0.81509  0.97163  0.20558  1.0000
  C   C2072     1.0  0.80811  0.98260  0.18790  1.0000
  H   H2053     1.0  0.95556  0.94102  0.25279  1.0000
  H   H2054     1.0  0.81245  0.94557  0.22887  1.0000
  S   S689      1.0  0.98202  0.68515  0.17699  1.0000
  H   H2055     1.0  0.86013  0.50623  0.25904  1.0000
  C   C2073     1.0  0.78173  0.85031  0.07039  1.0000
  C   C2074     1.0  0.87001  0.67445  0.13532  1.0000
  S   S690      1.0  0.97620  0.72268  0.13914  1.0000
  H   H2056     1.0  0.97278  0.55035  0.16618  1.0000
  H   H2057     1.0  0.74664  0.92546  0.05310  1.0000
  H   H2058     1.0  0.94961  0.59327  0.29190  1.0000
  C   C2075     1.0  0.93412  0.91203  0.25260  1.0000
  N   N172      1.0  0.84807  0.92984  0.18666  1.0000
  C   C2076     1.0  0.83205  0.92684  0.17895  1.0000
  C   C2077     1.0  0.85519  0.91620  0.20227  1.0000
  C   C2078     1.0  0.82218  0.91028  0.18743  1.0000
  C   C2079     1.0  0.84573  0.89945  0.21108  1.0000
  C   C2080     1.0  0.82902  0.89658  0.20368  1.0000
  C   C2081     1.0  0.87339  0.56211  0.26409  1.0000
  H   H2059     1.0  0.82624  0.93770  0.16669  1.0000
  H   H2060     1.0  0.86818  0.91827  0.20813  1.0000
  H   H2061     1.0  0.80888  0.90857  0.18182  1.0000
  H   H2062     1.0  0.84482  0.52561  0.24396  1.0000
  H   H2063     1.0  0.82131  0.88385  0.21060  1.0000
  S   S691      1.0  0.82004  0.65403  0.02194  1.0000
  H   H2064     1.0  0.86115  0.57094  0.99450  1.0000
  Fe  Fe351     1.0  0.84161  0.67577  0.01982  1.0000
  H   H2065     1.0  0.89826  0.71370  0.14672  1.0000
  S   S692      1.0  0.74314  0.85700  0.03784  1.0000
  C   C2082     1.0  0.86782  0.61246  0.01165  1.0000
  C   C2083     1.0  0.86959  0.56181  0.28497  1.0000
  H   H2066     1.0  0.95919  0.87713  0.25772  1.0000
  H   H2067     1.0  0.84748  0.96032  0.17122  1.0000
  C   C2084     1.0  0.97669  0.58171  0.16202  1.0000
  H   H2068     1.0  0.79556  0.84671  0.05999  1.0000
  C   C2085     1.0  0.84792  0.51965  0.25961  1.0000
  S   S693      1.0  0.88133  0.71092  0.01603  1.0000
  H   H2069     1.0  0.86258  0.66333  0.13149  1.0000
  Fe  Fe352     1.0  0.75254  0.96402  0.15351  1.0000
  H   H2070     1.0  0.98903  0.75692  0.15235  1.0000
  C   C2086     1.0  0.87653  0.72868  0.11713  1.0000
  C   C2087     1.0  0.97308  0.60084  0.15027  1.0000
  C   C2088     1.0  0.86857  0.69413  0.12430  1.0000
  H   H2071     1.0  0.78761  0.87964  0.07301  1.0000
  S   S694      1.0  0.85051  0.69697  0.99164  1.0000
  S   S695      1.0  0.87329  0.66356  0.02477  1.0000
  C   C2089     1.0  0.82280  0.64152  0.00100  1.0000
  C   C2090     1.0  0.78480  0.70005  0.03186  1.0000
  H   H2072     1.0  0.75629  0.74478  0.04226  1.0000
  S   S696      1.0  0.87387  0.50330  0.13935  1.0000
  S   S697      1.0  0.83436  0.97962  0.21455  1.0000
  H   H2073     1.0  0.79127  0.51502  0.00734  1.0000
  N   N173      1.0  0.99017  0.56652  0.31215  1.0000
  C   C2091     1.0  0.81666  0.62255  0.00373  1.0000
  S   S698      1.0  0.76348  0.97497  0.12071  1.0000
  Fe  Fe353     1.0  0.84860  0.71962  0.01208  1.0000
  S   S699      1.0  0.91510  0.49718  0.17734  1.0000
  C   C2092     1.0  0.77730  0.86873  0.07769  1.0000
  C   C2093     1.0  0.81938  0.61203  0.98732  1.0000
  S   S700      1.0  0.91672  0.97016  0.25410  1.0000
  S   S701      1.0  0.85610  0.52240  0.00826  1.0000
  H   H2074     1.0  0.89576  0.50131  0.08354  1.0000
  C   C2094     1.0  0.85853  0.49590  0.01326  1.0000
  C   C2095     1.0  0.96625  0.89017  0.25725  1.0000
  C   C2096     1.0  0.77505  0.74001  0.01375  1.0000
  H   H2075     1.0  0.91386  0.86270  0.30436  1.0000
  C   C2097     1.0  0.96426  0.92580  0.25447  1.0000
  H   H2076     1.0  0.86600  0.90786  0.31724  1.0000
  C   C2098     1.0  0.76646  0.73386  0.03380  1.0000
  H   H2077     1.0  0.93216  0.90335  0.24109  1.0000
  H   H2078     1.0  0.86373  0.73848  0.12498  1.0000
  H   H2079     1.0  0.86544  0.61892  0.02543  1.0000
  N   N174      1.0  0.75004  0.84156  0.08858  1.0000
  C   C2099     1.0  0.96993  0.56539  0.15732  1.0000
  C   C2100     1.0  0.86269  0.59348  0.01218  1.0000
  H   H2080     1.0  0.81823  0.50852  0.00097  1.0000
  H   H2081     1.0  0.95434  0.58844  0.09904  1.0000
  C   C2101     1.0  0.77150  0.71377  0.04292  1.0000
  N   N175      1.0  0.85434  0.53502  0.26820  1.0000
  H   H2082     1.0  0.95385  0.55583  0.13774  1.0000
  C   C2102     1.0  0.98656  0.88704  0.25939  1.0000
  S   S702      1.0  0.75685  0.79746  0.04874  1.0000
  C   C2103     1.0  0.97562  0.57176  0.29997  1.0000
  H   H2083     1.0  0.85639  0.58503  0.02639  1.0000
  C   C2104     1.0  0.96144  0.58950  0.30123  1.0000
  H   H2084     1.0  0.87078  0.94304  0.16546  1.0000
  C   C2105     1.0  0.87546  0.62336  0.99310  1.0000
  H   H2085     1.0  0.87611  0.57180  0.29157  1.0000
  H   H2086     1.0  0.87933  0.63816  0.99275  1.0000
  H   H2087     1.0  0.91278  0.49881  0.11107  1.0000
  C   C2106     1.0  0.74588  0.85929  0.09631  1.0000
  C   C2107     1.0  0.94385  0.59054  0.11333  1.0000
  C   C2108     1.0  0.89170  0.68329  0.15508  1.0000
  S   S703      1.0  0.74616  0.94676  0.08544  1.0000
  H   H2088     1.0  0.92527  0.90647  0.26736  1.0000
  H   H2089     1.0  0.93464  0.60597  0.11155  1.0000
  N   N176      1.0  0.87864  0.70796  0.12845  1.0000
  C   C2109     1.0  0.89004  0.70281  0.14366  1.0000
  C   C2110     1.0  0.76795  0.83670  0.07622  1.0000
  C   C2111     1.0  0.97923  0.77060  0.22552  1.0000
  H   H2090     1.0  0.87398  0.72890  0.10148  1.0000
  Fe  Fe354     1.0  0.88210  0.68644  0.99786  1.0000
  H   H2091     1.0  0.90105  0.67910  0.16691  1.0000
  C   C2112     1.0  0.79402  0.97565  0.17945  1.0000
  H   H2092     1.0  0.85134  0.88887  0.22365  1.0000
  H   H2093     1.0  0.85996  0.69800  0.11189  1.0000
  Fe  Fe355     1.0  0.98162  0.82244  0.28159  1.0000
  H   H2094     1.0  0.94124  0.49766  0.21030  1.0000
  H   H2095     1.0  0.88295  0.57227  0.25437  1.0000
  S   S704      1.0  0.77178  0.94650  0.17702  1.0000
  C   C2113     1.0  0.88152  0.66910  0.15091  1.0000
  N   N177      1.0  0.95523  0.58749  0.13011  1.0000
  C   C2114     1.0  0.96245  0.60342  0.13413  1.0000
  C   C2115     1.0  0.95919  0.56857  0.14119  1.0000
  H   H2096     1.0  0.78921  0.98385  0.16548  1.0000
  H   H2097     1.0  0.80784  0.78814  0.98815  1.0000
  H   H2098     1.0  0.98043  0.78754  0.16856  1.0000
  H   H2099     1.0  0.95104  0.61545  0.31650  1.0000
  H   H2100     1.0  0.83395  0.51467  0.26885  1.0000
  C   C2116     1.0  0.99113  0.73508  0.20810  1.0000
  H   H2101     1.0  0.75569  0.88753  0.09659  1.0000
  H   H2102     1.0  0.80789  0.51597  0.02487  1.0000
  H   H2103     1.0  0.77126  0.75575  0.00689  1.0000
  H   H2104     1.0  0.98458  0.57961  0.17480  1.0000
  H   H2105     1.0  0.77138  0.82254  0.07025  1.0000
  C   C2117     1.0  0.96223  0.60190  0.31500  1.0000
  C   C2118     1.0  0.86533  0.58559  0.99427  1.0000
  H   H2106     1.0  0.81491  0.59728  0.98962  1.0000
  H   H2107     1.0  0.97794  0.61375  0.15402  1.0000
  H   H2108     1.0  0.84139  0.52406  0.29837  1.0000
  S   S705      1.0  0.83232  0.94140  0.31507  1.0000
  H   H2109     1.0  0.97443  0.56191  0.28965  1.0000
  H   H2110     1.0  0.84876  0.49481  0.04532  1.0000
  H   H2111     1.0  0.85467  0.54793  0.31358  1.0000
  H   H2112     1.0  0.99167  0.93625  0.25622  1.0000
  Fe  Fe356     1.0  0.79693  0.59296  0.48142  1.0000
  S   S706      1.0  0.82568  0.60519  0.48040  1.0000
  S   S707      1.0  0.79847  0.56418  0.46960  1.0000
  H   H2113     1.0  0.85455  0.97066  0.35797  1.0000
  S   S708      1.0  0.95221  0.54495  0.34118  1.0000
  S   S709      1.0  0.80627  0.97494  0.53383  1.0000
  C   C2119     1.0  0.88796  0.93063  0.37615  1.0000
  Fe  Fe357     1.0  0.84447  0.87001  0.46538  1.0000
  S   S710      1.0  0.82551  0.89852  0.47468  1.0000
  S   S711      1.0  0.85101  0.84277  0.48934  1.0000
  Fe  Fe358     1.0  0.85210  0.88909  0.42089  1.0000
  S   S712      1.0  0.83464  0.91918  0.42699  1.0000
  S   S713      1.0  0.86780  0.88457  0.38945  1.0000
  Fe  Fe359     1.0  0.84980  0.91378  0.45409  1.0000
  S   S714      1.0  0.86405  0.93782  0.46162  1.0000
  Fe  Fe360     1.0  0.81196  0.90107  0.44662  1.0000
  S   S715      1.0  0.78013  0.91532  0.44221  1.0000
  S   S716      1.0  0.86958  0.88512  0.44642  1.0000
  S   S717      1.0  0.82862  0.87098  0.43899  1.0000
  H   H2114     1.0  0.77760  0.91511  0.39339  1.0000
  Fe  Fe361     1.0  0.93310  0.79691  0.60616  1.0000
  S   S718      1.0  0.91068  0.79673  0.58569  1.0000
  S   S719      1.0  0.81268  0.49812  0.32655  1.0000
  Fe  Fe362     1.0  0.96826  0.79819  0.57217  1.0000
  S   S720      1.0  0.94958  0.79855  0.54867  1.0000
  C   C2120     1.0  0.87121  0.94923  0.40238  1.0000
  Fe  Fe363     1.0  0.92655  0.82060  0.56469  1.0000
  S   S721      1.0  0.91248  0.84892  0.54565  1.0000
  Fe  Fe364     1.0  0.93517  0.77447  0.57080  1.0000
  S   S722      1.0  0.93343  0.74919  0.55438  1.0000
  S   S723      1.0  0.94685  0.82266  0.58630  1.0000
  S   S724      1.0  0.95596  0.77234  0.59305  1.0000
  Fe  Fe365     1.0  0.88566  0.61246  0.56268  1.0000
  S   S725      1.0  0.89514  0.61420  0.59192  1.0000
  S   S726      1.0  0.85711  0.60034  0.56293  1.0000
  Fe  Fe366     1.0  0.92222  0.62857  0.53797  1.0000
  S   S727      1.0  0.93540  0.63148  0.56487  1.0000
  S   S728      1.0  0.93416  0.63759  0.50514  1.0000
  Fe  Fe367     1.0  0.92621  0.60111  0.57809  1.0000
  S   S729      1.0  0.94241  0.57523  0.59834  1.0000
  Fe  Fe368     1.0  0.90350  0.64437  0.57671  1.0000
  S   S730      1.0  0.89638  0.66978  0.59514  1.0000
  S   S731      1.0  0.91609  0.59689  0.54994  1.0000
  S   S732      1.0  0.89096  0.64398  0.54877  1.0000
  C   C2121     1.0  0.96871  0.61076  0.44421  1.0000
  Fe  Fe369     1.0  0.93707  0.51949  0.35981  1.0000
  Fe  Fe370     1.0  0.89485  0.54332  0.35894  1.0000
  S   S733      1.0  0.90677  0.57098  0.34070  1.0000
  S   S734      1.0  0.86095  0.54444  0.36901  1.0000
  Fe  Fe371     1.0  0.93046  0.56470  0.36106  1.0000
  S   S735      1.0  0.93838  0.59062  0.37353  1.0000
  H   H2115     1.0  0.98863  0.83908  0.50127  1.0000
  S   S736      1.0  0.91652  0.53894  0.38104  1.0000
  C   C2122     1.0  0.96229  0.59244  0.37927  1.0000
  C   C2123     1.0  0.76952  0.51849  0.53551  1.0000
  C   C2124     1.0  0.96485  0.61034  0.38526  1.0000
  Fe  Fe372     1.0  0.74908  0.49193  0.37702  1.0000
  H   H2116     1.0  0.95219  0.62257  0.38664  1.0000
  C   C2125     1.0  0.96017  0.63767  0.49970  1.0000
  C   C2126     1.0  0.97260  0.62869  0.51413  1.0000
  H   H2117     1.0  0.76721  0.52823  0.37956  1.0000
  N   N178      1.0  0.94116  0.61637  0.63093  1.0000
  H   H2118     1.0  0.97364  0.54690  0.57735  1.0000
  C   C2127     1.0  0.96874  0.64505  0.47999  1.0000
  H   H2119     1.0  0.96605  0.62289  0.52936  1.0000
  C   C2128     1.0  0.77532  0.49854  0.54484  1.0000
  H   H2120     1.0  0.95912  0.65213  0.46884  1.0000
  S   S737      1.0  0.77384  0.58517  0.50864  1.0000
  H   H2121     1.0  0.87458  0.90957  0.56478  1.0000
  H   H2122     1.0  0.96179  0.61843  0.43115  1.0000
  C   C2129     1.0  0.78266  0.92563  0.35303  1.0000
  N   N179      1.0  0.88475  0.93321  0.39597  1.0000
  C   C2130     1.0  0.84691  0.50558  0.33725  1.0000
  C   C2131     1.0  0.84284  0.96830  0.50884  1.0000
  C   C2132     1.0  0.92343  0.72712  0.56639  1.0000
  C   C2133     1.0  0.92522  0.71137  0.55527  1.0000
  C   C2134     1.0  0.91709  0.69368  0.56404  1.0000
  C   C2135     1.0  0.90690  0.69175  0.58396  1.0000
  C   C2136     1.0  0.90522  0.70741  0.59518  1.0000
  C   C2137     1.0  0.91354  0.72506  0.58644  1.0000
  H   H2123     1.0  0.93285  0.71287  0.53975  1.0000
  H   H2124     1.0  0.91847  0.68169  0.55528  1.0000
  H   H2125     1.0  0.89738  0.70596  0.61061  1.0000
  H   H2126     1.0  0.91207  0.73716  0.59509  1.0000
  H   H2127     1.0  0.94688  0.76109  0.32030  1.0000
  H   H2128     1.0  0.79641  0.88597  0.41323  1.0000
  C   C2138     1.0  0.97255  0.56426  0.62131  1.0000
  C   C2139     1.0  0.96539  0.57757  0.60483  1.0000
  C   C2140     1.0  0.97707  0.59172  0.59331  1.0000
  C   C2141     1.0  0.78471  0.50482  0.43392  1.0000
  H   H2129     1.0  0.85840  0.92298  0.52456  1.0000
  C   C2142     1.0  0.96605  0.59705  0.47979  1.0000
  H   H2130     1.0  0.97173  0.60194  0.58050  1.0000
  C   C2143     1.0  0.78924  0.90483  0.38547  1.0000
  C   C2144     1.0  0.86936  0.84385  0.50391  1.0000
  C   C2145     1.0  0.87397  0.82775  0.51946  1.0000
  C   C2146     1.0  0.88786  0.82875  0.53187  1.0000
  C   C2147     1.0  0.89712  0.84592  0.52882  1.0000
  C   C2148     1.0  0.89278  0.86184  0.51304  1.0000
  C   C2149     1.0  0.87895  0.86083  0.50064  1.0000
  H   H2131     1.0  0.86656  0.81459  0.52212  1.0000
  H   H2132     1.0  0.89099  0.81645  0.54410  1.0000
  H   H2133     1.0  0.89979  0.87523  0.51069  1.0000
  H   H2134     1.0  0.87536  0.87343  0.48890  1.0000
  H   H2135     1.0  0.86869  0.95133  0.41810  1.0000
  C   C2150     1.0  0.76522  0.55787  0.41524  1.0000
  S   S738      1.0  0.77426  0.61068  0.46201  1.0000
  C   C2151     1.0  0.81922  0.87829  0.36587  1.0000
  S   S739      1.0  0.74865  0.57251  0.47747  1.0000
  C   C2152     1.0  0.76475  0.87947  0.45027  1.0000
  C   C2153     1.0  0.82249  0.96605  0.51310  1.0000
  H   H2136     1.0  0.86921  0.86576  0.56263  1.0000
  C   C2154     1.0  0.86012  0.96293  0.38885  1.0000
  H   H2137     1.0  0.77941  0.87185  0.45373  1.0000
  C   C2155     1.0  0.81481  0.95610  0.50089  1.0000
  C   C2156     1.0  0.82745  0.94815  0.48460  1.0000
  C   C2157     1.0  0.84793  0.94971  0.48070  1.0000
  H   H2138     1.0  0.88919  0.91243  0.53953  1.0000
  H   H2139     1.0  0.82129  0.94085  0.47503  1.0000
  C   C2158     1.0  0.84303  0.92608  0.33544  1.0000
  C   C2159     1.0  0.85939  0.91050  0.33240  1.0000
  C   C2160     1.0  0.86694  0.89788  0.34907  1.0000
  C   C2161     1.0  0.85803  0.90063  0.36885  1.0000
  C   C2162     1.0  0.84164  0.91621  0.37184  1.0000
  C   C2163     1.0  0.83429  0.92900  0.35520  1.0000
  H   H2140     1.0  0.87142  0.96146  0.48952  1.0000
  H   H2141     1.0  0.87957  0.88579  0.34663  1.0000
  H   H2142     1.0  0.83446  0.91835  0.38692  1.0000
  H   H2143     1.0  0.82162  0.94102  0.35766  1.0000
  H   H2144     1.0  0.94058  0.61174  0.46506  1.0000
  H   H2145     1.0  0.93743  0.83061  0.48598  1.0000
  C   C2164     1.0  0.85784  0.51600  0.34614  1.0000
  C   C2165     1.0  0.84770  0.53087  0.35772  1.0000
  C   C2166     1.0  0.82650  0.53484  0.36072  1.0000
  C   C2167     1.0  0.81553  0.52413  0.35214  1.0000
  C   C2168     1.0  0.77128  0.55003  0.39705  1.0000
  H   H2146     1.0  0.81849  0.54634  0.36960  1.0000
  H   H2147     1.0  0.82511  0.87615  0.52324  1.0000
  H   H2148     1.0  0.78316  0.55579  0.38583  1.0000
  C   C2169     1.0  0.75541  0.50613  0.57675  1.0000
  H   H2149     1.0  0.95657  0.85500  0.64063  1.0000
  C   C2170     1.0  0.83568  0.60173  0.50305  1.0000
  C   C2171     1.0  0.82622  0.59166  0.52116  1.0000
  C   C2172     1.0  0.83335  0.59077  0.53935  1.0000
  C   C2173     1.0  0.85009  0.59975  0.53954  1.0000
  C   C2174     1.0  0.86004  0.60916  0.52131  1.0000
  C   C2175     1.0  0.85280  0.61020  0.50312  1.0000
  H   H2150     1.0  0.81325  0.58478  0.52126  1.0000
  H   H2151     1.0  0.82571  0.58330  0.55339  1.0000
  H   H2152     1.0  0.87299  0.61609  0.52132  1.0000
  H   H2153     1.0  0.86026  0.61796  0.48916  1.0000
  H   H2154     1.0  0.75268  0.54796  0.53986  1.0000
  H   H2155     1.0  0.89838  0.91767  0.37118  1.0000
  H   H2156     1.0  0.96358  0.55321  0.63019  1.0000
  H   H2157     1.0  0.84337  0.85351  0.54944  1.0000
  C   C2176     1.0  0.74688  0.52694  0.40792  1.0000
  C   C2177     1.0  0.94404  0.82842  0.64042  1.0000
  C   C2178     1.0  0.99112  0.57868  0.32562  1.0000
  H   H2158     1.0  0.79902  0.95455  0.50403  1.0000
  H   H2159     1.0  0.97540  0.65610  0.60515  1.0000
  C   C2179     1.0  0.98961  0.60502  0.44222  1.0000
  H   H2160     1.0  0.77064  0.50434  0.44440  1.0000
  C   C2180     1.0  0.97727  0.59660  0.32714  1.0000
  C   C2181     1.0  0.85510  0.90775  0.53019  1.0000
  C   C2182     1.0  0.81510  0.87512  0.38697  1.0000
  H   H2161     1.0  0.81632  0.65118  0.50124  1.0000
  C   C2183     1.0  0.96049  0.61366  0.63478  1.0000
  H   H2162     1.0  0.82393  0.86266  0.39564  1.0000
  C   C2184     1.0  0.79671  0.51929  0.43382  1.0000
  H   H2163     1.0  0.75149  0.85212  0.45774  1.0000
  C   C2185     1.0  0.76831  0.49239  0.56539  1.0000
  C   C2186     1.0  0.86324  0.96036  0.36861  1.0000
  H   H2164     1.0  0.91239  0.92128  0.40683  1.0000
  H   H2165     1.0  0.97356  0.81602  0.48623  1.0000
  H   H2166     1.0  0.94037  0.83357  0.62539  1.0000
  C   C2187     1.0  0.95492  0.51865  0.60252  1.0000
  H   H2167     1.0  0.95274  0.50252  0.60669  1.0000
  C   C2188     1.0  0.85559  0.96007  0.49262  1.0000
  C   C2189     1.0  0.86091  0.87595  0.55160  1.0000
  H   H2168     1.0  0.98069  0.82796  0.53823  1.0000
  Fe  Fe373     1.0  0.77375  0.58089  0.45265  1.0000
  H   H2169     1.0  0.94624  0.52689  0.61489  1.0000
  H   H2170     1.0  0.93688  0.58624  0.64499  1.0000
  H   H2171     1.0  0.89310  0.88883  0.55612  1.0000
  C   C2190     1.0  0.82572  0.50962  0.34011  1.0000
  H   H2172     1.0  0.93985  0.66133  0.59927  1.0000
  C   C2191     1.0  0.74975  0.55042  0.42958  1.0000
  H   H2173     1.0  0.77766  0.93849  0.36166  1.0000
  H   H2174     1.0  0.83371  0.50827  0.39548  1.0000
  H   H2175     1.0  0.81189  0.89758  0.33853  1.0000
  H   H2176     1.0  0.94842  0.52527  0.58851  1.0000
  H   H2177     1.0  0.79922  0.52762  0.35419  1.0000
  C   C2192     1.0  0.79985  0.88831  0.39684  1.0000
  N   N180      1.0  0.86555  0.89493  0.54411  1.0000
  C   C2193     1.0  0.89641  0.91892  0.41014  1.0000
  C   C2194     1.0  0.94181  0.81471  0.49197  1.0000
  S   S740      1.0  0.75202  0.50718  0.34457  1.0000
  N   N181      1.0  0.86808  0.58532  0.41393  1.0000
  C   C2195     1.0  0.85366  0.59152  0.42942  1.0000
  C   C2196     1.0  0.86260  0.58256  0.39652  1.0000
  C   C2197     1.0  0.83322  0.59576  0.42739  1.0000
  C   C2198     1.0  0.84230  0.58661  0.39403  1.0000
  C   C2199     1.0  0.82756  0.59338  0.40953  1.0000
  C   C2200     1.0  0.88945  0.58063  0.41621  1.0000
  H   H2178     1.0  0.85781  0.59331  0.44349  1.0000
  H   H2179     1.0  0.87396  0.57712  0.38444  1.0000
  H   H2180     1.0  0.82185  0.60084  0.43963  1.0000
  H   H2181     1.0  0.83805  0.58430  0.38020  1.0000
  H   H2182     1.0  0.81176  0.59666  0.40776  1.0000
  H   H2183     1.0  0.89404  0.56396  0.42020  1.0000
  H   H2184     1.0  0.89915  0.58606  0.40186  1.0000
  H   H2185     1.0  0.89252  0.58815  0.42811  1.0000
  H   H2186     1.0  0.74207  0.49978  0.51540  1.0000
  H   H2187     1.0  0.83224  0.91141  0.51146  1.0000
  H   H2188     1.0  0.75475  0.91960  0.48118  1.0000
  C   C2201     1.0  0.80816  0.49295  0.40582  1.0000
  C   C2202     1.0  0.99141  0.56496  0.62618  1.0000
  C   C2203     1.0  0.93931  0.80988  0.65127  1.0000
  C   C2204     1.0  0.82537  0.53695  0.41890  1.0000
  S   S741      1.0  0.77786  0.57619  0.42016  1.0000
  H   H2189     1.0  0.84909  0.97534  0.39410  1.0000
  N   N182      1.0  0.80296  0.63762  0.53033  1.0000
  C   C2205     1.0  0.80358  0.63354  0.55067  1.0000
  C   C2206     1.0  0.81660  0.64824  0.51739  1.0000
  C   C2207     1.0  0.81845  0.63971  0.55845  1.0000
  C   C2208     1.0  0.83167  0.65467  0.52468  1.0000
  C   C2209     1.0  0.83261  0.65027  0.54534  1.0000
  C   C2210     1.0  0.78717  0.63113  0.52248  1.0000
  H   H2190     1.0  0.79296  0.62490  0.56092  1.0000
  H   H2191     1.0  0.84158  0.53263  0.41266  1.0000
  H   H2192     1.0  0.81961  0.63554  0.57442  1.0000
  H   H2193     1.0  0.79241  0.62824  0.50666  1.0000
  H   H2194     1.0  0.84463  0.65448  0.55116  1.0000
  C   C2211     1.0  0.79031  0.49181  0.41959  1.0000
  H   H2195     1.0  0.77345  0.64295  0.52283  1.0000
  H   H2196     1.0  0.94024  0.79822  0.32084  1.0000
  H   H2197     1.0  0.95668  0.59451  0.49452  1.0000
  H   H2198     1.0  0.84294  0.66242  0.51434  1.0000
  Fe  Fe374     1.0  0.75107  0.60095  0.48837  1.0000
  H   H2199     1.0  0.87958  0.94183  0.34654  1.0000
  Fe  Fe375     1.0  0.77350  0.55764  0.49523  1.0000
  H   H2200     1.0  0.98869  0.62523  0.62810  1.0000
  C   C2212     1.0  0.97241  0.75562  0.33614  1.0000
  C   C2213     1.0  0.75015  0.52632  0.56759  1.0000
  H   H2201     1.0  0.98282  0.49496  0.62258  1.0000
  C   C2214     1.0  0.74893  0.86834  0.45257  1.0000
  C   C2215     1.0  0.93368  0.63340  0.61862  1.0000
  C   C2216     1.0  0.97314  0.62784  0.62554  1.0000
  H   H2202     1.0  0.81890  0.55051  0.40881  1.0000
  C   C2217     1.0  0.87736  0.94422  0.36215  1.0000
  H   H2203     1.0  0.88465  0.97351  0.63836  1.0000
  C   C2218     1.0  0.88133  0.90183  0.55156  1.0000
  C   C2219     1.0  0.84022  0.90130  0.52270  1.0000
  N   N183      1.0  0.97630  0.52050  0.59994  1.0000
  H   H2204     1.0  0.87411  0.51255  0.34390  1.0000
  C   C2220     1.0  0.84623  0.86895  0.54428  1.0000
  C   C2221     1.0  0.96503  0.79706  0.33650  1.0000
  N   N184      1.0  0.98661  0.59178  0.47775  1.0000
  C   C2222     1.0  0.83600  0.88166  0.52956  1.0000
  C   C2223     1.0  0.96217  0.80640  0.49227  1.0000
  C   C2224     1.0  0.95325  0.77444  0.50825  1.0000
  H   H2205     1.0  0.79168  0.53003  0.44434  1.0000
  C   C2225     1.0  0.93278  0.78222  0.50809  1.0000
  H   H2206     1.0  0.97330  0.50703  0.33267  1.0000
  C   C2226     1.0  0.92707  0.80247  0.49984  1.0000
  H   H2207     1.0  0.79242  0.93132  0.33882  1.0000
  H   H2208     1.0  0.95747  0.75884  0.51531  1.0000
  C   C2227     1.0  0.81997  0.50737  0.40637  1.0000
  H   H2209     1.0  0.92143  0.77270  0.51492  1.0000
  C   C2228     1.0  0.98107  0.78452  0.34500  1.0000
  H   H2210     1.0  0.91124  0.80873  0.49979  1.0000
  H   H2211     1.0  0.96645  0.60022  0.64462  1.0000
  H   H2212     1.0  0.76925  0.92129  0.34911  1.0000
  H   H2213     1.0  0.82450  0.54101  0.43408  1.0000
  N   N185      1.0  0.79376  0.90814  0.36478  1.0000
  C   C2229     1.0  0.98973  0.64255  0.47441  1.0000
  C   C2230     1.0  0.80820  0.89488  0.35493  1.0000
  S   S742      1.0  0.77618  0.52465  0.50916  1.0000
  S   S743      1.0  0.82953  0.98301  0.62132  1.0000
  H   H2214     1.0  0.91832  0.59948  0.63005  1.0000
  S   S744      1.0  0.91433  0.52170  0.33943  1.0000
  C   C2231     1.0  0.94585  0.64794  0.60920  1.0000
  C   C2232     1.0  0.92799  0.60145  0.64067  1.0000
  C   C2233     1.0  0.76226  0.53446  0.39346  1.0000
  C   C2234     1.0  0.75719  0.53252  0.54697  1.0000
  H   H2215     1.0  0.91822  0.63574  0.61592  1.0000
  N   N186      1.0  0.98442  0.76402  0.34496  1.0000
  N   N187      1.0  0.81404  0.52047  0.42008  1.0000
  N   N188      1.0  0.96764  0.78647  0.50027  1.0000
  H   H2216     1.0  0.84879  0.97610  0.51818  1.0000
  S   S745      1.0  0.74459  0.49815  0.60193  1.0000
  C   C2235     1.0  0.98889  0.77837  0.50169  1.0000
  H   H2217     1.0  0.89039  0.92086  0.42613  1.0000
  C   C2236     1.0  0.95301  0.84067  0.64921  1.0000
  H   H2218     1.0  0.97547  0.73949  0.33554  1.0000
  C   C2237     1.0  0.98348  0.53626  0.58666  1.0000
  H   H2219     1.0  0.89576  0.90304  0.40879  1.0000
  H   H2220     1.0  0.83133  0.86838  0.35807  1.0000
  C   C2238     1.0  0.97890  0.57687  0.37737  1.0000
  C   C2239     1.0  0.76136  0.90047  0.44398  1.0000
  C   C2240     1.0  0.95681  0.60680  0.46312  1.0000
  H   H2221     1.0  0.97788  0.60605  0.33805  1.0000
  S   S746      1.0  0.92807  0.79420  0.64040  1.0000
  H   H2222     1.0  0.78313  0.61665  0.53154  1.0000
  H   H2223     1.0  0.97720  0.56295  0.37294  1.0000
  C   C2241     1.0  0.98333  0.49378  0.33834  1.0000
  C   C2242     1.0  0.98850  0.50751  0.61216  1.0000
  C   C2243     1.0  0.98376  0.61274  0.38912  1.0000
  C   C2244     1.0  0.95622  0.76772  0.32753  1.0000
  C   C2245     1.0  0.95249  0.78856  0.32782  1.0000
  C   C2246     1.0  0.96575  0.64504  0.61259  1.0000
  C   C2247     1.0  0.98730  0.77969  0.62576  1.0000
  H   H2224     1.0  0.96264  0.81337  0.33609  1.0000
  H   H2225     1.0  0.98649  0.58482  0.50966  1.0000
  Fe  Fe376     1.0  0.92755  0.54890  0.32239  1.0000
  H   H2226     1.0  0.85494  0.49439  0.32798  1.0000
  H   H2227     1.0  0.74485  0.55640  0.44354  1.0000
  H   H2228     1.0  0.98553  0.62673  0.39334  1.0000
  H   H2229     1.0  0.97059  0.78126  0.62928  1.0000
  H   H2230     1.0  0.99105  0.81504  0.60175  1.0000
  C   C2248     1.0  0.74229  0.91022  0.43967  1.0000
  H   H2231     1.0  0.87796  0.98576  0.60330  1.0000
  C   C2249     1.0  0.88001  0.98960  0.63354  1.0000
  H   H2232     1.0  0.99106  0.79135  0.35124  1.0000
  C   C2250     1.0  0.90122  0.90119  0.70892  1.0000
  H   H2233     1.0  0.75481  0.92539  0.95580  1.0000
  H   H2234     1.0  0.87832  0.97988  0.67306  1.0000
  H   H2235     1.0  0.96841  0.52201  0.65559  1.0000
  H   H2236     1.0  0.83687  0.98728  0.68978  1.0000
  C   C2251     1.0  0.92664  0.88794  0.68178  1.0000
  C   C2252     1.0  0.91466  0.86868  0.73709  1.0000
  Fe  Fe377     1.0  0.84570  0.53452  0.97838  1.0000
  C   C2253     1.0  0.94078  0.71799  0.96095  1.0000
  S   S747      1.0  0.96935  0.73104  0.92978  1.0000
  H   H2237     1.0  0.82824  0.96648  0.85713  1.0000
  S   S748      1.0  0.94543  0.49153  0.65440  1.0000
  S   S749      1.0  0.86986  0.98294  0.76361  1.0000
  C   C2254     1.0  0.92318  0.87014  0.71661  1.0000
  C   C2255     1.0  0.96362  0.49392  0.84561  1.0000
  C   C2256     1.0  0.88516  0.62749  0.95617  1.0000
  H   H2238     1.0  0.94266  0.51085  0.91642  1.0000
  H   H2239     1.0  0.92755  0.87354  0.67600  1.0000
  N   N189      1.0  0.91650  0.88630  0.70286  1.0000
  C   C2257     1.0  0.82774  0.62072  0.96799  1.0000
  C   C2258     1.0  0.79147  0.97076  0.73663  1.0000
  C   C2259     1.0  0.92532  0.76747  0.93038  1.0000
  S   S750      1.0  0.94887  0.88412  0.76424  1.0000
  H   H2240     1.0  0.80347  0.97733  0.85085  1.0000
  S   S751      1.0  0.89989  0.95851  0.71349  1.0000
  Fe  Fe378     1.0  0.83169  0.57402  0.95240  1.0000
  S   S752      1.0  0.82239  0.55837  0.93022  1.0000
  S   S753      1.0  0.83236  0.60772  0.94716  1.0000
  H   H2241     1.0  0.89644  0.91447  0.69826  1.0000
  S   S754      1.0  0.83821  0.51546  0.95844  1.0000
  H   H2242     1.0  0.89503  0.76559  0.96124  1.0000
  Fe  Fe379     1.0  0.85169  0.53704  0.93266  1.0000
  S   S755      1.0  0.87169  0.52877  0.90394  1.0000
  Fe  Fe380     1.0  0.80959  0.53797  0.95774  1.0000
  S   S756      1.0  0.78286  0.52154  0.96423  1.0000
  S   S757      1.0  0.86194  0.55414  0.95276  1.0000
  C   C2260     1.0  0.98253  0.50017  0.84220  1.0000
  C   C2261     1.0  0.82150  0.53974  0.88501  1.0000
  S   S758      1.0  0.81613  0.55555  0.97969  1.0000
  H   H2243     1.0  0.77798  0.96429  0.73591  1.0000
  C   C2262     1.0  0.94122  0.50928  0.90090  1.0000
  C   C2263     1.0  0.89991  0.72390  0.92874  1.0000
  C   C2264     1.0  0.79738  0.98043  0.80127  1.0000
  C   C2265     1.0  0.89225  0.90012  0.72926  1.0000
  H   H2244     1.0  0.82103  0.96269  0.83411  1.0000
  H   H2245     1.0  0.82178  0.54098  0.86850  1.0000
  H   H2246     1.0  0.87418  0.59114  0.96200  1.0000
  H   H2247     1.0  0.88077  0.91240  0.73413  1.0000
  H   H2248     1.0  0.81318  0.72551  0.97885  1.0000
  H   H2249     1.0  0.83758  0.96921  0.66153  1.0000
  H   H2250     1.0  0.77215  0.55847  0.93595  1.0000
  Fe  Fe381     1.0  0.97244  0.86285  0.74698  1.0000
  S   S759      1.0  0.81553  0.96795  0.78377  1.0000
  C   C2266     1.0  0.93667  0.90598  0.75022  1.0000
  C   C2267     1.0  0.92049  0.91839  0.76014  1.0000
  C   C2268     1.0  0.90951  0.93505  0.74908  1.0000
  C   C2269     1.0  0.91479  0.93942  0.72805  1.0000
  C   C2270     1.0  0.93134  0.92740  0.71820  1.0000
  C   C2271     1.0  0.94216  0.91065  0.72924  1.0000
  H   H2251     1.0  0.91618  0.91485  0.77638  1.0000
  H   H2252     1.0  0.89671  0.94416  0.75679  1.0000
  H   H2253     1.0  0.93552  0.93075  0.70195  1.0000
  H   H2254     1.0  0.95453  0.90124  0.72144  1.0000
  C   C2272     1.0  0.95760  0.83444  0.66885  1.0000
  H   H2255     1.0  0.78830  0.72998  0.97170  1.0000
  H   H2256     1.0  0.79800  0.74980  0.97935  1.0000
  H   H2257     1.0  0.87159  0.74065  0.97079  1.0000
  C   C2273     1.0  0.94357  0.80377  0.67111  1.0000
  C   C2274     1.0  0.95282  0.81595  0.67987  1.0000
  C   C2275     1.0  0.74644  0.51911  0.95493  1.0000
  H   H2258     1.0  0.92052  0.85631  0.74814  1.0000
  H   H2259     1.0  0.93980  0.78950  0.67967  1.0000
  H   H2260     1.0  0.95626  0.81102  0.69506  1.0000
  C   C2276     1.0  0.76187  0.53079  0.95167  1.0000
  C   C2277     1.0  0.92401  0.68949  0.96173  1.0000
  C   C2278     1.0  0.93670  0.68523  0.94381  1.0000
  C   C2279     1.0  0.95115  0.69755  0.93427  1.0000
  C   C2280     1.0  0.95305  0.71409  0.94271  1.0000
  H   H2261     1.0  0.88289  0.64397  0.95702  1.0000
  C   C2281     1.0  0.89916  0.88382  0.74342  1.0000
  H   H2262     1.0  0.93499  0.67271  0.93699  1.0000
  H   H2263     1.0  0.96035  0.69459  0.92005  1.0000
  C   C2282     1.0  0.91297  0.73820  0.92369  1.0000
  H   H2264     1.0  0.77260  0.98209  0.77145  1.0000
  Fe  Fe382     1.0  0.87608  0.97938  0.73079  1.0000
  S   S760      1.0  0.90452  0.67527  0.97201  1.0000
  H   H2265     1.0  0.91711  0.78331  0.92920  1.0000
  C   C2283     1.0  0.92626  0.70572  0.97044  1.0000
  C   C2284     1.0  0.83327  0.63997  0.96517  1.0000
  H   H2266     1.0  0.92514  0.73685  0.91096  1.0000
  H   H2267     1.0  0.79952  0.96118  0.74875  1.0000
  S   S761      1.0  0.96994  0.85013  0.67842  1.0000
  H   H2268     1.0  0.83954  0.64686  0.95021  1.0000
  N   N190      1.0  0.87746  0.61577  0.97555  1.0000
  H   H2269     1.0  0.93498  0.76458  0.94234  1.0000
  H   H2270     1.0  0.91667  0.70900  0.98433  1.0000
  H   H2271     1.0  0.90155  0.62211  0.95192  1.0000
  H   H2272     1.0  0.89309  0.88329  0.75939  1.0000
  H   H2273     1.0  0.75901  0.97027  0.84003  1.0000
  H   H2274     1.0  0.94229  0.89079  0.68083  1.0000
  C   C2285     1.0  0.88492  0.72478  0.94574  1.0000
  H   H2275     1.0  0.83566  0.66489  0.97929  1.0000
  S   S762      1.0  0.98995  0.78749  0.76718  1.0000
  H   H2276     1.0  0.94228  0.73070  0.96761  1.0000
  H   H2277     1.0  0.94980  0.52002  0.88969  1.0000
  N   N191      1.0  0.91107  0.75304  0.93522  1.0000
  H   H2278     1.0  0.89132  0.50993  0.86962  1.0000
  H   H2279     1.0  0.87521  0.71331  0.95023  1.0000
  H   H2280     1.0  0.93549  0.85854  0.71177  1.0000
  C   C2286     1.0  0.76929  0.97891  0.82933  1.0000
  H   H2281     1.0  0.93566  0.76586  0.91583  1.0000
  H   H2282     1.0  0.84446  0.50679  0.87263  1.0000
  S   S763      1.0  0.98862  0.87192  0.71580  1.0000
  C   C2287     1.0  0.83259  0.98545  0.65991  1.0000
  S   S764      1.0  0.96299  0.83597  0.73923  1.0000
  C   C2288     1.0  0.88302  0.74000  0.95737  1.0000
  C   C2289     1.0  0.89634  0.75407  0.95187  1.0000
  C   C2290     1.0  0.80911  0.51446  0.91323  1.0000
  C   C2291     1.0  0.78357  0.96950  0.81479  1.0000
  H   H2283     1.0  0.80787  0.55007  0.89096  1.0000
  C   C2292     1.0  0.76038  0.54929  0.93846  1.0000
  H   H2284     1.0  0.83508  0.54508  0.88742  1.0000
  H   H2285     1.0  0.78414  0.95362  0.81426  1.0000
  H   H2286     1.0  0.74756  0.50473  0.96505  1.0000
  H   H2287     1.0  0.79914  0.52656  0.92018  1.0000
  H   H2288     1.0  0.87700  0.62591  0.94409  1.0000
  H   H2289     1.0  0.85100  0.97583  0.81448  1.0000
  S   S765      1.0  0.84381  0.97881  0.72928  1.0000
  H   H2290     1.0  0.97868  0.75994  0.80316  1.0000
  H   H2291     1.0  0.90196  0.71168  0.92005  1.0000
  C   C2293     1.0  0.87811  0.50310  0.90100  1.0000
  H   H2292     1.0  0.92508  0.51389  0.89894  1.0000
  H   H2293     1.0  0.95077  0.50221  0.85418  1.0000
  Fe  Fe383     1.0  0.98108  0.84377  0.70863  1.0000
  N   N192      1.0  0.82138  0.51869  0.89511  1.0000
  C   C2294     1.0  0.97676  0.50741  0.66105  1.0000
  H   H2294     1.0  0.91861  0.90040  0.67171  1.0000
  H   H2295     1.0  0.80200  0.97005  0.72207  1.0000
  C   C2295     1.0  0.83110  0.65021  0.98165  1.0000
  H   H2296     1.0  0.86876  0.49209  0.98214  1.0000
  C   C2296     1.0  0.88766  0.49805  0.88209  1.0000
  Fe  Fe384     1.0  0.83714  0.98553  0.76103  1.0000
  C   C2297     1.0  0.81977  0.97373  0.84455  1.0000
  H   H2297     1.0  0.97963  0.49285  0.89054  1.0000
  H   H2298     1.0  0.98212  0.71340  0.79063  1.0000
  H   H2299     1.0  0.91820  0.60654  0.65433  1.0000
  H   H2300     1.0  0.98760  0.68927  0.82244  1.0000
  H   H2301     1.0  0.98767  0.62358  0.86099  1.0000
  C   C2298     1.0  0.87279  0.59703  0.97596  1.0000
  C   C2299     1.0  0.83419  0.50338  0.88661  1.0000
  S   S766      1.0  0.99113  0.71853  0.87341  1.0000
  C   C2300     1.0  0.79733  0.73327  0.98219  1.0000
  C   C2301     1.0  0.74454  0.91769  0.95106  1.0000
  H   H2302     1.0  0.86643  0.49138  0.93173  1.0000
  H   H2303     1.0  0.79952  0.49125  0.93758  1.0000
  C   C2302     1.0  0.80926  0.49445  0.92317  1.0000
  S   S767      1.0  0.98585  0.52028  0.85334  1.0000
  C   C2303     1.0  0.74336  0.55614  0.92873  1.0000
  S   S768      1.0  0.74810  0.89087  0.98606  1.0000
  C   C2304     1.0  0.84421  0.99046  0.81886  1.0000
  H   H2304     1.0  0.74210  0.57057  0.91870  1.0000
