data_image0
_chemical_formula_structural       HSFeHSFeS2HSH2C9HCH2FeHFeHCHCS2H2CHNHSC4HCHCH2FeS3FeCHFeSC2HC2H2CHC6H3NCH3CSHC2SH2CSCSH3FeH3C2HCH2CHFeS2FeS2CFe2SCHSFeS2FeS2FeSFeS3HC2H3C7H4C9H5C3H3C2H2C2HNC6H10C2NC6H5C3NCHCH3CH4C4SH3NH3CHCH2CSHCHNHC3HFeHCHNSFeHCFeS2FeS2FeSFeS4HSHFeSCFeHFeS2H2SH2C8H4CHC2HC6H4C2H2FeCHCNHCHCS2H2C3HCHCHNCH2C2N2C6H4CH2C2H5C3H5SHFeHSH4CSH2C2SFeS2FeSCFeSFeS3HCFeCSHCNHSC6NH3C6SHCHCHFeCH2C7H3CHFeCHNH2C2HCHCSC2SHCH3C2FeH2CHC4H4C4H2SH4C2NFeHSHSCH2CH5SNHS2C2HC3H2CH2CH2C2H2SCFeS2HCFeH2SHCHCS2C2NSHC2HSFeS2FeS2FeSFeS3CHCH2CH5C7H4C2H2C2H4C6H3CNCHC9H7CH2CSCH3CFeH3CSNH2CH4NC4HCHSH3C4H2CHCNHS2H2SCFeSC2HSCHSCSFeHFeSCFeS2FeS2FeSFeS5C6H4C2HC9H4C6H4C2H3C2HC2HNHC2SH3C2HC2HSHCH3NH2CH3C3HC2H3SHCFeH3NHCH2FeSHCH2C2HC2HCSNFeCHFeH2CHCHCNCH4FeCHCHCNHSCHCH4CHSCSCFeHCHC2HCHCNH2SCHSHCHCHCHCH4CHFeS2HCS2FeCS2CSFeS2FeS2FeSFeS3FeS2FeS2CFeHSHSC4NC2H3C6H4C5HSFeHC6H6C6H5C3H3NCH2C2H5CHFeSHC4HSH2CHC3H2C2H3C2HCFeH3CH3C2FeC2HNC6H6CHNC7HSCH4FeH4C2NCHCHC2H2CFeH2CNCH2C2NC2SCHCNCH2FeS2FeS2FeSFeS3HCHFeSCFeS3FeSHSFeSFeS4NFeHC7H4CH2NCHC6H4C6H4C2HC2HCHC4H3CSCHC2HSCFeHCH2NC6H8NC4HSH4C2NC2SH2CHCSCHC2H2CHC5HCH2CSHC2S2CHFeCHCHCFeCH2FeH2CHCH2NH2C3HC2H3SH2NH4CFeS2FeS2FeSFeS3CFeHSHCSCFeS2FeS2H2FeSHCHC6H4CFeHNCHNSFeSC6H5CHFeHC6H4CH2NCH3NHFeCHCH5CH2C5SCNCHC2H3CHSH5C2SHCHC2H2C2HCHNH2SCSC5HCHC2HCSHCHCSH3C2HCH2CSC2SHFeH2CH2C3HCH3CFeHCHC4HCHCFeS2FeS2FeSFeS3HC2HC3SNCFeSHCSCSH5SC2H2CH3C8H4CH2C4HS2C7H4C6H6C4H2CHFeH2NHC2HCHFeNH2FeHCH2SHCHC4H3C2H2CHCSFeCSCSNCH2NC4H3CH5FeH2FeH2CHCSC2H2CNCS2H3CSFe2SCSHCSFeS2FeS2FeSFeS3H3CSHS3C3H4CFeCHCH2CH2C7H4CH4C6H4CH3C8HC3FeH3CHCH3SCSCFeHC2FeNC4H6CH2CSFeCH3NCNSCHCFeCH3CH2CHCNCSHCHCHFeS2FeS2FeSFeS4CS2FeSHC6H4C6H5C3H6C2H3SNH2C2NH2CH2CHCFeCHNC6H5CHC2HCHC2HCHCSH2C2HC3HC2HSCH2FeS2C2HFeS2FeS2FeSFeS3FeSCSC7H4C2H2NH2C2NCH2C2HSC6H4CSNH5SHCH2NC6H8CH2C4FeHCSH2C2H2C2HCH2CHCH2C2FeNC2H2FeCSCFeNSC2H3FeSC7H4CHC4HNH2S2H2CHNH4C2HCHSHC3HCH3SFeHCSCHC2HSCFeS2CHC2S2H2FeS2HC2HFeH2C6H4CH2CHC2HNCHCSHC3HFeH3CH2
_chemical_formula_sum              "H864 S288 Fe144 C864 N72"
_cell_length_a       77.417
_cell_length_b       77.2814
_cell_length_c       40.1053
_cell_angle_alpha    91.4309
_cell_angle_beta     91.7301
_cell_angle_gamma    117.018

_space_group_name_H-M_alt    "P 1"
_space_group_IT_number       1

loop_
  _space_group_symop_operation_xyz
  'x, y, z'

loop_
  _atom_site_type_symbol
  _atom_site_label
  _atom_site_symmetry_multiplicity
  _atom_site_fract_x
  _atom_site_fract_y
  _atom_site_fract_z
  _atom_site_occupancy
  H   H1        1.0  0.14137  0.46340  0.03039  1.0000
  S   S1        1.0  0.00237  0.40730  0.36478  1.0000
  Fe  Fe1       1.0  0.02667  0.43802  0.36408  1.0000
  H   H2        1.0  0.11812  0.47939  0.29085  1.0000
  S   S2        1.0  0.05903  0.44902  0.35508  1.0000
  Fe  Fe2       1.0  0.99557  0.41628  0.41511  1.0000
  S   S3        1.0  0.00096  0.48242  0.41074  1.0000
  S   S4        1.0  0.02120  0.44566  0.41606  1.0000
  H   H3        1.0  0.01808  0.38445  0.41850  1.0000
  S   S5        1.0  0.10519  0.47175  0.21971  1.0000
  H   H4        1.0  0.01606  0.38032  0.47934  1.0000
  H   H5        1.0  0.01581  0.43554  0.49032  1.0000
  C   C1        1.0  0.02849  0.39577  0.43553  1.0000
  C   C2        1.0  0.14680  0.47900  0.03027  1.0000
  C   C3        1.0  0.04260  0.41294  0.42325  1.0000
  C   C4        1.0  0.07156  0.45509  0.31707  1.0000
  C   C5        1.0  0.09194  0.46579  0.31858  1.0000
  C   C6        1.0  0.10246  0.47129  0.28920  1.0000
  C   C7        1.0  0.09272  0.46593  0.25779  1.0000
  C   C8        1.0  0.07231  0.45530  0.25631  1.0000
  C   C9        1.0  0.06178  0.45004  0.28568  1.0000
  H   H6        1.0  0.09971  0.46986  0.34265  1.0000
  C   C10       1.0  0.02743  0.39353  0.47004  1.0000
  H   H7        1.0  0.06461  0.45095  0.23220  1.0000
  H   H8        1.0  0.04612  0.44178  0.28396  1.0000
  Fe  Fe3       1.0  0.00067  0.45482  0.39121  1.0000
  H   H9        1.0  0.04354  0.41492  0.39653  1.0000
  Fe  Fe4       1.0  0.13699  0.49183  0.20894  1.0000
  H   H10       1.0  0.14732  0.48255  0.08408  1.0000
  C   C11       1.0  0.15019  0.48980  0.06067  1.0000
  H   H11       1.0  0.23616  0.48695  0.24297  1.0000
  C   C12       1.0  0.19646  0.49504  0.00794  1.0000
  S   S6        1.0  0.00800  0.44966  0.33947  1.0000
  S   S7        1.0  0.15518  0.48505  0.17219  1.0000
  H   H12       1.0  0.18800  0.47524  0.04784  1.0000
  H   H13       1.0  0.18157  0.48553  0.10331  1.0000
  C   C13       1.0  0.05380  0.42502  0.47992  1.0000
  H   H14       1.0  0.06612  0.44121  0.43598  1.0000
  N   N1        1.0  0.03991  0.40810  0.49174  1.0000
  H   H15       1.0  0.05970  0.48242  0.32264  1.0000
  S   S8        1.0  0.20463  0.49533  0.22508  1.0000
  C   C14       1.0  0.05531  0.42771  0.44551  1.0000
  C   C15       1.0  0.05210  0.49030  0.31375  1.0000
  C   C16       1.0  0.04849  0.49046  0.27941  1.0000
  C   C17       1.0  0.99633  0.49453  0.37820  1.0000
  H   H16       1.0  0.05314  0.48258  0.26201  1.0000
  C   C18       1.0  0.24040  0.49598  0.22155  1.0000
  H   H17       1.0  0.04818  0.48472  0.37832  1.0000
  C   C19       1.0  0.19387  0.49036  0.04153  1.0000
  H   H18       1.0  0.20766  0.49748  0.11126  1.0000
  H   H19       1.0  0.06368  0.43659  0.49710  1.0000
  Fe  Fe5       1.0  0.01806  0.42873  0.73721  1.0000
  S   S9        1.0  0.01902  0.44877  0.69703  1.0000
  S   S10       1.0  0.04061  0.43925  0.78113  1.0000
  S   S11       1.0  0.14857  0.47484  0.96246  1.0000
  Fe  Fe6       1.0  0.15060  0.48375  0.84006  1.0000
  C   C20       1.0  0.15089  0.48838  0.99983  1.0000
  H   H20       1.0  0.02764  0.44650  0.54910  1.0000
  Fe  Fe7       1.0  0.15873  0.49137  0.91530  1.0000
  S   S12       1.0  0.17034  0.47834  0.87647  1.0000
  C   C21       1.0  0.23533  0.49147  0.86619  1.0000
  C   C22       1.0  0.06088  0.41421  0.84343  1.0000
  H   H21       1.0  0.06717  0.43298  0.73686  1.0000
  C   C23       1.0  0.09566  0.42310  0.84510  1.0000
  C   C24       1.0  0.10150  0.44324  0.90596  1.0000
  H   H22       1.0  0.04420  0.41909  0.54247  1.0000
  H   H23       1.0  0.06148  0.41225  0.81597  1.0000
  C   C25       1.0  0.01558  0.43226  0.54378  1.0000
  H   H24       1.0  0.09369  0.41566  0.82092  1.0000
  C   C26       1.0  0.06599  0.44704  0.78313  1.0000
  C   C27       1.0  0.07685  0.45812  0.81150  1.0000
  C   C28       1.0  0.09679  0.46363  0.81570  1.0000
  C   C29       1.0  0.10618  0.45795  0.79175  1.0000
  C   C30       1.0  0.09538  0.44699  0.76316  1.0000
  C   C31       1.0  0.07539  0.44165  0.75872  1.0000
  H   H25       1.0  0.06972  0.46235  0.83054  1.0000
  H   H26       1.0  0.10473  0.47193  0.83785  1.0000
  H   H27       1.0  0.10246  0.44245  0.74447  1.0000
  N   N2        1.0  0.08040  0.42424  0.85955  1.0000
  C   C32       1.0  0.00716  0.42002  0.57031  1.0000
  H   H28       1.0  0.13147  0.44936  0.90357  1.0000
  H   H29       1.0  0.07100  0.43493  0.90122  1.0000
  H   H30       1.0  0.12645  0.43183  0.84850  1.0000
  C   C33       1.0  0.11712  0.44221  0.89129  1.0000
  S   S13       1.0  0.00603  0.40199  0.70234  1.0000
  H   H31       1.0  0.05277  0.42285  0.84683  1.0000
  C   C34       1.0  0.11425  0.43216  0.86063  1.0000
  C   C35       1.0  0.07948  0.48839  0.74732  1.0000
  S   S14       1.0  0.13106  0.46356  0.79739  1.0000
  H   H32       1.0  0.10379  0.45125  0.92971  1.0000
  H   H33       1.0  0.05263  0.39973  0.85402  1.0000
  C   C36       1.0  0.08308  0.43405  0.88970  1.0000
  S   S15       1.0  0.13751  0.49421  0.87958  1.0000
  C   C37       1.0  0.00021  0.48369  0.67070  1.0000
  S   S16       1.0  0.01869  0.42700  0.61093  1.0000
  H   H34       1.0  0.21999  0.48180  0.86220  1.0000
  H   H35       1.0  0.04807  0.39793  0.53520  1.0000
  H   H36       1.0  0.07102  0.47866  0.72650  1.0000
  Fe  Fe8       1.0  0.00526  0.42197  0.66231  1.0000
  H   H37       1.0  0.00282  0.47133  0.66544  1.0000
  H   H38       1.0  0.10612  0.48831  0.73426  1.0000
  H   H39       1.0  0.05489  0.49014  0.76773  1.0000
  C   C38       1.0  0.03906  0.40511  0.52776  1.0000
  C   C39       1.0  0.07040  0.49481  0.77059  1.0000
  H   H40       1.0  0.19236  0.48366  0.98849  1.0000
  C   C40       1.0  0.09932  0.49387  0.75192  1.0000
  H   H41       1.0  0.24396  0.46870  0.85940  1.0000
  H   H42       1.0  0.02387  0.39591  0.53481  1.0000
  C   C41       1.0  0.00893  0.42606  0.51036  1.0000
  H   H43       1.0  0.09223  0.67958  0.32989  1.0000
  Fe  Fe9       1.0  0.01437  0.60084  0.30271  1.0000
  S   S17       1.0  0.03641  0.62586  0.27372  1.0000
  S   S18       1.0  0.02252  0.58170  0.33357  1.0000
  Fe  Fe10      1.0  0.16149  0.51373  0.15020  1.0000
  S   S19       1.0  0.18807  0.53113  0.18346  1.0000
  S   S20       1.0  0.16464  0.52463  0.09780  1.0000
  C   C42       1.0  0.18443  0.64021  0.05561  1.0000
  Fe  Fe11      1.0  0.18070  0.50307  0.20785  1.0000
  Fe  Fe12      1.0  0.16753  0.53435  0.21811  1.0000
  S   S21       1.0  0.17379  0.56304  0.24378  1.0000
  C   C43       1.0  0.19512  0.49927  0.10095  1.0000
  H   H44       1.0  0.06505  0.51034  0.37893  1.0000
  S   S22       1.0  0.14153  0.51907  0.18345  1.0000
  Fe  Fe13      1.0  0.14299  0.66324  0.12181  1.0000
  S   S23       1.0  0.17489  0.67343  0.12071  1.0000
  S   S24       1.0  0.12293  0.65646  0.07623  1.0000
  Fe  Fe14      1.0  0.14205  0.65889  0.19783  1.0000
  S   S25       1.0  0.17466  0.66955  0.20250  1.0000
  S   S26       1.0  0.12335  0.64450  0.24204  1.0000
  Fe  Fe15      1.0  0.17703  0.69234  0.16583  1.0000
  S   S27       1.0  0.19641  0.72499  0.16051  1.0000
  Fe  Fe16      1.0  0.16997  0.65008  0.15693  1.0000
  S   S28       1.0  0.18060  0.62802  0.14389  1.0000
  S   S29       1.0  0.14469  0.68314  0.16495  1.0000
  S   S30       1.0  0.13775  0.63846  0.15424  1.0000
  H   H45       1.0  0.19837  0.73891  0.02895  1.0000
  C   C44       1.0  0.18288  0.72809  0.07367  1.0000
  C   C45       1.0  0.16456  0.71889  0.08712  1.0000
  H   H46       1.0  0.21274  0.54380  0.01807  1.0000
  H   H47       1.0  0.00207  0.54770  0.45151  1.0000
  H   H48       1.0  0.09104  0.65780  0.31017  1.0000
  C   C46       1.0  0.16469  0.63504  0.05655  1.0000
  C   C47       1.0  0.17637  0.58140  0.21620  1.0000
  C   C48       1.0  0.17695  0.57845  0.18180  1.0000
  C   C49       1.0  0.17866  0.59305  0.16003  1.0000
  C   C50       1.0  0.17938  0.61053  0.17238  1.0000
  C   C51       1.0  0.17889  0.61354  0.20681  1.0000
  C   C52       1.0  0.17753  0.59905  0.22869  1.0000
  H   H49       1.0  0.17603  0.56490  0.17186  1.0000
  H   H50       1.0  0.17910  0.59064  0.13344  1.0000
  H   H51       1.0  0.17977  0.62712  0.21657  1.0000
  H   H52       1.0  0.17722  0.60147  0.25531  1.0000
  C   C53       1.0  0.20795  0.53938  0.28242  1.0000
  C   C54       1.0  0.14932  0.71768  0.03421  1.0000
  C   C55       1.0  0.03317  0.51096  0.29062  1.0000
  C   C56       1.0  0.05944  0.62856  0.26162  1.0000
  C   C57       1.0  0.06930  0.64193  0.23727  1.0000
  C   C58       1.0  0.08854  0.64633  0.22984  1.0000
  C   C59       1.0  0.09832  0.63765  0.24715  1.0000
  C   C60       1.0  0.08834  0.62401  0.27110  1.0000
  C   C61       1.0  0.06896  0.61932  0.27804  1.0000
  H   H53       1.0  0.06213  0.64923  0.22447  1.0000
  H   H54       1.0  0.09601  0.65690  0.21148  1.0000
  H   H55       1.0  0.09575  0.61724  0.28473  1.0000
  H   H56       1.0  0.06164  0.60906  0.29689  1.0000
  H   H57       1.0  0.16197  0.67716  0.05078  1.0000
  C   C62       1.0  0.20781  0.52879  0.02451  1.0000
  C   C63       1.0  0.01709  0.58951  0.49422  1.0000
  C   C64       1.0  0.19356  0.64479  0.02532  1.0000
  H   H58       1.0  0.20184  0.52327  0.27973  1.0000
  H   H59       1.0  0.19570  0.54303  0.27846  1.0000
  H   H60       1.0  0.03142  0.59050  0.49222  1.0000
  C   C65       1.0  0.23040  0.75884  0.15557  1.0000
  C   C66       1.0  0.16104  0.51926  0.03010  1.0000
  H   H61       1.0  0.19587  0.73203  0.08950  1.0000
  H   H62       1.0  0.19263  0.64063  0.07834  1.0000
  C   C67       1.0  0.15133  0.67518  0.03107  1.0000
  C   C68       1.0  0.13149  0.66533  0.03698  1.0000
  H   H63       1.0  0.23857  0.58500  0.20417  1.0000
  N   N3        1.0  0.13109  0.58772  0.20639  1.0000
  C   C69       1.0  0.12807  0.57124  0.22247  1.0000
  C   C70       1.0  0.13146  0.58793  0.17231  1.0000
  C   C71       1.0  0.12549  0.55447  0.20436  1.0000
  C   C72       1.0  0.12901  0.57146  0.15343  1.0000
  C   C73       1.0  0.12593  0.55462  0.16959  1.0000
  C   C74       1.0  0.13307  0.60497  0.22560  1.0000
  H   H64       1.0  0.12806  0.57110  0.24950  1.0000
  H   H65       1.0  0.13418  0.60101  0.15952  1.0000
  H   H66       1.0  0.12359  0.54160  0.21729  1.0000
  H   H67       1.0  0.12989  0.57190  0.12649  1.0000
  H   H68       1.0  0.12419  0.54183  0.15512  1.0000
  H   H69       1.0  0.14324  0.61855  0.21394  1.0000
  H   H70       1.0  0.11874  0.60495  0.22684  1.0000
  H   H71       1.0  0.13908  0.60566  0.25138  1.0000
  H   H72       1.0  0.12922  0.69542  0.10337  1.0000
  H   H73       1.0  0.16365  0.71594  0.11350  1.0000
  C   C75       1.0  0.99868  0.51600  0.49276  1.0000
  C   C76       1.0  0.18427  0.73203  0.03981  1.0000
  N   N4        1.0  0.06699  0.65377  0.33979  1.0000
  C   C77       1.0  0.06834  0.63955  0.35775  1.0000
  C   C78       1.0  0.05182  0.65801  0.34375  1.0000
  C   C79       1.0  0.05432  0.62929  0.38060  1.0000
  C   C80       1.0  0.03763  0.64813  0.36651  1.0000
  C   C81       1.0  0.03902  0.63380  0.38521  1.0000
  C   C82       1.0  0.08235  0.66533  0.31748  1.0000
  H   H74       1.0  0.08021  0.63598  0.35428  1.0000
  H   H75       1.0  0.05050  0.66893  0.32892  1.0000
  H   H76       1.0  0.00688  0.52161  0.40688  1.0000
  H   H77       1.0  0.02547  0.65133  0.36929  1.0000
  H   H78       1.0  0.12463  0.71529  0.09052  1.0000
  C   C83       1.0  0.03881  0.50076  0.26784  1.0000
  C   C84       1.0  0.23332  0.73451  0.18858  1.0000
  C   C85       1.0  0.15764  0.51002  0.06061  1.0000
  N   N5        1.0  0.22299  0.54865  0.25833  1.0000
  C   C86       1.0  0.22734  0.50193  0.20682  1.0000
  H   H79       1.0  0.21313  0.56932  0.24455  1.0000
  C   C87       1.0  0.15434  0.63463  0.02706  1.0000
  H   H80       1.0  0.22694  0.72028  0.19899  1.0000
  H   H81       1.0  0.02806  0.62598  0.40288  1.0000
  H   H82       1.0  0.05514  0.61780  0.39458  1.0000
  C   C88       1.0  0.00592  0.58812  0.46497  1.0000
  H   H83       1.0  0.03574  0.50088  0.24130  1.0000
  H   H84       1.0  0.22162  0.76346  0.14033  1.0000
  H   H85       1.0  0.07594  0.66776  0.29394  1.0000
  H   H86       1.0  0.20770  0.53479  0.07706  1.0000
  C   C89       1.0  0.23304  0.51362  0.17917  1.0000
  C   C90       1.0  0.22178  0.74016  0.16863  1.0000
  C   C91       1.0  0.03704  0.51046  0.32480  1.0000
  C   C92       1.0  0.12901  0.70416  0.08190  1.0000
  S   S31       1.0  0.01572  0.58771  0.42546  1.0000
  H   H87       1.0  0.16670  0.53489  0.02991  1.0000
  H   H88       1.0  0.20887  0.64869  0.02424  1.0000
  H   H89       1.0  0.22328  0.51852  0.16784  1.0000
  N   N6        1.0  0.14808  0.71356  0.06731  1.0000
  H   H90       1.0  0.15751  0.63150  0.08006  1.0000
  H   H91       1.0  0.13903  0.63076  0.02811  1.0000
  H   H92       1.0  0.21419  0.54424  0.30822  1.0000
  C   C93       1.0  0.11785  0.66291  0.01129  1.0000
  H   H93       1.0  0.00351  0.53990  0.35953  1.0000
  C   C94       1.0  0.22381  0.56405  0.24108  1.0000
  H   H94       1.0  0.13629  0.71327  0.01833  1.0000
  H   H95       1.0  0.10250  0.65528  0.01570  1.0000
  C   C95       1.0  0.23824  0.57305  0.21825  1.0000
  S   S32       1.0  0.16201  0.50762  0.24607  1.0000
  H   H96       1.0  0.03264  0.51845  0.34232  1.0000
  C   C96       1.0  0.20496  0.52359  0.05784  1.0000
  H   H97       1.0  0.02567  0.51909  0.28196  1.0000
  N   N7        1.0  0.19791  0.50455  0.06592  1.0000
  H   H98       1.0  0.11785  0.69378  0.06349  1.0000
  C   C97       1.0  0.16741  0.72691  0.01993  1.0000
  C   C98       1.0  0.99923  0.52455  0.35603  1.0000
  C   C99       1.0  0.23661  0.54220  0.25418  1.0000
  H   H99       1.0  0.19348  0.51052  0.11649  1.0000
  Fe  Fe17      1.0  0.00278  0.58401  0.37197  1.0000
  H   H100      1.0  0.23581  0.52983  0.26757  1.0000
  C   C100      1.0  0.00109  0.51419  0.38287  1.0000
  H   H101      1.0  0.99949  0.50931  0.46908  1.0000
  N   N8        1.0  0.04599  0.49983  0.33597  1.0000
  S   S33       1.0  0.99601  0.60485  0.34234  1.0000
  Fe  Fe18      1.0  0.99556  0.55739  0.30992  1.0000
  H   H102      1.0  0.03972  0.50228  0.38695  1.0000
  C   C101      1.0  0.04998  0.49935  0.37181  1.0000
  Fe  Fe19      1.0  0.18615  0.68949  0.84069  1.0000
  S   S34       1.0  0.15653  0.68846  0.84137  1.0000
  S   S35       1.0  0.21198  0.71186  0.81357  1.0000
  Fe  Fe20      1.0  0.17276  0.65188  0.87924  1.0000
  S   S36       1.0  0.14255  0.64835  0.88362  1.0000
  S   S37       1.0  0.18310  0.63257  0.90586  1.0000
  Fe  Fe21      1.0  0.14410  0.65615  0.82960  1.0000
  S   S38       1.0  0.12062  0.63515  0.79167  1.0000
  Fe  Fe22      1.0  0.15739  0.68054  0.89505  1.0000
  S   S39       1.0  0.15080  0.69508  0.93880  1.0000
  S   S40       1.0  0.17379  0.65769  0.82473  1.0000
  S   S41       1.0  0.18754  0.68361  0.89484  1.0000
  S   S42       1.0  0.17391  0.51349  0.82939  1.0000
  H   H103      1.0  0.16824  0.72944  0.99335  1.0000
  S   S43       1.0  0.18154  0.52220  0.91045  1.0000
  H   H104      1.0  0.01335  0.55989  0.80281  1.0000
  Fe  Fe23      1.0  0.16131  0.52387  0.87035  1.0000
  S   S44       1.0  0.14918  0.54430  0.85472  1.0000
  C   C102      1.0  0.04377  0.60831  0.80232  1.0000
  Fe  Fe24      1.0  0.19247  0.50932  0.86983  1.0000
  H   H105      1.0  0.03591  0.62951  0.78279  1.0000
  Fe  Fe25      1.0  0.02193  0.60103  0.68169  1.0000
  S   S45       1.0  0.04490  0.62801  0.71088  1.0000
  S   S46       1.0  0.02414  0.58985  0.63028  1.0000
  H   H106      1.0  0.15002  0.62591  0.95078  1.0000
  H   H107      1.0  0.01880  0.59091  0.54834  1.0000
  S   S47       1.0  0.01923  0.53803  0.63815  1.0000
  H   H108      1.0  0.13940  0.52667  0.78181  1.0000
  H   H109      1.0  0.16070  0.51583  0.97649  1.0000
  C   C103      1.0  0.99711  0.53310  0.55349  1.0000
  C   C104      1.0  0.01837  0.57525  0.79903  1.0000
  C   C105      1.0  0.17388  0.60815  0.89111  1.0000
  C   C106      1.0  0.15904  0.60035  0.86618  1.0000
  C   C107      1.0  0.15167  0.58076  0.85529  1.0000
  C   C108      1.0  0.15916  0.56887  0.86903  1.0000
  C   C109      1.0  0.17407  0.57668  0.89386  1.0000
  C   C110      1.0  0.18134  0.59627  0.90497  1.0000
  H   H110      1.0  0.15319  0.60939  0.85540  1.0000
  H   H111      1.0  0.14013  0.57481  0.83610  1.0000
  H   H112      1.0  0.17990  0.56763  0.90460  1.0000
  H   H113      1.0  0.19283  0.60225  0.92424  1.0000
  C   C111      1.0  0.00997  0.58973  0.52615  1.0000
  H   H114      1.0  0.11873  0.63590  0.70420  1.0000
  C   C112      1.0  0.99906  0.60760  0.76272  1.0000
  C   C113      1.0  0.14363  0.68128  0.97452  1.0000
  H   H115      1.0  0.11320  0.66992  0.96122  1.0000
  C   C114      1.0  0.09924  0.63340  0.77074  1.0000
  C   C115      1.0  0.08748  0.61636  0.75138  1.0000
  C   C116      1.0  0.07089  0.61450  0.73288  1.0000
  C   C117      1.0  0.06590  0.62977  0.73323  1.0000
  C   C118      1.0  0.07762  0.64681  0.75269  1.0000
  C   C119      1.0  0.09412  0.64859  0.77151  1.0000
  H   H116      1.0  0.09128  0.60450  0.75055  1.0000
  H   H117      1.0  0.06200  0.60127  0.71819  1.0000
  H   H118      1.0  0.07386  0.65870  0.75327  1.0000
  H   H119      1.0  0.10299  0.66180  0.78625  1.0000
  C   C120      1.0  0.22958  0.73492  0.83076  1.0000
  C   C121      1.0  0.12388  0.67104  0.98033  1.0000
  H   H120      1.0  0.13243  0.62638  0.72714  1.0000
  H   H121      1.0  0.23690  0.76926  0.89211  1.0000
  Fe  Fe26      1.0  0.00970  0.56046  0.65213  1.0000
  C   C122      1.0  0.22620  0.74367  0.85912  1.0000
  H   H122      1.0  0.21281  0.73608  0.87178  1.0000
  C   C123      1.0  0.10112  0.51218  0.80154  1.0000
  N   N9        1.0  0.10980  0.50547  0.77896  1.0000
  H   H123      1.0  0.10954  0.52149  0.82286  1.0000
  C   C124      1.0  0.03755  0.58864  0.80757  1.0000
  H   H124      1.0  0.13993  0.63613  0.68642  1.0000
  C   C125      1.0  0.24165  0.51145  0.87148  1.0000
  S   S48       1.0  0.22563  0.52215  0.86800  1.0000
  S   S49       1.0  0.00991  0.57182  0.70405  1.0000
  H   H125      1.0  0.17924  0.70721  0.76946  1.0000
  H   H126      1.0  0.13851  0.63874  0.97165  1.0000
  C   C126      1.0  0.18280  0.64428  0.99633  1.0000
  C   C127      1.0  0.00298  0.51850  0.55290  1.0000
  C   C128      1.0  0.15264  0.63895  0.96668  1.0000
  H   H127      1.0  0.20506  0.51811  0.97340  1.0000
  C   C129      1.0  0.15770  0.50849  0.99980  1.0000
  H   H128      1.0  0.00703  0.51402  0.57611  1.0000
  C   C130      1.0  0.13044  0.51077  0.78425  1.0000
  H   H129      1.0  0.05872  0.61883  0.80849  1.0000
  N   N10       1.0  0.16351  0.63946  0.99755  1.0000
  C   C131      1.0  0.00574  0.58175  0.78485  1.0000
  H   H130      1.0  0.07437  0.51197  0.81604  1.0000
  H   H131      1.0  0.18996  0.64780  0.97280  1.0000
  C   C132      1.0  0.15738  0.68297  0.99968  1.0000
  C   C133      1.0  0.03079  0.61427  0.78782  1.0000
  N   N11       1.0  0.01219  0.60098  0.77860  1.0000
  N   N12       1.0  0.14611  0.65712  0.72611  1.0000
  C   C134      1.0  0.13900  0.67020  0.73169  1.0000
  C   C135      1.0  0.16486  0.66171  0.73570  1.0000
  C   C136      1.0  0.15078  0.68840  0.74733  1.0000
  C   C137      1.0  0.17711  0.67989  0.75093  1.0000
  C   C138      1.0  0.16997  0.69326  0.75687  1.0000
  C   C139      1.0  0.13371  0.63798  0.71002  1.0000
  H   H132      1.0  0.12404  0.66645  0.72469  1.0000
  H   H133      1.0  0.17034  0.65118  0.73209  1.0000
  H   H134      1.0  0.14498  0.69854  0.75248  1.0000
  H   H135      1.0  0.19191  0.68343  0.75897  1.0000
  C   C140      1.0  0.08128  0.50690  0.79779  1.0000
  H   H136      1.0  0.04764  0.58380  0.81799  1.0000
  H   H137      1.0  0.00671  0.61833  0.74359  1.0000
  C   C141      1.0  0.23994  0.76252  0.87062  1.0000
  C   C142      1.0  0.00656  0.51673  0.65962  1.0000
  H   H138      1.0  0.13532  0.50277  0.76656  1.0000
  H   H139      1.0  0.16108  0.65211  0.95240  1.0000
  H   H140      1.0  0.17270  0.69114  0.99545  1.0000
  H   H141      1.0  0.13320  0.50709  0.80979  1.0000
  H   H142      1.0  0.02039  0.50151  0.63517  1.0000
  C   C143      1.0  0.01003  0.50073  0.65334  1.0000
  C   C144      1.0  0.20347  0.51438  0.99944  1.0000
  C   C145      1.0  0.00373  0.50982  0.52237  1.0000
  H   H143      1.0  0.23897  0.50881  0.79960  1.0000
  H   H144      1.0  0.99669  0.54007  0.57713  1.0000
  H   H145      1.0  0.00828  0.49845  0.52165  1.0000
  H   H146      1.0  0.47214  0.01618  0.38976  1.0000
  H   H147      1.0  0.47003  0.03174  0.47513  1.0000
  S   S50       1.0  0.33279  0.47257  0.25306  1.0000
  H   H148      1.0  0.44383  0.15461  0.24677  1.0000
  Fe  Fe27      1.0  0.48048  0.14430  0.20770  1.0000
  H   H149      1.0  0.48358  0.18133  0.30906  1.0000
  S   S51       1.0  0.39621  0.00774  0.34142  1.0000
  H   H150      1.0  0.48311  0.37636  0.15283  1.0000
  H   H151      1.0  0.46321  0.13463  0.01359  1.0000
  H   H152      1.0  0.47594  0.34548  0.02580  1.0000
  H   H153      1.0  0.35604  0.44844  0.13069  1.0000
  C   C146      1.0  0.46968  0.36828  0.32845  1.0000
  S   S52       1.0  0.47484  0.16560  0.17727  1.0000
  H   H154      1.0  0.43136  0.17040  0.20632  1.0000
  H   H155      1.0  0.42705  0.05605  0.21078  1.0000
  C   C147      1.0  0.42357  0.04061  0.20514  1.0000
  C   C148      1.0  0.48741  0.38458  0.33593  1.0000
  S   S53       1.0  0.45900  0.12598  0.24597  1.0000
  Fe  Fe28      1.0  0.41763  0.42284  0.38825  1.0000
  S   S54       1.0  0.41093  0.40616  0.33803  1.0000
  S   S55       1.0  0.40860  0.40743  0.43759  1.0000
  Fe  Fe29      1.0  0.44124  0.46127  0.35659  1.0000
  S   S56       1.0  0.43693  0.44784  0.30514  1.0000
  C   C149      1.0  0.45512  0.32958  0.06204  1.0000
  Fe  Fe30      1.0  0.40590  0.43091  0.31836  1.0000
  S   S57       1.0  0.38522  0.43002  0.27568  1.0000
  Fe  Fe31      1.0  0.44253  0.42458  0.32814  1.0000
  S   S58       1.0  0.46675  0.41854  0.30756  1.0000
  S   S59       1.0  0.40992  0.44578  0.36898  1.0000
  S   S60       1.0  0.44933  0.43962  0.37929  1.0000
  H   H156      1.0  0.33603  0.47698  0.01649  1.0000
  C   C150      1.0  0.47560  0.17159  0.28714  1.0000
  Fe  Fe32      1.0  0.42650  0.01864  0.32310  1.0000
  C   C151      1.0  0.47095  0.34579  0.05074  1.0000
  S   S61       1.0  0.44450  0.04072  0.28513  1.0000
  H   H157      1.0  0.49095  0.30791  0.02187  1.0000
  C   C152      1.0  0.33998  0.40949  0.22172  1.0000
  N   N13       1.0  0.33759  0.42322  0.19977  1.0000
  H   H158      1.0  0.43505  0.35693  0.23944  1.0000
  S   S62       1.0  0.43894  0.01794  0.37395  1.0000
  C   C153      1.0  0.45558  0.10255  0.25762  1.0000
  C   C154      1.0  0.46608  0.09370  0.24364  1.0000
  C   C155      1.0  0.46281  0.07503  0.25311  1.0000
  C   C156      1.0  0.44901  0.06490  0.27663  1.0000
  C   C157      1.0  0.43858  0.07377  0.29084  1.0000
  C   C158      1.0  0.44184  0.09248  0.28133  1.0000
  N   N14       1.0  0.40798  0.02724  0.22535  1.0000
  H   H159      1.0  0.47097  0.06835  0.24189  1.0000
  H   H160      1.0  0.42792  0.06621  0.30898  1.0000
  H   H161      1.0  0.43367  0.09918  0.29242  1.0000
  C   C159      1.0  0.46606  0.37104  0.23461  1.0000
  C   C160      1.0  0.44853  0.36967  0.24629  1.0000
  C   C161      1.0  0.44832  0.38441  0.26758  1.0000
  C   C162      1.0  0.46569  0.40075  0.27737  1.0000
  C   C163      1.0  0.48315  0.40240  0.26479  1.0000
  C   C164      1.0  0.48080  0.36219  0.07221  1.0000
  S   S63       1.0  0.40685  0.01759  0.44279  1.0000
  H   H162      1.0  0.43479  0.38290  0.27704  1.0000
  C   C165      1.0  0.29761  0.48828  0.01573  1.0000
  H   H163      1.0  0.33698  0.45124  0.30726  1.0000
  C   C166      1.0  0.33234  0.44853  0.15726  1.0000
  H   H164      1.0  0.48543  0.34309  0.27791  1.0000
  Fe  Fe33      1.0  0.33345  0.49208  0.21089  1.0000
  C   C167      1.0  0.45427  0.19921  0.21867  1.0000
  H   H165      1.0  0.44772  0.31659  0.04588  1.0000
  H   H166      1.0  0.45433  0.34709  0.14011  1.0000
  C   C168      1.0  0.34981  0.46354  0.26119  1.0000
  C   C169      1.0  0.34812  0.45305  0.29005  1.0000
  C   C170      1.0  0.36026  0.44426  0.29631  1.0000
  C   C171      1.0  0.37411  0.44563  0.27352  1.0000
  C   C172      1.0  0.37615  0.45655  0.24503  1.0000
  C   C173      1.0  0.36425  0.46570  0.23909  1.0000
  C   C174      1.0  0.41532  0.41813  0.47890  1.0000
  H   H167      1.0  0.35815  0.43546  0.31785  1.0000
  H   H168      1.0  0.38653  0.45735  0.22689  1.0000
  H   H169      1.0  0.36569  0.47367  0.21671  1.0000
  C   C175      1.0  0.46904  0.35315  0.30790  1.0000
  H   H170      1.0  0.36044  0.42573  0.16869  1.0000
  Fe  Fe34      1.0  0.40851  0.00460  0.39179  1.0000
  C   C176      1.0  0.44427  0.17913  0.22198  1.0000
  H   H171      1.0  0.47952  0.24336  0.14123  1.0000
  N   N15       1.0  0.46798  0.18117  0.26407  1.0000
  H   H172      1.0  0.48568  0.47533  0.39067  1.0000
  H   H173      1.0  0.42567  0.44772  0.46472  1.0000
  C   C177      1.0  0.38313  0.02120  0.26444  1.0000
  C   C178      1.0  0.39765  0.48861  0.32212  1.0000
  H   H174      1.0  0.31435  0.42352  0.22673  1.0000
  C   C179      1.0  0.48620  0.35456  0.29498  1.0000
  H   H175      1.0  0.49344  0.37453  0.06351  1.0000
  C   C180      1.0  0.47723  0.14730  0.01626  1.0000
  S   S64       1.0  0.31113  0.48471  0.16823  1.0000
  C   C181      1.0  0.39844  0.03405  0.24597  1.0000
  C   C182      1.0  0.48287  0.01144  0.38460  1.0000
  S   S65       1.0  0.46568  0.35125  0.21032  1.0000
  H   H176      1.0  0.47671  0.10123  0.22545  1.0000
  C   C183      1.0  0.47117  0.21014  0.23824  1.0000
  H   H177      1.0  0.32982  0.39433  0.21335  1.0000
  H   H178      1.0  0.43707  0.03926  0.21059  1.0000
  H   H179      1.0  0.45523  0.34078  0.30075  1.0000
  C   C184      1.0  0.45906  0.34686  0.11496  1.0000
  C   C185      1.0  0.48336  0.38766  0.24356  1.0000
  Fe  Fe35      1.0  0.49172  0.34740  0.19349  1.0000
  H   H180      1.0  0.39056  0.47883  0.34184  1.0000
  H   H181      1.0  0.29258  0.47654  0.03294  1.0000
  C   C186      1.0  0.45396  0.02536  0.47457  1.0000
  H   H182      1.0  0.33723  0.41206  0.24801  1.0000
  C   C187      1.0  0.47744  0.01756  0.30048  1.0000
  C   C188      1.0  0.44901  0.33012  0.09428  1.0000
  C   C189      1.0  0.40293  0.00647  0.48213  1.0000
  C   C190      1.0  0.42314  0.43822  0.48533  1.0000
  H   H183      1.0  0.44922  0.20628  0.20051  1.0000
  H   H184      1.0  0.43679  0.31756  0.10345  1.0000
  H   H185      1.0  0.35509  0.41131  0.22203  1.0000
  H   H186      1.0  0.40276  0.04950  0.24854  1.0000
  C   C191      1.0  0.49244  0.03643  0.30467  1.0000
  C   C192      1.0  0.34674  0.44284  0.15158  1.0000
  C   C193      1.0  0.34913  0.43001  0.17312  1.0000
  C   C194      1.0  0.48569  0.37976  0.12608  1.0000
  H   H187      1.0  0.48609  0.45894  0.33692  1.0000
  H   H188      1.0  0.46370  0.15820  0.29661  1.0000
  S   S66       1.0  0.33660  0.48577  0.08662  1.0000
  H   H189      1.0  0.44860  0.02765  0.44986  1.0000
  H   H190      1.0  0.46267  0.48522  0.29953  1.0000
  H   H191      1.0  0.30956  0.44603  0.18946  1.0000
  H   H192      1.0  0.33044  0.45859  0.14088  1.0000
  C   C195      1.0  0.45139  0.17029  0.24494  1.0000
  C   C196      1.0  0.32330  0.42860  0.20531  1.0000
  N   N16       1.0  0.47502  0.36242  0.10405  1.0000
  Fe  Fe36      1.0  0.48657  0.15549  0.13437  1.0000
  H   H193      1.0  0.37575  0.02662  0.28114  1.0000
  S   S67       1.0  0.47116  0.14589  0.08346  1.0000
  H   H194      1.0  0.48884  0.21783  0.15790  1.0000
  S   S68       1.0  0.48940  0.13248  0.16371  1.0000
  C   C197      1.0  0.32051  0.44136  0.18426  1.0000
  H   H195      1.0  0.49179  0.20934  0.27425  1.0000
  H   H196      1.0  0.48108  0.39104  0.12010  1.0000
  C   C198      1.0  0.48456  0.15604  0.04810  1.0000
  H   H197      1.0  0.45639  0.36778  0.33748  1.0000
  H   H198      1.0  0.42356  0.48484  0.32623  1.0000
  H   H199      1.0  0.48910  0.04848  0.30920  1.0000
  H   H200      1.0  0.46253  0.01502  0.30175  1.0000
  H   H201      1.0  0.48786  0.39676  0.35067  1.0000
  S   S69       1.0  0.49241  0.28314  0.16310  1.0000
  N   N17       1.0  0.44552  0.00459  0.48102  1.0000
  H   H202      1.0  0.41931  0.03727  0.17817  1.0000
  S   S70       1.0  0.45798  0.49340  0.36902  1.0000
  S   S71       1.0  0.48918  0.33009  0.14591  1.0000
  C   C199      1.0  0.34266  0.49263  0.02021  1.0000
  C   C200      1.0  0.47807  0.20080  0.26048  1.0000
  H   H203      1.0  0.41071  0.00246  0.20720  1.0000
  C   C201      1.0  0.48182  0.00202  0.29547  1.0000
  C   C202      1.0  0.41614  0.49190  0.31325  1.0000
  C   C203      1.0  0.49095  0.24679  0.16024  1.0000
  H   H204      1.0  0.47928  0.22571  0.23541  1.0000
  H   H205      1.0  0.37380  0.49502  0.31191  1.0000
  C   C204      1.0  0.40290  0.00781  0.22299  1.0000
  H   H206      1.0  0.48554  0.16727  0.27400  1.0000
  H   H207      1.0  0.44953  0.03327  0.49325  1.0000
  C   C205      1.0  0.37764  0.00133  0.26170  1.0000
  H   H208      1.0  0.49524  0.12739  0.08843  1.0000
  H   H209      1.0  0.26887  0.49710  0.22078  1.0000
  C   C206      1.0  0.39598  0.47415  0.79600  1.0000
  C   C207      1.0  0.40575  0.01014  0.54342  1.0000
  H   H210      1.0  0.38191  0.41560  0.55081  1.0000
  H   H211      1.0  0.35194  0.38050  0.63188  1.0000
  S   S72       1.0  0.47989  0.20453  0.83992  1.0000
  C   C208      1.0  0.37597  0.44699  0.64574  1.0000
  Fe  Fe37      1.0  0.42301  0.02268  0.69472  1.0000
  S   S73       1.0  0.43926  0.05592  0.70235  1.0000
  S   S74       1.0  0.43460  0.01058  0.65411  1.0000
  H   H212      1.0  0.42642  0.27579  0.78867  1.0000
  C   C209      1.0  0.42935  0.12690  0.85320  1.0000
  Fe  Fe38      1.0  0.47950  0.33649  0.83833  1.0000
  H   H213      1.0  0.47674  0.11805  0.76589  1.0000
  H   H214      1.0  0.46977  0.43259  0.76356  1.0000
  S   S75       1.0  0.47941  0.31010  0.86136  1.0000
  H   H215      1.0  0.46632  0.48036  0.57619  1.0000
  C   C210      1.0  0.36628  0.39602  0.58888  1.0000
  H   H216      1.0  0.37608  0.45851  0.62965  1.0000
  C   C211      1.0  0.48827  0.02519  0.74456  1.0000
  S   S76       1.0  0.42350  0.00196  0.73235  1.0000
  S   S77       1.0  0.45190  0.33782  0.82062  1.0000
  C   C212      1.0  0.47296  0.40513  0.79869  1.0000
  C   C213      1.0  0.48187  0.31490  0.72914  1.0000
  N   N18       1.0  0.43604  0.13414  0.82017  1.0000
  S   S78       1.0  0.48105  0.16169  0.88110  1.0000
  H   H217      1.0  0.46359  0.32842  0.71690  1.0000
  C   C214      1.0  0.47936  0.00400  0.66634  1.0000
  C   C215      1.0  0.45048  0.14783  0.75836  1.0000
  H   H218      1.0  0.46902  0.38601  0.83943  1.0000
  S   S79       1.0  0.46530  0.11077  0.83545  1.0000
  Fe  Fe39      1.0  0.42698  0.43250  0.63918  1.0000
  S   S80       1.0  0.42813  0.45421  0.67896  1.0000
  S   S81       1.0  0.42799  0.44455  0.58708  1.0000
  Fe  Fe40      1.0  0.42892  0.40513  0.69320  1.0000
  S   S82       1.0  0.42952  0.42480  0.73597  1.0000
  S   S83       1.0  0.43694  0.38024  0.69740  1.0000
  Fe  Fe41      1.0  0.40670  0.42893  0.70577  1.0000
  S   S84       1.0  0.37968  0.43077  0.72321  1.0000
  Fe  Fe42      1.0  0.45065  0.44844  0.70544  1.0000
  S   S85       1.0  0.47780  0.47205  0.73023  1.0000
  S   S86       1.0  0.40409  0.40707  0.66456  1.0000
  S   S87       1.0  0.45135  0.42882  0.66431  1.0000
  C   C216      1.0  0.42385  0.43389  0.54578  1.0000
  H   H219      1.0  0.41457  0.03393  0.51006  1.0000
  C   C217      1.0  0.41645  0.41384  0.53938  1.0000
  H   H220      1.0  0.43284  0.46150  0.52307  1.0000
  H   H221      1.0  0.41379  0.40431  0.55996  1.0000
  C   C218      1.0  0.40833  0.01831  0.51169  1.0000
  H   H222      1.0  0.39018  0.45249  0.65975  1.0000
  H   H223      1.0  0.44370  0.00888  0.53337  1.0000
  H   H224      1.0  0.38792  0.44506  0.58464  1.0000
  H   H225      1.0  0.42662  0.10572  0.79794  1.0000
  H   H226      1.0  0.45637  0.15317  0.73440  1.0000
  C   C219      1.0  0.35937  0.39458  0.62095  1.0000
  C   C220      1.0  0.44961  0.35213  0.78846  1.0000
  C   C221      1.0  0.43325  0.35554  0.78708  1.0000
  C   C222      1.0  0.42999  0.36547  0.76054  1.0000
  C   C223      1.0  0.44280  0.37164  0.73454  1.0000
  C   C224      1.0  0.45938  0.36855  0.73623  1.0000
  C   C225      1.0  0.46299  0.35920  0.76340  1.0000
  H   H227      1.0  0.42278  0.35008  0.80628  1.0000
  H   H228      1.0  0.41697  0.36736  0.75925  1.0000
  H   H229      1.0  0.46927  0.37310  0.71607  1.0000
  H   H230      1.0  0.47578  0.35692  0.76437  1.0000
  C   C226      1.0  0.37625  0.41427  0.57557  1.0000
  C   C227      1.0  0.44141  0.99851  0.51289  1.0000
  H   H231      1.0  0.44513  0.27675  0.81767  1.0000
  H   H232      1.0  0.40600  0.39048  0.50152  1.0000
  C   C228      1.0  0.42720  0.44599  0.51853  1.0000
  C   C229      1.0  0.46570  0.49085  0.62615  1.0000
  H   H233      1.0  0.49409  0.27884  0.95774  1.0000
  H   H234      1.0  0.46096  0.17645  0.78198  1.0000
  H   H235      1.0  0.46799  0.00774  0.65974  1.0000
  H   H236      1.0  0.47303  0.28227  0.78930  1.0000
  C   C230      1.0  0.37865  0.47530  0.80154  1.0000
  C   C231      1.0  0.36192  0.46310  0.78222  1.0000
  C   C232      1.0  0.36250  0.44966  0.75825  1.0000
  C   C233      1.0  0.37981  0.44839  0.75298  1.0000
  C   C234      1.0  0.39662  0.46090  0.77177  1.0000
  C   C235      1.0  0.24898  0.48410  0.86447  1.0000
  H   H237      1.0  0.34845  0.46370  0.78626  1.0000
  H   H238      1.0  0.34937  0.44001  0.74401  1.0000
  H   H239      1.0  0.41003  0.46009  0.76819  1.0000
  C   C236      1.0  0.26906  0.49655  0.86804  1.0000
  N   N19       1.0  0.37226  0.42935  0.62590  1.0000
  C   C237      1.0  0.45303  0.16087  0.78498  1.0000
  H   H240      1.0  0.41006  0.01945  0.56587  1.0000
  C   C238      1.0  0.47673  0.04606  0.71624  1.0000
  C   C239      1.0  0.43356  0.12125  0.79423  1.0000
  C   C240      1.0  0.47910  0.39570  0.82211  1.0000
  C   C241      1.0  0.44722  0.07061  0.74003  1.0000
  C   C242      1.0  0.44044  0.06323  0.77110  1.0000
  C   C243      1.0  0.44643  0.07567  0.80006  1.0000
  C   C244      1.0  0.45953  0.09553  0.79850  1.0000
  C   C245      1.0  0.46670  0.10281  0.76756  1.0000
  C   C246      1.0  0.46044  0.09045  0.73850  1.0000
  H   H241      1.0  0.43020  0.04805  0.77272  1.0000
  H   H242      1.0  0.44072  0.06986  0.82382  1.0000
  H   H243      1.0  0.29016  0.46880  0.97204  1.0000
  H   H244      1.0  0.46577  0.09632  0.71459  1.0000
  H   H245      1.0  0.48242  0.46412  0.66081  1.0000
  H   H246      1.0  0.44820  0.16402  0.83665  1.0000
  H   H247      1.0  0.48035  0.26839  0.84668  1.0000
  C   C247      1.0  0.37941  0.43090  0.59473  1.0000
  H   H248      1.0  0.45798  0.40266  0.79811  1.0000
  H   H249      1.0  0.36466  0.44401  0.66430  1.0000
  C   C248      1.0  0.36252  0.41150  0.63925  1.0000
  S   S88       1.0  0.28572  0.48690  0.86174  1.0000
  C   C249      1.0  0.48059  0.24048  0.84403  1.0000
  H   H250      1.0  0.49255  0.32266  0.71103  1.0000
  H   H251      1.0  0.44088  0.12489  0.86721  1.0000
  H   H252      1.0  0.46716  0.23312  0.85666  1.0000
  C   C250      1.0  0.44575  0.15374  0.81593  1.0000
  Fe  Fe43      1.0  0.48753  0.14269  0.84494  1.0000
  H   H253      1.0  0.45128  0.47943  0.62996  1.0000
  H   H254      1.0  0.43876  0.29633  0.81790  1.0000
  H   H255      1.0  0.48200  0.06206  0.71802  1.0000
  C   C251      1.0  0.48813  0.15471  0.98792  1.0000
  S   S89       1.0  0.39159  0.00345  0.67784  1.0000
  N   N20       1.0  0.48553  0.41698  0.77634  1.0000
  H   H256      1.0  0.43894  0.11754  0.74269  1.0000
  H   H257      1.0  0.46948  0.41550  0.73159  1.0000
  C   C252      1.0  0.44065  0.12787  0.76294  1.0000
  H   H258      1.0  0.42585  0.13720  0.86786  1.0000
  H   H259      1.0  0.49069  0.43856  0.73996  1.0000
  H   H260      1.0  0.41608  0.11268  0.85102  1.0000
  H   H261      1.0  0.35742  0.41029  0.66442  1.0000
  N   N21       1.0  0.45498  0.29565  0.77660  1.0000
  C   C253      1.0  0.45231  0.30836  0.75648  1.0000
  C   C254      1.0  0.47074  0.29224  0.77330  1.0000
  C   C255      1.0  0.46567  0.31815  0.73244  1.0000
  C   C256      1.0  0.48442  0.30183  0.74961  1.0000
  H   H262      1.0  0.47127  0.04075  0.69019  1.0000
  C   C257      1.0  0.44062  0.28556  0.80139  1.0000
  H   H263      1.0  0.43996  0.31128  0.75943  1.0000
  S   S90       1.0  0.49245  0.31796  0.95355  1.0000
  H   H264      1.0  0.48261  0.14765  0.96356  1.0000
  H   H265      1.0  0.36420  0.38307  0.57451  1.0000
  H   H266      1.0  0.40900  0.48340  0.81087  1.0000
  C   C258      1.0  0.48800  0.26048  0.83827  1.0000
  C   C259      1.0  0.47417  0.49144  0.59576  1.0000
  C   C260      1.0  0.47857  0.42632  0.75162  1.0000
  C   C261      1.0  0.41202  0.40603  0.50617  1.0000
  H   H267      1.0  0.46429  0.03962  0.73280  1.0000
  H   H268      1.0  0.47363  0.01622  0.75229  1.0000
  C   C262      1.0  0.49039  0.22992  0.83354  1.0000
  H   H269      1.0  0.24982  0.49289  0.79527  1.0000
  C   C263      1.0  0.29623  0.48380  0.98138  1.0000
  N   N22       1.0  0.49222  0.04098  0.72575  1.0000
  H   H270      1.0  0.49064  0.24524  0.95384  1.0000
  S   S91       1.0  0.37882  0.49189  0.83347  1.0000
  S   S92       1.0  0.33831  0.49525  0.89400  1.0000
  H   H271      1.0  0.30211  0.49554  0.93242  1.0000
  H   H272      1.0  0.49348  0.22089  0.91272  1.0000
  S   S93       1.0  0.47870  0.67897  0.11635  1.0000
  C   C264      1.0  0.32941  0.81623  0.28628  1.0000
  Fe  Fe44      1.0  0.46495  0.64918  0.13697  1.0000
  S   S94       1.0  0.43507  0.62741  0.11671  1.0000
  C   C265      1.0  0.38765  0.99457  0.24106  1.0000
  C   C266      1.0  0.25208  0.56642  0.21362  1.0000
  H   H273      1.0  0.48929  0.53197  0.37333  1.0000
  S   S95       1.0  0.44265  0.82994  0.20505  1.0000
  C   C267      1.0  0.35969  0.53301  0.02946  1.0000
  H   H274      1.0  0.43957  0.50715  0.28100  1.0000
  S   S96       1.0  0.33807  0.52935  0.14411  1.0000
  C   C268      1.0  0.48750  0.76831  0.18121  1.0000
  S   S97       1.0  0.33328  0.52059  0.22360  1.0000
  Fe  Fe45      1.0  0.31314  0.51440  0.17799  1.0000
  H   H275      1.0  0.45514  0.87510  0.18874  1.0000
  Fe  Fe46      1.0  0.35781  0.53284  0.18873  1.0000
  S   S98       1.0  0.38627  0.55757  0.20815  1.0000
  C   C269      1.0  0.30402  0.85227  0.25662  1.0000
  Fe  Fe47      1.0  0.31709  0.84062  0.11855  1.0000
  S   S99       1.0  0.31661  0.81142  0.11876  1.0000
  S   S100      1.0  0.30373  0.84612  0.07159  1.0000
  Fe  Fe48      1.0  0.33793  0.85359  0.18755  1.0000
  S   S101      1.0  0.33854  0.82483  0.19230  1.0000
  S   S102      1.0  0.35657  0.87527  0.22970  1.0000
  Fe  Fe49      1.0  0.34729  0.82798  0.13929  1.0000
  S   S103      1.0  0.37147  0.82429  0.11515  1.0000
  Fe  Fe50      1.0  0.30751  0.81061  0.17147  1.0000
  S   S104      1.0  0.28633  0.78251  0.19494  1.0000
  S   S105      1.0  0.34847  0.85734  0.13532  1.0000
  S   S106      1.0  0.30610  0.83913  0.17070  1.0000
  S   S107      1.0  0.40246  0.97365  0.38055  1.0000
  S   S108      1.0  0.36656  0.95574  0.29622  1.0000
  C   C270      1.0  0.35942  0.89806  0.24641  1.0000
  C   C271      1.0  0.37459  0.90836  0.27038  1.0000
  C   C272      1.0  0.37718  0.92615  0.28535  1.0000
  C   C273      1.0  0.36440  0.93376  0.27694  1.0000
  C   C274      1.0  0.34920  0.92346  0.25294  1.0000
  C   C275      1.0  0.34679  0.90579  0.23756  1.0000
  H   H276      1.0  0.38443  0.90254  0.27755  1.0000
  H   H277      1.0  0.38889  0.93382  0.30383  1.0000
  H   H278      1.0  0.33921  0.92918  0.24623  1.0000
  H   H279      1.0  0.33508  0.89813  0.21912  1.0000
  C   C276      1.0  0.47447  0.50706  0.33943  1.0000
  C   C277      1.0  0.26167  0.76624  0.18298  1.0000
  H   H280      1.0  0.26171  0.74314  0.21199  1.0000
  C   C278      1.0  0.26476  0.51355  0.18158  1.0000
  C   C279      1.0  0.30868  0.84887  0.00396  1.0000
  C   C280      1.0  0.44399  0.59806  0.01666  1.0000
  C   C281      1.0  0.42231  0.82662  0.17970  1.0000
  C   C282      1.0  0.40527  0.82428  0.19467  1.0000
  C   C283      1.0  0.38935  0.82304  0.17507  1.0000
  C   C284      1.0  0.39038  0.82405  0.14036  1.0000
  C   C285      1.0  0.40720  0.82581  0.12534  1.0000
  C   C286      1.0  0.42318  0.82722  0.14494  1.0000
  H   H281      1.0  0.40450  0.82367  0.22153  1.0000
  H   H282      1.0  0.37633  0.82135  0.18682  1.0000
  H   H283      1.0  0.40803  0.82649  0.09850  1.0000
  H   H284      1.0  0.43625  0.82901  0.13321  1.0000
  C   C287      1.0  0.42183  0.60777  0.14185  1.0000
  C   C288      1.0  0.42971  0.60575  0.17244  1.0000
  C   C289      1.0  0.41862  0.59029  0.19256  1.0000
  C   C290      1.0  0.39973  0.57663  0.18202  1.0000
  C   C291      1.0  0.39189  0.57860  0.15131  1.0000
  C   C292      1.0  0.40287  0.59424  0.13141  1.0000
  H   H285      1.0  0.44433  0.61609  0.18064  1.0000
  H   H286      1.0  0.42476  0.58883  0.21630  1.0000
  H   H287      1.0  0.37728  0.56822  0.14314  1.0000
  H   H288      1.0  0.39661  0.59592  0.10799  1.0000
  C   C293      1.0  0.25138  0.55101  0.23189  1.0000
  C   C294      1.0  0.48236  0.74937  0.19187  1.0000
  H   H289      1.0  0.36610  0.54863  0.03323  1.0000
  H   H290      1.0  0.48143  0.77700  0.19276  1.0000
  H   H291      1.0  0.44422  0.69878  0.16722  1.0000
  C   C295      1.0  0.39463  0.98629  0.48470  1.0000
  C   C296      1.0  0.42714  0.87468  0.12149  1.0000
  H   H292      1.0  0.44855  0.68538  0.22023  1.0000
  C   C297      1.0  0.32944  0.84746  0.28622  1.0000
  C   C298      1.0  0.48773  0.65952  0.03196  1.0000
  H   H293      1.0  0.35628  0.52781  0.08201  1.0000
  N   N23       1.0  0.31238  0.83958  0.26738  1.0000
  H   H294      1.0  0.39016  0.88188  0.18483  1.0000
  C   C299      1.0  0.31780  0.85175  0.03586  1.0000
  C   C300      1.0  0.33788  0.85838  0.03873  1.0000
  S   S109      1.0  0.48509  0.86099  0.06415  1.0000
  H   H295      1.0  0.34510  0.86082  0.06310  1.0000
  H   H296      1.0  0.46075  0.64335  0.00359  1.0000
  H   H297      1.0  0.30494  0.79295  0.25963  1.0000
  C   C301      1.0  0.28141  0.79909  0.00486  1.0000
  C   C302      1.0  0.34874  0.86204  0.00999  1.0000
  H   H298      1.0  0.48568  0.57594  0.21149  1.0000
  C   C303      1.0  0.43830  0.67563  0.20106  1.0000
  C   C304      1.0  0.33359  0.81285  0.02652  1.0000
  H   H299      1.0  0.28966  0.84399  0.24318  1.0000
  S   S110      1.0  0.47333  0.66054  0.18985  1.0000
  H   H300      1.0  0.35209  0.84246  0.30984  1.0000
  C   C305      1.0  0.44248  0.99144  0.45525  1.0000
  H   H301      1.0  0.38038  0.85583  0.17919  1.0000
  H   H302      1.0  0.26328  0.57312  0.19580  1.0000
  H   H303      1.0  0.33413  0.82070  0.05045  1.0000
  N   N24       1.0  0.42547  0.58525  0.02400  1.0000
  H   H304      1.0  0.40534  0.57737  0.06283  1.0000
  H   H305      1.0  0.26192  0.54556  0.22824  1.0000
  C   C306      1.0  0.38825  0.49776  0.30502  1.0000
  H   H306      1.0  0.29923  0.80609  0.05000  1.0000
  H   H307      1.0  0.39794  0.87093  0.12398  1.0000
  H   H308      1.0  0.33665  0.86291  0.29298  1.0000
  C   C307      1.0  0.39308  0.86927  0.18912  1.0000
  C   C308      1.0  0.25897  0.50170  0.20901  1.0000
  C   C309      1.0  0.47401  0.49926  0.30740  1.0000
  H   H309      1.0  0.25654  0.78608  0.15242  1.0000
  C   C310      1.0  0.38688  0.51918  0.26201  1.0000
  C   C311      1.0  0.33828  0.83597  0.29575  1.0000
  H   H310      1.0  0.39148  0.52227  0.23591  1.0000
  H   H311      1.0  0.44576  0.65771  0.24933  1.0000
  H   H312      1.0  0.26853  0.79707  0.01769  1.0000
  S   S111      1.0  0.45281  0.97478  0.37146  1.0000
  H   H313      1.0  0.43123  0.63375  0.23181  1.0000
  C   C312      1.0  0.47736  0.99185  0.37672  1.0000
  Fe  Fe51      1.0  0.43222  0.98727  0.36029  1.0000
  H   H314      1.0  0.43184  0.96124  0.44004  1.0000
  H   H315      1.0  0.31901  0.52564  0.07100  1.0000
  H   H316      1.0  0.39023  0.97696  0.46229  1.0000
  N   N25       1.0  0.30559  0.50721  0.02754  1.0000
  H   H317      1.0  0.39433  0.86801  0.21652  1.0000
  C   C313      1.0  0.47633  0.65164  0.00239  1.0000
  H   H318      1.0  0.33619  0.80716  0.29307  1.0000
  H   H319      1.0  0.25602  0.52867  0.14561  1.0000
  Fe  Fe52      1.0  0.47032  0.83718  0.17869  1.0000
  S   S112      1.0  0.42200  0.98851  0.30805  1.0000
  H   H320      1.0  0.36429  0.86734  0.01246  1.0000
  C   C314      1.0  0.48861  0.50956  0.28546  1.0000
  H   H321      1.0  0.42167  0.67664  0.12211  1.0000
  H   H322      1.0  0.42988  0.59318  0.07614  1.0000
  C   C315      1.0  0.41280  0.65111  0.15109  1.0000
  C   C316      1.0  0.30356  0.82021  0.25799  1.0000
  H   H323      1.0  0.49374  0.97525  0.29832  1.0000
  C   C317      1.0  0.44333  0.87587  0.13969  1.0000
  C   C318      1.0  0.41553  0.64390  0.18139  1.0000
  H   H324      1.0  0.34634  0.82279  0.01271  1.0000
  C   C319      1.0  0.31188  0.80825  0.26750  1.0000
  S   S113      1.0  0.28834  0.52209  0.16568  1.0000
  N   N26       1.0  0.42848  0.65607  0.20558  1.0000
  Fe  Fe53      1.0  0.49110  0.85232  0.11515  1.0000
  C   C320      1.0  0.29888  0.80423  0.02307  1.0000
  H   H325      1.0  0.47230  0.74364  0.21160  1.0000
  Fe  Fe54      1.0  0.39259  0.97741  0.32885  1.0000
  H   H326      1.0  0.48093  0.65707  0.05569  1.0000
  H   H327      1.0  0.29018  0.81389  0.24261  1.0000
  C   C321      1.0  0.43775  0.83601  0.01586  1.0000
  H   H328      1.0  0.42707  0.87488  0.09447  1.0000
  C   C322      1.0  0.44295  0.87494  0.17438  1.0000
  H   H329      1.0  0.45594  0.87699  0.12689  1.0000
  C   C323      1.0  0.41075  0.87253  0.13832  1.0000
  N   N27       1.0  0.41054  0.87168  0.17235  1.0000
  C   C324      1.0  0.42635  0.87283  0.19041  1.0000
  H   H330      1.0  0.40323  0.64123  0.13138  1.0000
  H   H331      1.0  0.39006  0.53319  0.27524  1.0000
  H   H332      1.0  0.47001  0.98735  0.29320  1.0000
  H   H333      1.0  0.42602  0.87151  0.21726  1.0000
  Fe  Fe55      1.0  0.48940  0.69027  0.16886  1.0000
  C   C325      1.0  0.35397  0.52122  0.05716  1.0000
  H   H334      1.0  0.41977  0.64620  0.25401  1.0000
  C   C326      1.0  0.49024  0.73787  0.17743  1.0000
  H   H335      1.0  0.37089  0.50984  0.26051  1.0000
  C   C327      1.0  0.42065  0.58066  0.05881  1.0000
  N   N28       1.0  0.39691  0.50960  0.27940  1.0000
  H   H336      1.0  0.31392  0.86309  0.23948  1.0000
  S   S114      1.0  0.47228  0.82212  0.13140  1.0000
  C   C328      1.0  0.49164  0.98587  0.37132  1.0000
  H   H337      1.0  0.42279  0.56790  0.06554  1.0000
  C   C329      1.0  0.42322  0.67093  0.14583  1.0000
  H   H338      1.0  0.45504  0.60537  0.03647  1.0000
  H   H339      1.0  0.38371  0.97915  0.23943  1.0000
  H   H340      1.0  0.43412  0.83937  0.04031  1.0000
  H   H341      1.0  0.42315  0.94979  0.49770  1.0000
  C   C330      1.0  0.43590  0.68333  0.17107  1.0000
  H   H342      1.0  0.30761  0.50032  0.07839  1.0000
  S   S115      1.0  0.48399  0.71447  0.19295  1.0000
  C   C331      1.0  0.43447  0.97156  0.46081  1.0000
  S   S116      1.0  0.35875  0.50462  0.17826  1.0000
  C   C332      1.0  0.43140  0.64806  0.23681  1.0000
  Fe  Fe56      1.0  0.33686  0.50000  0.13668  1.0000
  H   H343      1.0  0.40765  0.62840  0.18500  1.0000
  C   C333      1.0  0.25024  0.77173  0.16240  1.0000
  H   H344      1.0  0.30210  0.86020  0.27854  1.0000
  C   C334      1.0  0.42508  0.50437  0.28768  1.0000
  C   C335      1.0  0.42976  0.96519  0.49309  1.0000
  H   H345      1.0  0.42228  0.52294  0.25119  1.0000
  C   C336      1.0  0.41522  0.51321  0.27097  1.0000
  H   H346      1.0  0.45434  0.82241  0.03577  1.0000
  C   C337      1.0  0.25166  0.51942  0.16672  1.0000
  N   N29       1.0  0.31544  0.80768  0.00706  1.0000
  H   H347      1.0  0.31875  0.53705  0.01514  1.0000
  H   H348      1.0  0.48748  0.97072  0.36534  1.0000
  S   S117      1.0  0.49068  0.64367  0.13099  1.0000
  C   C338      1.0  0.48903  0.52567  0.34880  1.0000
  H   H349      1.0  0.39711  0.56536  0.00460  1.0000
  S   S118      1.0  0.48692  0.86735  0.16070  1.0000
  H   H350      1.0  0.48285  0.69344  0.00271  1.0000
  C   C339      1.0  0.25307  0.74755  0.19595  1.0000
  H   H351      1.0  0.33498  0.79954  0.03224  1.0000
  C   C340      1.0  0.34525  0.50097  0.05259  1.0000
  H   H352      1.0  0.48850  0.50317  0.26107  1.0000
  C   C341      1.0  0.30623  0.51162  0.06350  1.0000
  H   H353      1.0  0.36591  0.99119  0.27611  1.0000
  C   C342      1.0  0.44920  0.82636  0.01312  1.0000
  H   H354      1.0  0.44604  0.99623  0.43010  1.0000
  H   H355      1.0  0.47585  0.81519  0.00323  1.0000
  H   H356      1.0  0.49473  0.50887  0.41647  1.0000
  H   H357      1.0  0.29282  0.51245  0.07036  1.0000
  C   C343      1.0  0.31220  0.52203  0.00585  1.0000
  H   H358      1.0  0.29317  0.84386  0.00154  1.0000
  Fe  Fe57      1.0  0.46586  0.64810  0.81294  1.0000
  S   S119      1.0  0.47709  0.63103  0.84300  1.0000
  S   S120      1.0  0.43974  0.63512  0.77716  1.0000
  H   H359      1.0  0.25859  0.54328  0.80518  1.0000
  C   C344      1.0  0.27298  0.80971  0.75677  1.0000
  S   S121      1.0  0.46785  0.66871  0.85485  1.0000
  S   S122      1.0  0.45336  0.97662  0.70555  1.0000
  Fe  Fe58      1.0  0.47439  0.84242  0.85534  1.0000
  C   C345      1.0  0.47314  0.74299  0.83789  1.0000
  S   S123      1.0  0.45281  0.85318  0.86921  1.0000
  S   S124      1.0  0.33699  0.50960  0.81800  1.0000
  C   C346      1.0  0.44390  0.70841  0.76727  1.0000
  S   S125      1.0  0.47964  0.82104  0.88528  1.0000
  Fe  Fe59      1.0  0.30448  0.81759  0.85484  1.0000
  S   S126      1.0  0.31409  0.84966  0.86557  1.0000
  S   S127      1.0  0.27341  0.79709  0.86861  1.0000
  Fe  Fe60      1.0  0.34567  0.82541  0.83692  1.0000
  S   S128      1.0  0.35814  0.85750  0.84721  1.0000
  S   S129      1.0  0.36431  0.81196  0.81837  1.0000
  Fe  Fe61      1.0  0.33988  0.84936  0.89233  1.0000
  S   S130      1.0  0.35380  0.86301  0.94280  1.0000
  Fe  Fe62      1.0  0.33157  0.85510  0.81942  1.0000
  S   S131      1.0  0.33444  0.87347  0.77413  1.0000
  S   S132      1.0  0.32959  0.81736  0.88418  1.0000
  S   S133      1.0  0.31971  0.82299  0.80640  1.0000
  Fe  Fe63      1.0  0.39311  0.98159  0.71318  1.0000
  S   S134      1.0  0.37366  0.96516  0.75513  1.0000
  S   S135      1.0  0.40247  0.96705  0.67383  1.0000
  Fe  Fe64      1.0  0.35300  0.54018  0.83977  1.0000
  S   S136      1.0  0.37490  0.53484  0.86912  1.0000
  S   S137      1.0  0.35842  0.56416  0.80451  1.0000
  C   C347      1.0  0.31948  0.85200  0.97511  1.0000
  Fe  Fe65      1.0  0.35391  0.52685  0.91028  1.0000
  H   H360      1.0  0.27434  0.77145  0.81374  1.0000
  S   S138      1.0  0.33335  0.53510  0.88230  1.0000
  H   H361      1.0  0.46958  0.50381  0.67556  1.0000
  S   S139      1.0  0.47921  0.83098  0.80629  1.0000
  C   C348      1.0  0.47580  0.98863  0.68715  1.0000
  C   C349      1.0  0.35682  0.52466  0.99701  1.0000
  C   C350      1.0  0.27530  0.51639  0.87487  1.0000
  C   C351      1.0  0.43136  0.55522  0.80229  1.0000
  N   N30       1.0  0.43171  0.57039  0.78489  1.0000
  C   C352      1.0  0.41399  0.53819  0.80487  1.0000
  C   C353      1.0  0.45011  0.58800  0.78190  1.0000
  H   H362      1.0  0.40873  0.95794  0.74198  1.0000
  H   H363      1.0  0.31230  0.84950  0.95062  1.0000
  H   H364      1.0  0.42923  0.96020  0.76763  1.0000
  C   C354      1.0  0.34590  0.89908  0.76995  1.0000
  C   C355      1.0  0.34928  0.91217  0.79701  1.0000
  C   C356      1.0  0.35773  0.93234  0.79204  1.0000
  C   C357      1.0  0.36331  0.93967  0.76021  1.0000
  C   C358      1.0  0.36023  0.92657  0.73332  1.0000
  C   C359      1.0  0.35131  0.90640  0.73811  1.0000
  H   H365      1.0  0.34505  0.90678  0.82161  1.0000
  H   H366      1.0  0.35991  0.94235  0.81296  1.0000
  H   H367      1.0  0.36423  0.93196  0.70864  1.0000
  H   H368      1.0  0.34862  0.89641  0.71694  1.0000
  C   C360      1.0  0.46105  0.72535  0.76253  1.0000
  C   C361      1.0  0.39696  0.53670  0.78939  1.0000
  C   C362      1.0  0.46232  0.69029  0.76873  1.0000
  C   C363      1.0  0.44894  0.60207  0.98348  1.0000
  C   C364      1.0  0.30630  0.55406  0.80984  1.0000
  H   H369      1.0  0.42933  0.97397  0.54452  1.0000
  S   S140      1.0  0.36356  0.53996  0.96286  1.0000
  Fe  Fe66      1.0  0.48157  0.65331  0.88401  1.0000
  H   H370      1.0  0.42257  0.84914  0.98870  1.0000
  C   C365      1.0  0.42829  0.84120  0.85487  1.0000
  C   C366      1.0  0.42132  0.82529  0.83200  1.0000
  C   C367      1.0  0.40163  0.81634  0.82095  1.0000
  C   C368      1.0  0.38887  0.82319  0.83286  1.0000
  C   C369      1.0  0.39590  0.83896  0.85601  1.0000
  C   C370      1.0  0.41555  0.84800  0.86678  1.0000
  H   H371      1.0  0.43102  0.81988  0.82278  1.0000
  H   H372      1.0  0.39623  0.80407  0.80317  1.0000
  H   H373      1.0  0.38617  0.84413  0.86583  1.0000
  H   H374      1.0  0.42085  0.86027  0.88455  1.0000
  H   H375      1.0  0.27632  0.86922  0.79779  1.0000
  H   H376      1.0  0.45753  0.73748  0.83688  1.0000
  C   C371      1.0  0.41742  0.61599  0.78797  1.0000
  C   C372      1.0  0.41532  0.60528  0.81671  1.0000
  C   C373      1.0  0.39727  0.58923  0.82255  1.0000
  C   C374      1.0  0.38135  0.58417  0.79986  1.0000
  C   C375      1.0  0.38357  0.59513  0.77167  1.0000
  C   C376      1.0  0.40147  0.61079  0.76564  1.0000
  H   H377      1.0  0.42760  0.60920  0.83413  1.0000
  H   H378      1.0  0.39565  0.58085  0.84448  1.0000
  H   H379      1.0  0.37139  0.59137  0.75407  1.0000
  H   H380      1.0  0.40296  0.61891  0.74339  1.0000
  H   H381      1.0  0.32062  0.56608  0.81554  1.0000
  C   C377      1.0  0.27062  0.82736  0.80548  1.0000
  C   C378      1.0  0.47923  0.70751  0.76435  1.0000
  C   C379      1.0  0.48509  0.69692  0.94987  1.0000
  H   H382      1.0  0.47648  0.81789  0.95934  1.0000
  H   H383      1.0  0.48803  0.97182  0.71129  1.0000
  H   H384      1.0  0.38485  0.96247  0.51804  1.0000
  N   N31       1.0  0.28133  0.84461  0.79085  1.0000
  C   C380      1.0  0.30444  0.53568  0.80129  1.0000
  H   H385      1.0  0.28929  0.82763  0.71733  1.0000
  H   H386      1.0  0.29064  0.52617  0.87789  1.0000
  C   C381      1.0  0.28372  0.82736  0.74191  1.0000
  C   C382      1.0  0.43656  0.83743  0.95586  1.0000
  H   H387      1.0  0.32807  0.80828  0.96026  1.0000
  H   H388      1.0  0.46041  0.88903  0.81770  1.0000
  H   H389      1.0  0.29098  0.57103  0.81805  1.0000
  H   H390      1.0  0.47172  0.71444  0.84143  1.0000
  H   H391      1.0  0.43176  0.84170  0.93318  1.0000
  C   C383      1.0  0.47096  0.87361  0.78558  1.0000
  H   H392      1.0  0.49303  0.70706  0.76391  1.0000
  Fe  Fe67      1.0  0.40359  0.99023  0.63933  1.0000
  S   S141      1.0  0.46990  0.64429  0.93509  1.0000
  H   H393      1.0  0.43844  0.59663  0.93207  1.0000
  C   C384      1.0  0.44811  0.82786  0.95407  1.0000
  C   C385      1.0  0.49229  0.70124  0.98307  1.0000
  C   C386      1.0  0.33957  0.85866  0.97810  1.0000
  C   C387      1.0  0.26615  0.80969  0.78855  1.0000
  H   H394      1.0  0.44453  0.55625  0.81442  1.0000
  S   S142      1.0  0.47423  0.77841  0.82607  1.0000
  H   H395      1.0  0.47035  0.68582  0.94393  1.0000
  H   H396      1.0  0.26747  0.79319  0.95546  1.0000
  C   C388      1.0  0.48151  0.87451  0.75750  1.0000
  H   H397      1.0  0.30116  0.87376  0.80583  1.0000
  C   C389      1.0  0.48492  0.65460  0.97139  1.0000
  C   C390      1.0  0.44459  0.69077  0.77035  1.0000
  C   C391      1.0  0.28752  0.84475  0.75922  1.0000
  H   H398      1.0  0.45757  0.58648  0.75962  1.0000
  H   H399      1.0  0.43146  0.67746  0.77413  1.0000
  C   C392      1.0  0.41166  0.57590  0.99892  1.0000
  C   C393      1.0  0.46647  0.81251  0.98016  1.0000
  H   H400      1.0  0.27004  0.79608  0.74386  1.0000
  H   H401      1.0  0.26564  0.82708  0.83059  1.0000
  H   H402      1.0  0.48220  0.86795  0.99483  1.0000
  C   C394      1.0  0.28972  0.55683  0.81111  1.0000
  C   C395      1.0  0.25739  0.77275  0.85440  1.0000
  H   H403      1.0  0.44768  0.60105  0.77950  1.0000
  C   C396      1.0  0.28084  0.79703  0.97012  1.0000
  Fe  Fe68      1.0  0.48732  0.81129  0.83707  1.0000
  H   H404      1.0  0.29586  0.85843  0.74748  1.0000
  H   H405      1.0  0.28339  0.86135  0.83560  1.0000
  H   H406      1.0  0.46292  0.67663  0.77104  1.0000
  C   C397      1.0  0.49071  0.98373  0.69522  1.0000
  H   H407      1.0  0.25771  0.79607  0.80030  1.0000
  H   H408      1.0  0.45207  0.82481  0.92972  1.0000
  H   H409      1.0  0.46364  0.61221  0.97766  1.0000
  C   C398      1.0  0.48509  0.76307  0.83548  1.0000
  C   C399      1.0  0.28568  0.86311  0.80841  1.0000
  Fe  Fe69      1.0  0.43256  0.98842  0.69101  1.0000
  C   C400      1.0  0.39749  0.55211  0.77134  1.0000
  C   C401      1.0  0.41603  0.57985  0.96550  1.0000
  H   H410      1.0  0.41542  0.58079  0.75493  1.0000
  N   N32       1.0  0.40387  0.93319  0.76971  1.0000
  C   C402      1.0  0.40145  0.92122  0.74238  1.0000
  C   C403      1.0  0.39819  0.92562  0.80027  1.0000
  C   C404      1.0  0.39256  0.90101  0.74506  1.0000
  C   C405      1.0  0.38937  0.90549  0.80388  1.0000
  C   C406      1.0  0.38642  0.89313  0.77602  1.0000
  C   C407      1.0  0.41319  0.95429  0.76629  1.0000
  H   H411      1.0  0.40598  0.92730  0.71818  1.0000
  H   H412      1.0  0.39993  0.93509  0.82185  1.0000
  H   H413      1.0  0.38999  0.89149  0.72316  1.0000
  H   H414      1.0  0.38426  0.89948  0.82789  1.0000
  H   H415      1.0  0.37892  0.87746  0.77829  1.0000
  H   H416      1.0  0.40865  0.96172  0.78572  1.0000
  C   C408      1.0  0.49493  0.92505  0.73074  1.0000
  H   H417      1.0  0.28466  0.50588  0.78841  1.0000
  N   N33       1.0  0.26978  0.52306  0.79562  1.0000
  C   C409      1.0  0.27146  0.54110  0.80363  1.0000
  C   C410      1.0  0.26168  0.52375  0.87655  1.0000
  C   C411      1.0  0.39155  0.97811  0.51641  1.0000
  C   C412      1.0  0.47609  0.50478  0.65164  1.0000
  C   C413      1.0  0.43479  0.59315  0.95781  1.0000
  C   C414      1.0  0.29766  0.80011  0.95410  1.0000
  C   C415      1.0  0.48115  0.72988  0.84052  1.0000
  H   H418      1.0  0.47471  0.91906  0.78539  1.0000
  S   S143      1.0  0.39377  0.97863  0.58513  1.0000
  C   C416      1.0  0.39726  0.98994  0.54598  1.0000
  H   H419      1.0  0.26673  0.53921  0.88084  1.0000
  H   H420      1.0  0.40487  0.57256  0.94580  1.0000
  H   H421      1.0  0.45990  0.59082  0.80442  1.0000
  H   H422      1.0  0.43021  0.70901  0.76884  1.0000
  Fe  Fe70      1.0  0.35785  0.50359  0.85005  1.0000
  H   H423      1.0  0.31726  0.53345  0.80030  1.0000
  H   H424      1.0  0.29724  0.79845  0.92712  1.0000
  H   H425      1.0  0.38336  0.52362  0.79154  1.0000
  H   H426      1.0  0.41365  0.52620  0.81891  1.0000
  C   C417      1.0  0.28597  0.52023  0.79426  1.0000
  C   C418      1.0  0.43141  0.84158  0.98699  1.0000
  N   N34       1.0  0.47844  0.72476  0.76154  1.0000
  C   C419      1.0  0.47664  0.90657  0.77738  1.0000
  H   H427      1.0  0.34625  0.49784  0.96763  1.0000
  C   C420      1.0  0.41515  0.56885  0.76896  1.0000
  H   H428      1.0  0.38424  0.55122  0.75975  1.0000
  C   C421      1.0  0.26099  0.76384  0.82649  1.0000
  C   C422      1.0  0.31496  0.80552  0.97302  1.0000
  H   H429      1.0  0.46047  0.73908  0.76073  1.0000
  H   H430      1.0  0.45708  0.79665  0.97605  1.0000
  C   C423      1.0  0.46852  0.88971  0.79569  1.0000
  Fe  Fe71      1.0  0.31882  0.50412  0.86331  1.0000
  H   H431      1.0  0.49185  0.70346  0.89853  1.0000
  H   H432      1.0  0.46469  0.86049  0.79961  1.0000
  C   C424      1.0  0.24707  0.74514  0.81457  1.0000
  N   N35       1.0  0.45449  0.82268  0.98253  1.0000
  C   C425      1.0  0.43338  0.97874  0.51939  1.0000
  H   H433      1.0  0.24987  0.73852  0.79267  1.0000
  H   H434      1.0  0.48321  0.92607  0.71561  1.0000
  C   C426      1.0  0.31110  0.51806  0.97138  1.0000
  C   C427      1.0  0.48932  0.89154  0.73965  1.0000
  N   N36       1.0  0.48695  0.90734  0.74984  1.0000
  C   C428      1.0  0.30299  0.49882  0.95911  1.0000
  C   C429      1.0  0.34837  0.50442  0.99247  1.0000
  S   S144      1.0  0.49490  0.66824  0.79330  1.0000
  C   C430      1.0  0.25061  0.50685  0.78696  1.0000
  H   H435      1.0  0.48392  0.86222  0.74991  1.0000
  C   C431      1.0  0.49289  0.86265  0.99776  1.0000
  N   N37       1.0  0.49445  0.51901  0.64682  1.0000
  C   C432      1.0  0.49279  0.50613  0.59093  1.0000
  H   H436      1.0  0.31686  0.52986  0.95433  1.0000
  H   H437      1.0  0.24762  0.50577  0.75956  1.0000
  Fe  Fe72      1.0  0.67452  0.16055  0.13383  1.0000
  S   S145      1.0  0.67933  0.19129  0.12957  1.0000
  S   S146      1.0  0.68186  0.14333  0.09557  1.0000
  Fe  Fe73      1.0  0.65755  0.15543  0.20266  1.0000
  S   S147      1.0  0.66148  0.18620  0.20377  1.0000
  S   S148      1.0  0.64243  0.13800  0.24780  1.0000
  Fe  Fe74      1.0  0.64976  0.17991  0.15085  1.0000
  S   S149      1.0  0.62822  0.19008  0.13184  1.0000
  Fe  Fe75      1.0  0.69095  0.19540  0.18289  1.0000
  S   S150      1.0  0.71498  0.22371  0.20687  1.0000
  S   S151      1.0  0.64392  0.14871  0.15067  1.0000
  S   S152      1.0  0.68805  0.16506  0.18618  1.0000
  H   H438      1.0  0.53147  0.25866  0.22866  1.0000
  C   C433      1.0  0.51342  0.17991  0.02311  1.0000
  H   H439      1.0  0.65671  0.11466  0.34548  1.0000
  Fe  Fe76      1.0  0.56091  0.02431  0.36334  1.0000
  S   S153      1.0  0.56347  0.01705  0.30998  1.0000
  C   C434      1.0  0.58185  0.40258  0.09606  1.0000
  Fe  Fe77      1.0  0.59550  0.03106  0.32290  1.0000
  S   S154      1.0  0.61668  0.05003  0.28463  1.0000
  S   S155      1.0  0.59302  0.04039  0.37545  1.0000
  S   S156      1.0  0.66881  0.46911  0.14182  1.0000
  Fe  Fe78      1.0  0.64848  0.46571  0.18277  1.0000
  S   S157      1.0  0.63983  0.43882  0.21249  1.0000
  H   H440      1.0  0.50273  0.10950  0.07484  1.0000
  S   S158      1.0  0.54086  0.03695  0.37616  1.0000
  Fe  Fe79      1.0  0.53340  0.35532  0.20645  1.0000
  S   S159      1.0  0.55802  0.37011  0.24467  1.0000
  Fe  Fe80      1.0  0.51965  0.15571  0.17668  1.0000
  S   S160      1.0  0.51681  0.21816  0.20953  1.0000
  S   S161      1.0  0.54174  0.14412  0.17664  1.0000
  S   S162      1.0  0.51759  0.17799  0.14421  1.0000
  S   S163      1.0  0.51101  0.16627  0.22286  1.0000
  N   N38       1.0  0.50357  0.37053  0.30265  1.0000
  Fe  Fe81      1.0  0.51870  0.35360  0.13581  1.0000
  H   H441      1.0  0.65310  0.08150  0.33496  1.0000
  C   C435      1.0  0.50249  0.02512  0.38572  1.0000
  C   C436      1.0  0.61626  0.42127  0.22163  1.0000
  C   C437      1.0  0.59929  0.41927  0.20457  1.0000
  C   C438      1.0  0.58113  0.40352  0.21099  1.0000
  C   C439      1.0  0.57999  0.39019  0.23512  1.0000
  C   C440      1.0  0.59688  0.39273  0.25268  1.0000
  C   C441      1.0  0.61488  0.40794  0.24565  1.0000
  H   H442      1.0  0.60021  0.42956  0.18606  1.0000
  H   H443      1.0  0.56808  0.40179  0.19755  1.0000
  H   H444      1.0  0.59615  0.38262  0.27144  1.0000
  H   H445      1.0  0.62787  0.40937  0.25895  1.0000
  C   C442      1.0  0.51670  0.01928  0.37886  1.0000
  H   H446      1.0  0.56637  0.37554  0.11986  1.0000
  H   H447      1.0  0.52242  0.28430  0.21147  1.0000
  N   N39       1.0  0.59578  0.39086  0.13887  1.0000
  C   C443      1.0  0.63277  0.13524  0.02123  1.0000
  H   H448      1.0  0.62562  0.40908  0.15312  1.0000
  C   C444      1.0  0.60399  0.17707  0.14316  1.0000
  C   C445      1.0  0.59692  0.15814  0.15407  1.0000
  C   C446      1.0  0.57762  0.14808  0.16336  1.0000
  C   C447      1.0  0.56540  0.15701  0.16259  1.0000
  C   C448      1.0  0.57245  0.17600  0.15182  1.0000
  C   C449      1.0  0.59166  0.18590  0.14170  1.0000
  H   H449      1.0  0.60629  0.15120  0.15530  1.0000
  H   H450      1.0  0.57224  0.13340  0.17175  1.0000
  H   H451      1.0  0.56320  0.18310  0.15151  1.0000
  H   H452      1.0  0.59713  0.20062  0.13342  1.0000
  C   C450      1.0  0.63275  0.11264  0.25463  1.0000
  C   C451      1.0  0.62238  0.10533  0.28355  1.0000
  C   C452      1.0  0.61628  0.08585  0.29207  1.0000
  C   C453      1.0  0.62064  0.07345  0.27188  1.0000
  C   C454      1.0  0.63035  0.08057  0.24230  1.0000
  C   C455      1.0  0.63629  0.10000  0.23361  1.0000
  H   H453      1.0  0.61957  0.11495  0.30007  1.0000
  H   H454      1.0  0.60891  0.08066  0.31496  1.0000
  H   H455      1.0  0.63366  0.07110  0.22630  1.0000
  H   H456      1.0  0.64415  0.10534  0.21122  1.0000
  C   C456      1.0  0.59959  0.41920  0.09413  1.0000
  C   C457      1.0  0.68514  0.12981  0.03462  1.0000
  H   H457      1.0  0.52350  0.05411  0.30787  1.0000
  C   C458      1.0  0.66136  0.09282  0.31810  1.0000
  C   C459      1.0  0.51999  0.13691  0.03170  1.0000
  H   H458      1.0  0.67366  0.14026  0.30508  1.0000
  C   C460      1.0  0.66330  0.11155  0.32417  1.0000
  H   H459      1.0  0.56308  0.18190  0.07369  1.0000
  C   C461      1.0  0.51164  0.03959  0.30359  1.0000
  C   C462      1.0  0.53748  0.15492  0.08079  1.0000
  C   C463      1.0  0.68169  0.14386  0.05159  1.0000
  C   C464      1.0  0.67845  0.15746  0.03322  1.0000
  H   H460      1.0  0.57924  0.01312  0.48522  1.0000
  H   H461      1.0  0.67603  0.16855  0.04622  1.0000
  H   H462      1.0  0.51793  0.39850  0.32765  1.0000
  C   C465      1.0  0.72509  0.18144  0.00761  1.0000
  S   S164      1.0  0.62861  0.47289  0.15106  1.0000
  C   C466      1.0  0.62719  0.16736  0.03767  1.0000
  H   H463      1.0  0.51402  0.12448  0.11173  1.0000
  C   C467      1.0  0.73130  0.49397  0.19273  1.0000
  C   C468      1.0  0.52118  0.37210  0.28744  1.0000
  H   H464      1.0  0.60859  0.48435  0.05437  1.0000
  S   S165      1.0  0.59460  0.00260  0.33851  1.0000
  C   C469      1.0  0.50788  0.12436  0.08621  1.0000
  Fe  Fe82      1.0  0.50494  0.31603  0.17398  1.0000
  H   H465      1.0  0.59602  0.36406  0.14802  1.0000
  C   C470      1.0  0.49718  0.47365  0.34328  1.0000
  H   H466      1.0  0.52163  0.37671  0.26133  1.0000
  H   H467      1.0  0.53461  0.38278  0.30133  1.0000
  N   N40       1.0  0.60303  0.17431  0.23460  1.0000
  C   C471      1.0  0.60966  0.16088  0.23985  1.0000
  C   C472      1.0  0.58397  0.16965  0.23895  1.0000
  C   C473      1.0  0.59695  0.14202  0.24856  1.0000
  C   C474      1.0  0.57087  0.15094  0.24770  1.0000
  C   C475      1.0  0.57741  0.13702  0.25231  1.0000
  C   C476      1.0  0.61662  0.19394  0.22529  1.0000
  H   H468      1.0  0.62480  0.16458  0.23696  1.0000
  H   H469      1.0  0.57860  0.18019  0.23452  1.0000
  H   H470      1.0  0.60226  0.13134  0.25206  1.0000
  H   H471      1.0  0.55561  0.14710  0.24974  1.0000
  H   H472      1.0  0.56733  0.12236  0.25847  1.0000
  H   H473      1.0  0.60895  0.20145  0.21316  1.0000
  H   H474      1.0  0.62518  0.20271  0.24771  1.0000
  H   H475      1.0  0.62676  0.19335  0.20676  1.0000
  N   N41       1.0  0.66890  0.08861  0.29040  1.0000
  C   C477      1.0  0.67838  0.10265  0.26821  1.0000
  C   C478      1.0  0.68048  0.12150  0.27341  1.0000
  C   C479      1.0  0.51509  0.26989  0.19966  1.0000
  C   C480      1.0  0.66636  0.06884  0.28358  1.0000
  H   H476      1.0  0.68385  0.09916  0.24578  1.0000
  S   S166      1.0  0.66617  0.49624  0.20488  1.0000
  H   H477      1.0  0.65854  0.05888  0.30358  1.0000
  H   H478      1.0  0.65740  0.06263  0.26006  1.0000
  H   H479      1.0  0.68065  0.06893  0.28134  1.0000
  H   H480      1.0  0.50478  0.32752  0.07463  1.0000
  C   C481      1.0  0.53356  0.15070  0.01175  1.0000
  C   C482      1.0  0.52021  0.25529  0.20934  1.0000
  N   N42       1.0  0.52231  0.13893  0.06576  1.0000
  C   C483      1.0  0.73659  0.47132  0.11988  1.0000
  C   C484      1.0  0.60098  0.00311  0.48061  1.0000
  S   S167      1.0  0.50503  0.33153  0.22246  1.0000
  H   H481      1.0  0.50738  0.12480  0.01978  1.0000
  H   H482      1.0  0.53052  0.02638  0.29794  1.0000
  C   C485      1.0  0.72266  0.19763  0.01734  1.0000
  H   H483      1.0  0.56939  0.40056  0.08021  1.0000
  C   C486      1.0  0.67286  0.12593  0.30157  1.0000
  S   S168      1.0  0.52764  0.36914  0.08758  1.0000
  C   C487      1.0  0.51888  0.35470  0.05029  1.0000
  H   H484      1.0  0.72109  0.20038  0.04349  1.0000
  C   C488      1.0  0.71625  0.48456  0.09385  1.0000
  C   C489      1.0  0.49705  0.48294  0.37362  1.0000
  H   H485      1.0  0.53891  0.15681  0.10776  1.0000
  H   H486      1.0  0.63540  0.12290  0.01515  1.0000
  C   C490      1.0  0.63235  0.14030  0.05484  1.0000
  H   H487      1.0  0.62922  0.43440  0.11346  1.0000
  C   C491      1.0  0.50761  0.33456  0.05102  1.0000
  C   C492      1.0  0.73794  0.24021  0.19210  1.0000
  C   C493      1.0  0.50033  0.26570  0.17514  1.0000
  C   C494      1.0  0.50432  0.38551  0.32261  1.0000
  C   C495      1.0  0.49624  0.23227  0.16959  1.0000
  H   H488      1.0  0.50664  0.04033  0.39113  1.0000
  C   C496      1.0  0.58021  0.38844  0.11862  1.0000
  H   H489      1.0  0.72514  0.17141  0.02607  1.0000
  H   H490      1.0  0.53117  0.37922  0.01873  1.0000
  C   C497      1.0  0.55119  0.16915  0.06161  1.0000
  S   S169      1.0  0.52008  0.37205  0.18105  1.0000
  H   H491      1.0  0.55928  0.17816  0.01149  1.0000
  C   C498      1.0  0.61328  0.40703  0.13690  1.0000
  C   C499      1.0  0.59388  0.37558  0.16159  1.0000
  S   S170      1.0  0.53450  0.33876  0.16035  1.0000
  S   S171      1.0  0.63964  0.46646  0.05929  1.0000
  C   C500      1.0  0.51085  0.23640  0.19440  1.0000
  H   H492      1.0  0.68728  0.13243  0.25511  1.0000
  Fe  Fe83      1.0  0.58944  0.01107  0.39056  1.0000
  C   C501      1.0  0.51137  0.48366  0.32074  1.0000
  H   H493      1.0  0.74234  0.47738  0.22094  1.0000
  C   C502      1.0  0.51126  0.99959  0.37204  1.0000
  H   H494      1.0  0.68776  0.11934  0.04854  1.0000
  C   C503      1.0  0.61541  0.42146  0.11467  1.0000
  Fe  Fe84      1.0  0.65039  0.47900  0.11175  1.0000
  C   C504      1.0  0.54918  0.16697  0.02684  1.0000
  H   H495      1.0  0.60464  0.38154  0.18309  1.0000
  H   H496      1.0  0.52167  0.35793  0.28713  1.0000
  Fe  Fe85      1.0  0.50608  0.18685  0.18919  1.0000
  H   H497      1.0  0.63469  0.13201  0.07441  1.0000
  H   H498      1.0  0.60117  0.43033  0.07676  1.0000
  C   C505      1.0  0.65245  0.47995  0.02553  1.0000
  H   H499      1.0  0.74129  0.26311  0.22747  1.0000
  C   C506      1.0  0.50261  0.17247  0.05135  1.0000
  H   H500      1.0  0.62508  0.18000  0.04401  1.0000
  H   H501      1.0  0.49666  0.41501  0.27207  1.0000
  N   N43       1.0  0.73466  0.48355  0.09762  1.0000
  H   H502      1.0  0.57930  0.36896  0.17238  1.0000
  H   H503      1.0  0.52747  0.19255  0.02592  1.0000
  C   C507      1.0  0.51553  0.02377  0.29809  1.0000
  C   C508      1.0  0.62782  0.16197  0.00430  1.0000
  C   C509      1.0  0.52247  0.36363  0.01946  1.0000
  H   H504      1.0  0.62928  0.16063  0.08893  1.0000
  C   C510      1.0  0.49978  0.32347  0.02109  1.0000
  C   C511      1.0  0.62954  0.15646  0.06300  1.0000
  H   H505      1.0  0.51129  0.47681  0.29674  1.0000
  H   H506      1.0  0.50820  0.17958  0.07554  1.0000
  H   H507      1.0  0.70726  0.47501  0.07244  1.0000
  S   S172      1.0  0.60390  0.00507  0.43649  1.0000
  H   H508      1.0  0.73933  0.22063  0.15448  1.0000
  H   H509      1.0  0.72486  0.46296  0.13590  1.0000
  N   N44       1.0  0.50071  0.00525  0.29456  1.0000
  H   H510      1.0  0.50160  0.38573  0.12306  1.0000
  H   H511      1.0  0.49695  0.38904  0.23458  1.0000
  H   H512      1.0  0.70789  0.48009  0.11681  1.0000
  H   H513      1.0  0.71688  0.48667  0.20220  1.0000
  C   C512      1.0  0.58810  0.00776  0.49843  1.0000
  Fe  Fe86      1.0  0.68796  0.19389  0.86343  1.0000
  S   S173      1.0  0.68915  0.16573  0.85162  1.0000
  S   S174      1.0  0.71345  0.22415  0.87468  1.0000
  Fe  Fe87      1.0  0.64538  0.17195  0.88414  1.0000
  S   S175      1.0  0.64414  0.14268  0.87524  1.0000
  S   S176      1.0  0.61914  0.17188  0.90741  1.0000
  Fe  Fe88      1.0  0.67394  0.15613  0.89973  1.0000
  S   S177      1.0  0.68331  0.14068  0.93747  1.0000
  Fe  Fe89      1.0  0.65884  0.15471  0.82796  1.0000
  S   S178      1.0  0.64412  0.13747  0.77922  1.0000
  S   S179      1.0  0.67404  0.18425  0.91266  1.0000
  S   S180      1.0  0.65879  0.18387  0.83585  1.0000
  C   C513      1.0  0.51469  0.35251  0.98948  1.0000
  Fe  Fe90      1.0  0.59495  0.02603  0.70706  1.0000
  H   H514      1.0  0.50310  0.39100  0.84016  1.0000
  S   S181      1.0  0.61932  0.04792  0.74236  1.0000
  H   H515      1.0  0.68611  0.45265  0.72875  1.0000
  C   C514      1.0  0.59947  0.12976  0.83197  1.0000
  S   S182      1.0  0.58785  0.03069  0.65440  1.0000
  C   C515      1.0  0.64710  0.47175  0.99292  1.0000
  Fe  Fe91      1.0  0.52259  0.36110  0.85296  1.0000
  S   S183      1.0  0.54189  0.39303  0.84542  1.0000
  S   S184      1.0  0.52670  0.33720  0.87746  1.0000
  Fe  Fe92      1.0  0.52835  0.17447  0.83656  1.0000
  S   S185      1.0  0.55679  0.18127  0.81303  1.0000
  S   S186      1.0  0.52507  0.19610  0.87070  1.0000
  H   H516      1.0  0.56468  0.12801  0.83952  1.0000
  H   H517      1.0  0.61671  0.13350  0.94971  1.0000
  Fe  Fe93      1.0  0.64924  0.46637  0.84071  1.0000
  S   S187      1.0  0.63386  0.43350  0.83980  1.0000
  H   H518      1.0  0.62300  0.06891  0.59245  1.0000
  C   C516      1.0  0.50505  0.27004  0.82105  1.0000
  H   H519      1.0  0.72785  0.16482  0.96625  1.0000
  C   C517      1.0  0.56745  0.40376  0.84431  1.0000
  C   C518      1.0  0.57764  0.39277  0.84606  1.0000
  C   C519      1.0  0.59803  0.40200  0.84464  1.0000
  C   C520      1.0  0.60830  0.42223  0.84165  1.0000
  C   C521      1.0  0.59806  0.43315  0.83989  1.0000
  C   C522      1.0  0.57773  0.42394  0.84117  1.0000
  H   H520      1.0  0.56985  0.37720  0.84842  1.0000
  H   H521      1.0  0.60585  0.39345  0.84596  1.0000
  H   H522      1.0  0.60576  0.44869  0.83734  1.0000
  H   H523      1.0  0.56995  0.43253  0.83978  1.0000
  C   C523      1.0  0.69292  0.46373  0.74949  1.0000
  Fe  Fe94      1.0  0.49563  0.18578  0.84561  1.0000
  H   H524      1.0  0.53598  0.29526  0.88186  1.0000
  N   N45       1.0  0.63086  0.14625  0.99653  1.0000
  C   C524      1.0  0.62911  0.04543  0.60625  1.0000
  H   H525      1.0  0.72427  0.46037  0.77060  1.0000
  N   N46       1.0  0.51126  0.25155  0.91611  1.0000
  S   S188      1.0  0.49641  0.35618  0.88199  1.0000
  Fe  Fe95      1.0  0.51083  0.17098  0.90392  1.0000
  S   S189      1.0  0.56405  0.01203  0.72189  1.0000
  C   C525      1.0  0.60248  0.17565  0.88128  1.0000
  C   C526      1.0  0.58480  0.17302  0.89386  1.0000
  C   C527      1.0  0.57096  0.17527  0.87338  1.0000
  C   C528      1.0  0.57469  0.18017  0.84011  1.0000
  C   C529      1.0  0.59259  0.18325  0.82773  1.0000
  C   C530      1.0  0.60639  0.18085  0.84815  1.0000
  H   H526      1.0  0.58173  0.16919  0.91953  1.0000
  H   H527      1.0  0.55744  0.17330  0.88347  1.0000
  H   H528      1.0  0.59570  0.18730  0.80216  1.0000
  H   H529      1.0  0.62005  0.18312  0.83827  1.0000
  H   H530      1.0  0.67611  0.16715  0.98366  1.0000
  C   C531      1.0  0.62854  0.06304  0.61198  1.0000
  H   H531      1.0  0.72312  0.21575  0.94095  1.0000
  Fe  Fe96      1.0  0.58439  0.00083  0.64125  1.0000
  H   H532      1.0  0.68381  0.47121  0.75398  1.0000
  C   C532      1.0  0.63640  0.11222  0.77061  1.0000
  C   C533      1.0  0.64293  0.10146  0.79023  1.0000
  C   C534      1.0  0.63730  0.08175  0.78149  1.0000
  C   C535      1.0  0.62473  0.07238  0.75354  1.0000
  C   C536      1.0  0.61784  0.08302  0.73430  1.0000
  C   C537      1.0  0.62379  0.10285  0.74265  1.0000
  H   H533      1.0  0.65271  0.10843  0.81168  1.0000
  H   H534      1.0  0.64283  0.07373  0.79645  1.0000
  H   H535      1.0  0.60825  0.07608  0.71263  1.0000
  H   H536      1.0  0.61869  0.11103  0.72721  1.0000
  C   C538      1.0  0.73623  0.23867  0.85740  1.0000
  H   H537      1.0  0.51540  0.23170  0.80882  1.0000
  H   H538      1.0  0.50943  0.48037  0.62367  1.0000
  N   N47       1.0  0.58860  0.13556  0.80806  1.0000
  C   C539      1.0  0.67987  0.44608  0.80011  1.0000
  H   H539      1.0  0.52803  0.26672  0.79724  1.0000
  H   H540      1.0  0.66624  0.44646  0.79443  1.0000
  H   H541      1.0  0.56083  0.49193  0.67301  1.0000
  N   N48       1.0  0.72573  0.18993  0.95024  1.0000
  H   H542      1.0  0.60022  0.48880  0.71963  1.0000
  Fe  Fe97      1.0  0.55692  0.01438  0.66834  1.0000
  C   C540      1.0  0.49815  0.39832  0.82233  1.0000
  H   H543      1.0  0.51692  0.30388  0.92190  1.0000
  C   C541      1.0  0.50066  0.25619  0.93808  1.0000
  H   H544      1.0  0.63585  0.45693  0.98890  1.0000
  H   H545      1.0  0.63550  0.02368  0.62760  1.0000
  H   H546      1.0  0.51627  0.22902  0.93666  1.0000
  H   H547      1.0  0.64557  0.07208  0.69272  1.0000
  H   H548      1.0  0.51743  0.35951  0.96582  1.0000
  C   C542      1.0  0.72195  0.21003  0.99321  1.0000
  H   H549      1.0  0.71921  0.48652  0.85220  1.0000
  H   H550      1.0  0.62393  0.03747  0.58237  1.0000
  C   C543      1.0  0.50324  0.33240  0.99027  1.0000
  C   C544      1.0  0.56871  0.14846  0.76457  1.0000
  C   C545      1.0  0.49732  0.48257  0.70402  1.0000
  C   C546      1.0  0.50635  0.17094  0.99141  1.0000
  C   C547      1.0  0.52523  0.04649  0.72177  1.0000
  S   S190      1.0  0.63902  0.48654  0.86403  1.0000
  C   C548      1.0  0.52411  0.26544  0.89657  1.0000
  N   N49       1.0  0.64187  0.04742  0.66239  1.0000
  C   C549      1.0  0.57007  0.49380  0.69594  1.0000
  H   H551      1.0  0.66952  0.43055  0.84511  1.0000
  C   C550      1.0  0.51099  0.48531  0.64959  1.0000
  C   C551      1.0  0.73230  0.49127  0.83852  1.0000
  H   H552      1.0  0.52564  0.41221  0.79930  1.0000
  H   H553      1.0  0.63890  0.13158  0.95854  1.0000
  H   H554      1.0  0.72943  0.22441  0.80855  1.0000
  C   C552      1.0  0.52143  0.03061  0.74137  1.0000
  H   H555      1.0  0.53936  0.05427  0.71125  1.0000
  S   S191      1.0  0.50538  0.34222  0.80838  1.0000
  H   H556      1.0  0.70717  0.47520  0.74199  1.0000
  H   H557      1.0  0.72003  0.22265  0.00047  1.0000
  H   H558      1.0  0.71954  0.17030  0.90826  1.0000
  H   H559      1.0  0.50067  0.02717  0.63918  1.0000
  H   H560      1.0  0.74354  0.19089  0.91049  1.0000
  C   C553      1.0  0.52625  0.28443  0.89816  1.0000
  C   C554      1.0  0.64830  0.03876  0.68910  1.0000
  S   S192      1.0  0.52168  0.17938  0.95769  1.0000
  H   H561      1.0  0.65139  0.47643  0.94024  1.0000
  C   C555      1.0  0.71432  0.44451  0.81502  1.0000
  H   H562      1.0  0.63380  0.08619  0.64830  1.0000
  C   C556      1.0  0.58686  0.00558  0.53365  1.0000
  C   C557      1.0  0.73581  0.28033  0.82540  1.0000
  H   H563      1.0  0.64009  0.15430  0.94752  1.0000
  H   H564      1.0  0.56120  0.15415  0.74834  1.0000
  C   C558      1.0  0.64124  0.06464  0.66830  1.0000
  C   C559      1.0  0.51034  0.05145  0.71401  1.0000
  H   H565      1.0  0.57702  0.00925  0.54723  1.0000
  C   C560      1.0  0.68161  0.43696  0.82880  1.0000
  H   H566      1.0  0.53251  0.26181  0.87907  1.0000
  N   N50       1.0  0.69513  0.45452  0.77974  1.0000
  H   H567      1.0  0.56700  0.47906  0.70395  1.0000
  H   H568      1.0  0.72803  0.44431  0.82083  1.0000
  S   S193      1.0  0.65779  0.48233  0.79326  1.0000
  C   C561      1.0  0.65587  0.48278  0.96531  1.0000
  S   S194      1.0  0.51620  0.14998  0.87143  1.0000
  C   C562      1.0  0.72658  0.17778  0.97374  1.0000
  C   C563      1.0  0.51294  0.01055  0.66361  1.0000
  C   C564      1.0  0.63161  0.14103  0.96142  1.0000
  C   C565      1.0  0.50420  0.41946  0.77617  1.0000
  C   C566      1.0  0.68186  0.14232  0.98118  1.0000
  H   H569      1.0  0.61127  0.14601  0.77359  1.0000
  C   C567      1.0  0.71212  0.45360  0.78661  1.0000
  H   H570      1.0  0.60723  0.14177  0.85096  1.0000
  C   C568      1.0  0.51540  0.28923  0.92031  1.0000
  C   C569      1.0  0.59686  0.14400  0.77925  1.0000
  H   H571      1.0  0.63549  0.02675  0.69967  1.0000
  C   C570      1.0  0.56044  0.13985  0.79401  1.0000
  S   S195      1.0  0.67928  0.48174  0.86490  1.0000
  H   H572      1.0  0.61027  0.12641  0.81936  1.0000
  C   C571      1.0  0.63571  0.03770  0.63198  1.0000
  H   H573      1.0  0.68811  0.11813  0.98725  1.0000
  C   C572      1.0  0.50254  0.27508  0.94047  1.0000
  S   S196      1.0  0.49990  0.16604  0.80762  1.0000
  H   H574      1.0  0.54659  0.13899  0.80076  1.0000
  H   H575      1.0  0.65626  0.04951  0.70993  1.0000
  H   H576      1.0  0.59377  0.15755  0.73453  1.0000
  C   C573      1.0  0.63459  0.07272  0.64323  1.0000
  C   C574      1.0  0.58702  0.15052  0.75702  1.0000
  H   H577      1.0  0.51321  0.06337  0.69775  1.0000
  C   C575      1.0  0.51081  0.41024  0.79925  1.0000
  H   H578      1.0  0.53146  0.14932  0.98473  1.0000
  H   H579      1.0  0.58964  0.11650  0.84473  1.0000
  C   C576      1.0  0.69898  0.43626  0.83633  1.0000
  S   S197      1.0  0.51437  0.29490  0.81116  1.0000
  C   C577      1.0  0.57077  0.13372  0.81585  1.0000
  C   C578      1.0  0.50909  0.23167  0.91432  1.0000
  S   S198      1.0  0.53651  0.02609  0.65264  1.0000
  H   H580      1.0  0.61605  0.48136  0.99655  1.0000
  Fe  Fe98      1.0  0.50697  0.31758  0.83554  1.0000
  H   H581      1.0  0.53264  0.02614  0.74630  1.0000
  H   H582      1.0  0.65805  0.03297  0.67948  1.0000
  C   C579      1.0  0.50775  0.23962  0.81726  1.0000
  H   H583      1.0  0.62604  0.17053  0.98458  1.0000
  H   H584      1.0  0.72627  0.26598  0.81449  1.0000
  C   C580      1.0  0.51486  0.25949  0.81063  1.0000
  C   C581      1.0  0.73337  0.28531  0.85796  1.0000
  C   C582      1.0  0.72364  0.20601  0.95957  1.0000
  H   H585      1.0  0.72187  0.27481  0.87231  1.0000
  C   C583      1.0  0.74013  0.23627  0.82422  1.0000
  H   H586      1.0  0.70055  0.42938  0.85869  1.0000
  H   H587      1.0  0.72255  0.19390  0.89818  1.0000
  H   H588      1.0  0.74456  0.30748  0.89765  1.0000
  C   C584      1.0  0.72799  0.18609  0.91508  1.0000
  Fe  Fe99      1.0  0.49890  0.33064  0.90243  1.0000
  H   H589      1.0  0.51410  0.42858  0.75815  1.0000
  C   C585      1.0  0.49567  0.47597  0.67074  1.0000
  H   H590      1.0  0.51554  0.22889  0.89165  1.0000
  C   C586      1.0  0.49789  0.01498  0.65462  1.0000
  C   C587      1.0  0.67839  0.15660  0.99785  1.0000
  C   C588      1.0  0.50284  0.01986  0.75287  1.0000
  C   C589      1.0  0.59837  0.99861  0.55105  1.0000
  H   H591      1.0  0.49711  0.29937  0.74765  1.0000
  C   C590      1.0  0.68529  0.12909  0.99982  1.0000
  H   H592      1.0  0.49949  0.00696  0.76682  1.0000
  C   C591      1.0  0.62077  0.49716  0.99410  1.0000
  Fe  Fe100     1.0  0.57011  0.57719  0.36663  1.0000
  S   S199      1.0  0.56847  0.55289  0.33243  1.0000
  S   S200      1.0  0.56327  0.56550  0.41919  1.0000
  Fe  Fe101     1.0  0.57612  0.60353  0.30683  1.0000
  S   S201      1.0  0.57560  0.58102  0.26960  1.0000
  S   S202      1.0  0.57883  0.63151  0.28462  1.0000
  Fe  Fe102     1.0  0.55030  0.56087  0.29795  1.0000
  S   S203      1.0  0.52346  0.53888  0.26986  1.0000
  Fe  Fe103     1.0  0.59401  0.57513  0.30738  1.0000
  S   S204      1.0  0.61935  0.56814  0.30030  1.0000
  S   S205      1.0  0.54977  0.58345  0.33326  1.0000
  S   S206      1.0  0.59695  0.59947  0.34329  1.0000
  H   H593      1.0  0.61654  0.60924  0.41434  1.0000
  C   C592      1.0  0.60993  0.55419  0.38462  1.0000
  C   C593      1.0  0.51218  0.57428  0.22385  1.0000
  H   H594      1.0  0.71884  0.49975  0.09003  1.0000
  C   C594      1.0  0.58294  0.59632  0.46592  1.0000
  C   C595      1.0  0.53550  0.95649  0.44520  1.0000
  C   C596      1.0  0.64920  0.53722  0.05779  1.0000
  S   S207      1.0  0.51727  0.68770  0.16605  1.0000
  N   N51       1.0  0.55872  0.95244  0.39714  1.0000
  C   C597      1.0  0.56230  0.60845  0.19963  1.0000
  Fe  Fe104     1.0  0.51311  0.86618  0.18366  1.0000
  S   S208      1.0  0.53852  0.89173  0.21198  1.0000
  H   H595      1.0  0.60986  0.54731  0.36062  1.0000
  C   C598      1.0  0.64062  0.52873  0.08713  1.0000
  S   S209      1.0  0.51872  0.85339  0.13629  1.0000
  C   C599      1.0  0.57109  0.95064  0.37171  1.0000
  S   S210      1.0  0.53868  0.96047  0.30546  1.0000
  H   H596      1.0  0.51957  0.79264  0.22629  1.0000
  H   H597      1.0  0.50799  0.70950  0.04294  1.0000
  H   H598      1.0  0.61934  0.50287  0.10866  1.0000
  H   H599      1.0  0.56829  0.62427  0.19545  1.0000
  H   H600      1.0  0.51466  0.50521  0.43388  1.0000
  S   S211      1.0  0.63058  0.52157  0.17550  1.0000
  C   C600      1.0  0.64268  0.52652  0.02736  1.0000
  C   C601      1.0  0.61903  0.57446  0.38877  1.0000
  H   H601      1.0  0.54435  0.86126  0.24210  1.0000
  H   H602      1.0  0.58618  0.96258  0.37512  1.0000
  C   C602      1.0  0.50389  0.52758  0.29570  1.0000
  H   H603      1.0  0.63275  0.60989  0.44822  1.0000
  H   H604      1.0  0.56575  0.95178  0.34619  1.0000
  H   H605      1.0  0.56097  0.87292  0.18932  1.0000
  C   C603      1.0  0.56643  0.95956  0.42860  1.0000
  C   C604      1.0  0.67579  0.51012  0.00286  1.0000
  C   C605      1.0  0.53824  0.91099  0.23718  1.0000
  C   C606      1.0  0.55598  0.92646  0.24918  1.0000
  C   C607      1.0  0.55647  0.94186  0.26966  1.0000
  C   C608      1.0  0.53916  0.94188  0.27869  1.0000
  C   C609      1.0  0.52142  0.92636  0.26684  1.0000
  C   C610      1.0  0.52094  0.91107  0.24611  1.0000
  H   H606      1.0  0.56946  0.92660  0.24242  1.0000
  H   H607      1.0  0.57024  0.95367  0.27838  1.0000
  H   H608      1.0  0.50793  0.92615  0.27368  1.0000
  H   H609      1.0  0.50718  0.89928  0.23726  1.0000
  C   C611      1.0  0.50783  0.67061  0.03073  1.0000
  H   H610      1.0  0.57128  0.93641  0.37320  1.0000
  H   H611      1.0  0.64025  0.61145  0.40602  1.0000
  C   C612      1.0  0.51035  0.59864  0.18954  1.0000
  C   C613      1.0  0.73565  0.50898  0.17066  1.0000
  C   C614      1.0  0.61984  0.49930  0.05506  1.0000
  C   C615      1.0  0.50509  0.98888  0.28852  1.0000
  H   H612      1.0  0.50903  0.61317  0.26953  1.0000
  S   S212      1.0  0.50529  0.63866  0.22277  1.0000
  S   S213      1.0  0.66783  0.51028  0.12801  1.0000
  C   C616      1.0  0.62761  0.60452  0.42204  1.0000
  C   C617      1.0  0.55838  0.63385  0.26833  1.0000
  C   C618      1.0  0.53948  0.62099  0.27633  1.0000
  C   C619      1.0  0.52356  0.62315  0.26291  1.0000
  C   C620      1.0  0.52622  0.63786  0.24066  1.0000
  C   C621      1.0  0.54512  0.65070  0.23247  1.0000
  C   C622      1.0  0.56112  0.64881  0.24654  1.0000
  H   H613      1.0  0.53710  0.60951  0.29319  1.0000
  H   H614      1.0  0.52220  0.73445  0.03258  1.0000
  H   H615      1.0  0.54743  0.66213  0.21548  1.0000
  H   H616      1.0  0.57569  0.65892  0.24033  1.0000
  C   C623      1.0  0.62156  0.55427  0.26605  1.0000
  C   C624      1.0  0.63588  0.54781  0.26796  1.0000
  C   C625      1.0  0.63851  0.53731  0.24092  1.0000
  C   C626      1.0  0.62703  0.53343  0.21139  1.0000
  C   C627      1.0  0.61267  0.53982  0.20957  1.0000
  C   C628      1.0  0.60981  0.55002  0.23680  1.0000
  H   H617      1.0  0.64512  0.55107  0.29039  1.0000
  H   H618      1.0  0.64969  0.53260  0.24266  1.0000
  H   H619      1.0  0.60374  0.53697  0.18685  1.0000
  H   H620      1.0  0.59880  0.55494  0.23486  1.0000
  H   H621      1.0  0.58164  0.96398  0.43480  1.0000
  H   H622      1.0  0.56967  0.60735  0.22309  1.0000
  C   C629      1.0  0.52485  0.51146  0.35957  1.0000
  C   C630      1.0  0.53227  0.58304  0.22049  1.0000
  C   C631      1.0  0.57086  0.57641  0.46009  1.0000
  C   C632      1.0  0.55605  0.85788  0.19576  1.0000
  H   H623      1.0  0.58731  0.60580  0.44512  1.0000
  H   H624      1.0  0.52660  0.95857  0.46372  1.0000
  C   C633      1.0  0.50867  0.76457  0.14178  1.0000
  H   H625      1.0  0.51540  0.54978  0.33516  1.0000
  Fe  Fe105     1.0  0.56220  0.98934  0.32881  1.0000
  H   H626      1.0  0.51245  0.94445  0.40694  1.0000
  H   H627      1.0  0.62233  0.99264  0.48516  1.0000
  N   N52       1.0  0.61906  0.58327  0.41881  1.0000
  H   H628      1.0  0.50205  0.60532  0.17823  1.0000
  C   C634      1.0  0.49755  0.85845  0.02967  1.0000
  C   C635      1.0  0.51147  0.85171  0.03324  1.0000
  H   H629      1.0  0.51516  0.84841  0.05769  1.0000
  C   C636      1.0  0.54668  0.85132  0.22540  1.0000
  H   H630      1.0  0.50955  0.73693  0.14080  1.0000
  Fe  Fe106     1.0  0.50524  0.67435  0.11440  1.0000
  N   N53       1.0  0.51061  0.50169  0.38117  1.0000
  H   H631      1.0  0.53754  0.62024  0.17311  1.0000
  H   H632      1.0  0.66085  0.55198  0.05866  1.0000
  Fe  Fe107     1.0  0.68520  0.50007  0.16113  1.0000
  H   H633      1.0  0.54374  0.79759  0.24160  1.0000
  C   C637      1.0  0.50386  0.53580  0.32714  1.0000
  H   H634      1.0  0.53318  0.94038  0.36492  1.0000
  H   H635      1.0  0.53571  0.78956  0.19877  1.0000
  S   S214      1.0  0.55722  0.99583  0.38181  1.0000
  H   H636      1.0  0.54065  0.57675  0.23266  1.0000
  C   C638      1.0  0.50328  0.74552  0.15203  1.0000
  H   H637      1.0  0.50620  0.98665  0.26138  1.0000
  C   C639      1.0  0.66705  0.49908  0.03045  1.0000
  C   C640      1.0  0.61007  0.57234  0.44519  1.0000
  C   C641      1.0  0.60068  0.55203  0.44183  1.0000
  C   C642      1.0  0.50088  0.77611  0.15633  1.0000
  H   H638      1.0  0.60967  0.57929  0.46880  1.0000
  H   H639      1.0  0.53614  0.51076  0.31114  1.0000
  H   H640      1.0  0.62592  0.58309  0.36765  1.0000
  C   C643      1.0  0.52758  0.94859  0.41340  1.0000
  C   C644      1.0  0.53942  0.94644  0.38964  1.0000
  H   H641      1.0  0.50530  0.56154  0.23869  1.0000
  H   H642      1.0  0.67131  0.50554  0.05542  1.0000
  C   C645      1.0  0.53049  0.60710  0.18689  1.0000
  H   H643      1.0  0.56598  0.60122  0.17875  1.0000
  C   C646      1.0  0.51863  0.71920  0.02534  1.0000
  S   S215      1.0  0.50981  0.80067  0.14467  1.0000
  Fe  Fe108     1.0  0.64735  0.50382  0.17007  1.0000
  C   C647      1.0  0.55500  0.96183  0.45301  1.0000
  S   S216      1.0  0.71816  0.51648  0.15704  1.0000
  C   C648      1.0  0.56514  0.56439  0.48759  1.0000
  S   S217      1.0  0.52215  0.68159  0.06749  1.0000
  N   N54       1.0  0.54121  0.59945  0.20273  1.0000
  C   C649      1.0  0.60060  0.54293  0.41129  1.0000
  H   H644      1.0  0.56138  0.96802  0.47763  1.0000
  H   H645      1.0  0.59317  0.52721  0.40813  1.0000
  N   N55       1.0  0.54234  0.81914  0.21138  1.0000
  C   C650      1.0  0.53982  0.83177  0.23282  1.0000
  C   C651      1.0  0.55173  0.82551  0.18241  1.0000
  C   C652      1.0  0.55856  0.84492  0.17402  1.0000
  C   C653      1.0  0.53507  0.79876  0.22002  1.0000
  H   H646      1.0  0.53217  0.82668  0.25555  1.0000
  H   H647      1.0  0.55321  0.81540  0.16488  1.0000
  H   H648      1.0  0.56530  0.84975  0.15044  1.0000
  C   C654      1.0  0.52537  0.50266  0.32892  1.0000
  H   H649      1.0  0.64942  0.53320  0.00461  1.0000
  H   H650      1.0  0.55583  0.54897  0.48343  1.0000
  H   H651      1.0  0.68681  0.52504  0.00682  1.0000
  H   H652      1.0  0.59309  0.54349  0.46256  1.0000
  H   H653      1.0  0.53543  0.52638  0.36549  1.0000
  Fe  Fe109     1.0  0.49960  0.82375  0.15566  1.0000
  H   H654      1.0  0.53184  0.71707  0.02872  1.0000
  H   H655      1.0  0.51902  0.99150  0.30155  1.0000
  Fe  Fe110     1.0  0.50037  0.65698  0.18305  1.0000
  H   H656      1.0  0.51910  0.77047  0.12263  1.0000
  H   H657      1.0  0.51921  0.52724  0.41309  1.0000
  C   C655      1.0  0.62590  0.50963  0.08583  1.0000
  H   H658      1.0  0.64549  0.53681  0.11099  1.0000
  C   C656      1.0  0.50983  0.51122  0.41278  1.0000
  S   S218      1.0  0.49631  0.83660  0.20481  1.0000
  C   C657      1.0  0.50120  0.58224  0.20842  1.0000
  C   C658      1.0  0.52072  0.84930  0.00508  1.0000
  H   H659      1.0  0.52202  0.99496  0.36617  1.0000
  H   H660      1.0  0.53155  0.84419  0.00806  1.0000
  C   C659      1.0  0.61233  0.99626  0.49832  1.0000
  N   N56       1.0  0.62820  0.50779  0.02634  1.0000
  C   C660      1.0  0.58930  0.60402  0.49886  1.0000
  S   S219      1.0  0.51186  0.67351  0.87045  1.0000
  S   S220      1.0  0.51205  0.72079  0.83793  1.0000
  H   H661      1.0  0.64506  0.53941  0.67893  1.0000
  H   H662      1.0  0.59489  0.51789  0.76981  1.0000
  H   H663      1.0  0.56110  0.86119  0.89850  1.0000
  C   C661      1.0  0.58601  0.63682  0.61877  1.0000
  S   S221      1.0  0.51889  0.83302  0.84219  1.0000
  Fe  Fe111     1.0  0.51054  0.84383  0.88871  1.0000
  Fe  Fe112     1.0  0.51036  0.85364  0.81529  1.0000
  S   S222      1.0  0.52759  0.87240  0.77311  1.0000
  C   C662      1.0  0.56219  0.87158  0.87990  1.0000
  S   S223      1.0  0.55270  0.98464  0.65238  1.0000
  H   H664      1.0  0.49539  0.75559  0.76699  1.0000
  C   C663      1.0  0.50176  0.85976  0.96952  1.0000
  S   S224      1.0  0.54610  0.96001  0.74355  1.0000
  Fe  Fe113     1.0  0.55924  0.58243  0.67819  1.0000
  S   S225      1.0  0.55181  0.56814  0.62646  1.0000
  S   S226      1.0  0.53496  0.58965  0.69404  1.0000
  Fe  Fe114     1.0  0.59645  0.57731  0.68400  1.0000
  S   S227      1.0  0.59179  0.56346  0.63241  1.0000
  S   S228      1.0  0.62336  0.58037  0.71375  1.0000
  Fe  Fe115     1.0  0.58303  0.58595  0.61568  1.0000
  S   S229      1.0  0.59209  0.60234  0.56740  1.0000
  Fe  Fe116     1.0  0.56110  0.54688  0.64718  1.0000
  S   S230      1.0  0.54534  0.51500  0.63321  1.0000
  S   S231      1.0  0.59038  0.60179  0.66636  1.0000
  S   S232      1.0  0.56597  0.55935  0.69962  1.0000
  H   H665      1.0  0.50618  0.92543  0.71370  1.0000
  H   H666      1.0  0.56586  0.50121  0.71587  1.0000
  H   H667      1.0  0.50353  0.62251  0.75607  1.0000
  C   C664      1.0  0.55304  0.91494  0.87293  1.0000
  S   S233      1.0  0.68031  0.51682  0.93620  1.0000
  H   H668      1.0  0.55898  0.63167  0.79729  1.0000
  S   S234      1.0  0.62630  0.51030  0.79071  1.0000
  S   S235      1.0  0.67943  0.52240  0.83979  1.0000
  S   S236      1.0  0.52730  0.84962  0.93814  1.0000
  C   C665      1.0  0.52315  0.72404  0.96559  1.0000
  C   C666      1.0  0.73428  0.50160  0.80957  1.0000
  C   C667      1.0  0.61100  0.99399  0.53289  1.0000
  H   H669      1.0  0.72214  0.51654  0.93491  1.0000
  H   H670      1.0  0.53697  0.90858  0.87318  1.0000
  H   H671      1.0  0.52095  0.99122  0.69040  1.0000
  H   H672      1.0  0.63493  0.50976  0.71188  1.0000
  C   C668      1.0  0.56820  0.88266  0.82379  1.0000
  Fe  Fe117     1.0  0.68720  0.49946  0.81951  1.0000
  C   C669      1.0  0.51325  0.75689  0.83934  1.0000
  H   H673      1.0  0.54292  0.51999  0.70463  1.0000
  C   C670      1.0  0.58357  0.59198  0.52636  1.0000
  H   H674      1.0  0.73352  0.54537  0.84213  1.0000
  H   H675      1.0  0.50069  0.52779  0.69860  1.0000
  C   C671      1.0  0.56736  0.62521  0.60497  1.0000
  H   H676      1.0  0.55824  0.92665  0.85465  1.0000
  H   H677      1.0  0.56689  0.56263  0.54133  1.0000
  C   C672      1.0  0.51577  0.85314  0.97313  1.0000
  C   C673      1.0  0.62405  0.56167  0.73794  1.0000
  C   C674      1.0  0.64209  0.56282  0.74842  1.0000
  C   C675      1.0  0.64317  0.54765  0.76591  1.0000
  C   C676      1.0  0.62615  0.53123  0.77339  1.0000
  C   C677      1.0  0.60813  0.53044  0.76394  1.0000
  C   C678      1.0  0.60706  0.54547  0.74617  1.0000
  H   H678      1.0  0.65532  0.57536  0.74242  1.0000
  H   H679      1.0  0.65713  0.54849  0.77294  1.0000
  H   H680      1.0  0.56422  0.90774  0.81377  1.0000
  H   H681      1.0  0.59309  0.54447  0.73871  1.0000
  C   C679      1.0  0.50931  0.99469  0.68339  1.0000
  H   H682      1.0  0.53811  0.73455  0.97150  1.0000
  H   H683      1.0  0.59856  0.63881  0.60486  1.0000
  H   H684      1.0  0.51601  0.50331  0.74215  1.0000
  H   H685      1.0  0.55297  0.88782  0.91273  1.0000
  C   C680      1.0  0.53322  0.89700  0.76589  1.0000
  C   C681      1.0  0.52835  0.90816  0.78811  1.0000
  C   C682      1.0  0.53291  0.92755  0.78121  1.0000
  C   C683      1.0  0.54238  0.93607  0.75208  1.0000
  C   C684      1.0  0.54743  0.92497  0.73008  1.0000
  C   C685      1.0  0.54291  0.90558  0.73702  1.0000
  H   H686      1.0  0.52082  0.90178  0.81034  1.0000
  H   H687      1.0  0.52886  0.93597  0.79836  1.0000
  H   H688      1.0  0.55463  0.93124  0.70751  1.0000
  H   H689      1.0  0.54682  0.89712  0.71969  1.0000
  C   C686      1.0  0.55762  0.88672  0.88782  1.0000
  H   H690      1.0  0.50227  0.93819  0.74776  1.0000
  H   H691      1.0  0.62003  0.54739  0.65368  1.0000
  H   H692      1.0  0.51464  0.78540  0.83520  1.0000
  C   C687      1.0  0.57141  0.57210  0.52050  1.0000
  C   C688      1.0  0.53107  0.62861  0.77988  1.0000
  C   C689      1.0  0.54734  0.62506  0.77833  1.0000
  C   C690      1.0  0.54867  0.61293  0.75266  1.0000
  C   C691      1.0  0.53375  0.60431  0.72800  1.0000
  C   C692      1.0  0.51745  0.60782  0.72954  1.0000
  C   C693      1.0  0.51609  0.61987  0.75530  1.0000
  C   C694      1.0  0.52976  0.50784  0.69497  1.0000
  H   H693      1.0  0.56121  0.61025  0.75204  1.0000
  C   C695      1.0  0.50269  0.51999  0.61676  1.0000
  C   C696      1.0  0.62410  0.51287  0.69926  1.0000
  C   C697      1.0  0.62978  0.52954  0.68095  1.0000
  Fe  Fe118     1.0  0.50645  0.65245  0.82640  1.0000
  H   H694      1.0  0.56541  0.61827  0.58030  1.0000
  H   H695      1.0  0.51729  0.53110  0.61296  1.0000
  H   H696      1.0  0.57039  0.85747  0.84090  1.0000
  C   C698      1.0  0.67007  0.50209  0.97022  1.0000
  H   H697      1.0  0.55936  0.92178  0.89797  1.0000
  C   C699      1.0  0.61571  0.53402  0.66675  1.0000
  H   H698      1.0  0.51182  0.66793  0.94631  1.0000
  H   H699      1.0  0.59865  0.61944  0.50308  1.0000
  H   H700      1.0  0.50249  0.54663  0.67082  1.0000
  S   S237      1.0  0.50500  0.86616  0.86243  1.0000
  C   C700      1.0  0.73172  0.52292  0.91460  1.0000
  S   S238      1.0  0.71566  0.50710  0.79413  1.0000
  C   C701      1.0  0.50505  0.66564  0.97007  1.0000
  Fe  Fe119     1.0  0.66980  0.50339  0.88413  1.0000
  H   H701      1.0  0.52587  0.72759  0.91223  1.0000
  C   C702      1.0  0.56741  0.86951  0.84762  1.0000
  C   C703      1.0  0.50509  0.53372  0.67354  1.0000
  Fe  Fe120     1.0  0.56253  0.98315  0.70549  1.0000
  N   N57       1.0  0.57248  0.64212  0.66889  1.0000
  C   C704      1.0  0.58832  0.64512  0.65105  1.0000
  C   C705      1.0  0.55414  0.63089  0.65539  1.0000
  C   C706      1.0  0.55130  0.62217  0.62337  1.0000
  C   C707      1.0  0.57537  0.65032  0.70317  1.0000
  H   H702      1.0  0.54154  0.62809  0.66974  1.0000
  H   H703      1.0  0.53675  0.61274  0.61328  1.0000
  H   H704      1.0  0.58120  0.64264  0.71963  1.0000
  H   H705      1.0  0.58568  0.66607  0.70414  1.0000
  H   H706      1.0  0.56156  0.64871  0.71353  1.0000
  H   H707      1.0  0.60287  0.65362  0.66201  1.0000
  C   C708      1.0  0.60435  0.50102  0.70356  1.0000
  H   H708      1.0  0.71198  0.53135  0.88933  1.0000
  H   H709      1.0  0.50582  0.60123  0.71061  1.0000
  C   C709      1.0  0.56383  0.89779  0.83268  1.0000
  S   S239      1.0  0.53044  0.64435  0.81253  1.0000
  Fe  Fe121     1.0  0.64919  0.50376  0.81756  1.0000
  C   C710      1.0  0.50524  0.77001  0.83709  1.0000
  H   H710      1.0  0.57158  0.88084  0.79827  1.0000
  H   H711      1.0  0.52883  0.76238  0.83929  1.0000
  H   H712      1.0  0.49968  0.50660  0.56758  1.0000
  N   N58       1.0  0.55862  0.89967  0.86437  1.0000
  C   C711      1.0  0.72595  0.53125  0.88891  1.0000
  N   N59       1.0  0.59063  0.50550  0.68945  1.0000
  S   S240      1.0  0.59835  0.99536  0.59514  1.0000
  C   C712      1.0  0.52776  0.50167  0.66139  1.0000
  H   H713      1.0  0.58521  0.52557  0.66097  1.0000
  C   C713      1.0  0.59607  0.52174  0.67124  1.0000
  Fe  Fe122     1.0  0.49782  0.68759  0.83835  1.0000
  C   C714      1.0  0.51637  0.72019  0.93214  1.0000
  H   H714      1.0  0.61998  0.98862  0.54573  1.0000
  H   H715      1.0  0.52095  0.53854  0.67289  1.0000
  H   H716      1.0  0.49774  0.89217  0.71814  1.0000
  C   C715      1.0  0.50126  0.73674  0.84025  1.0000
  H   H717      1.0  0.50905  0.74222  0.76888  1.0000
  H   H718      1.0  0.63216  0.50224  0.97534  1.0000
  C   C716      1.0  0.51457  0.49827  0.71630  1.0000
  H   H719      1.0  0.49789  0.86285  0.94502  1.0000
  C   C717      1.0  0.73816  0.53936  0.86271  1.0000
  N   N60       1.0  0.51113  0.71463  0.99053  1.0000
  C   C718      1.0  0.49721  0.70658  0.92436  1.0000
  S   S241      1.0  0.59419  0.99711  0.69345  1.0000
  H   H720      1.0  0.60827  0.49923  0.98449  1.0000
  C   C719      1.0  0.49623  0.74259  0.75620  1.0000
  H   H721      1.0  0.49860  0.74434  0.72909  1.0000
  C   C720      1.0  0.51648  0.67364  0.99972  1.0000
  H   H722      1.0  0.53204  0.68217  0.99864  1.0000
  Fe  Fe123     1.0  0.85145  0.34886  0.14247  1.0000
  S   S242      1.0  0.81926  0.33745  0.14378  1.0000
  S   S243      1.0  0.86640  0.36181  0.09513  1.0000
  Fe  Fe124     1.0  0.85615  0.34377  0.21707  1.0000
  S   S244      1.0  0.82386  0.33162  0.22369  1.0000
  S   S245      1.0  0.87494  0.34643  0.26396  1.0000
  Fe  Fe125     1.0  0.81977  0.31421  0.17570  1.0000
  S   S246      1.0  0.79983  0.28212  0.16175  1.0000
  Fe  Fe126     1.0  0.82595  0.35576  0.19124  1.0000
  S   S247      1.0  0.80933  0.37301  0.19996  1.0000
  S   S248      1.0  0.85202  0.32451  0.17126  1.0000
  S   S249      1.0  0.85826  0.36896  0.18785  1.0000
  S   S250      1.0  0.97447  0.42596  0.39300  1.0000
  C   C721      1.0  0.98912  0.48504  0.34700  1.0000
  S   S251      1.0  0.96323  0.40947  0.29532  1.0000
  S   S252      1.0  0.81150  0.47525  0.14692  1.0000
  Fe  Fe127     1.0  0.84047  0.48252  0.17159  1.0000
  S   S253      1.0  0.85522  0.46407  0.18482  1.0000
  H   H723      1.0  0.89902  0.39954  0.33723  1.0000
  C   C722      1.0  0.82208  0.39851  0.19793  1.0000
  C   C723      1.0  0.81178  0.40938  0.19419  1.0000
  C   C724      1.0  0.82170  0.42957  0.19011  1.0000
  C   C725      1.0  0.84199  0.43896  0.19029  1.0000
  C   C726      1.0  0.85226  0.42815  0.19471  1.0000
  C   C727      1.0  0.84235  0.40801  0.19841  1.0000
  H   H724      1.0  0.79608  0.40214  0.19400  1.0000
  H   H725      1.0  0.81369  0.43785  0.18695  1.0000
  H   H726      1.0  0.86795  0.43537  0.19504  1.0000
  H   H727      1.0  0.85043  0.39991  0.20181  1.0000
  C   C728      1.0  0.89981  0.36334  0.27179  1.0000
  C   C729      1.0  0.91099  0.37538  0.24716  1.0000
  C   C730      1.0  0.93049  0.38900  0.25468  1.0000
  C   C731      1.0  0.93906  0.39089  0.28690  1.0000
  C   C732      1.0  0.92796  0.37870  0.31147  1.0000
  C   C733      1.0  0.90847  0.36497  0.30388  1.0000
  H   H728      1.0  0.90461  0.37423  0.22231  1.0000
  H   H729      1.0  0.93896  0.39827  0.23543  1.0000
  H   H730      1.0  0.93436  0.37985  0.33629  1.0000
  H   H731      1.0  0.90002  0.35564  0.32308  1.0000
  H   H732      1.0  0.87547  0.38911  0.28871  1.0000
  C   C734      1.0  0.83278  0.37826  0.07312  1.0000
  C   C735      1.0  0.77559  0.26679  0.17277  1.0000
  C   C736      1.0  0.76660  0.27219  0.19788  1.0000
  H   H733      1.0  0.82743  0.25781  0.20137  1.0000
  H   H734      1.0  0.81816  0.34767  0.03232  1.0000
  H   H735      1.0  0.77408  0.28648  0.21009  1.0000
  H   H736      1.0  0.95100  0.43520  0.33267  1.0000
  H   H737      1.0  0.82903  0.40987  0.12931  1.0000
  H   H738      1.0  0.98220  0.48819  0.29573  1.0000
  C   C737      1.0  0.85681  0.34787  0.05769  1.0000
  C   C738      1.0  0.84452  0.32792  0.05797  1.0000
  H   H739      1.0  0.81164  0.33438  0.06995  1.0000
  H   H740      1.0  0.84090  0.32079  0.08148  1.0000
  H   H741      1.0  0.85275  0.40725  0.09180  1.0000
  S   S254      1.0  0.98717  0.39778  0.46103  1.0000
  N   N61       1.0  0.81464  0.36299  0.07476  1.0000
  H   H742      1.0  0.77239  0.24373  0.13787  1.0000
  H   H743      1.0  0.79652  0.38164  0.13350  1.0000
  C   C739      1.0  0.90343  0.40674  0.31387  1.0000
  C   C740      1.0  0.92777  0.42963  0.28111  1.0000
  N   N62       1.0  0.92205  0.42089  0.31084  1.0000
  H   H744      1.0  0.83532  0.28123  0.18375  1.0000
  H   H745      1.0  0.75574  0.46079  0.14168  1.0000
  C   C741      1.0  0.93571  0.42697  0.33997  1.0000
  H   H746      1.0  0.93247  0.43627  0.35765  1.0000
  H   H747      1.0  0.93484  0.41404  0.35287  1.0000
  C   C742      1.0  0.89002  0.40085  0.28660  1.0000
  H   H748      1.0  0.91938  0.43078  0.22964  1.0000
  C   C743      1.0  0.80930  0.34500  0.05471  1.0000
  Fe  Fe128     1.0  0.98304  0.41947  0.34289  1.0000
  C   C744      1.0  0.89571  0.40967  0.25621  1.0000
  H   H749      1.0  0.78770  0.35163  0.09892  1.0000
  N   N63       1.0  0.82758  0.28010  0.23409  1.0000
  C   C745      1.0  0.80801  0.27071  0.23834  1.0000
  C   C746      1.0  0.83932  0.29607  0.25396  1.0000
  C   C747      1.0  0.79974  0.27712  0.26327  1.0000
  C   C748      1.0  0.83157  0.30274  0.27941  1.0000
  C   C749      1.0  0.81164  0.29323  0.28395  1.0000
  C   C750      1.0  0.83582  0.27373  0.20677  1.0000
  H   H750      1.0  0.79383  0.33840  0.04574  1.0000
  H   H751      1.0  0.85475  0.30397  0.24995  1.0000
  H   H752      1.0  0.78414  0.26985  0.26594  1.0000
  H   H753      1.0  0.84096  0.31558  0.29478  1.0000
  H   H754      1.0  0.80539  0.29857  0.30302  1.0000
  C   C751      1.0  0.80175  0.36403  0.09634  1.0000
  H   H755      1.0  0.79858  0.25850  0.22176  1.0000
  C   C752      1.0  0.75396  0.46993  0.12315  1.0000
  C   C753      1.0  0.91470  0.42415  0.25337  1.0000
  H   H756      1.0  0.94265  0.44052  0.27850  1.0000
  C   C754      1.0  0.76556  0.24812  0.15720  1.0000
  H   H757      1.0  0.82805  0.30153  0.02804  1.0000
  C   C755      1.0  0.83719  0.31707  0.02772  1.0000
  C   C756      1.0  0.82497  0.39673  0.11394  1.0000
  H   H758      1.0  0.84328  0.37726  0.05699  1.0000
  C   C757      1.0  0.86144  0.35697  0.02708  1.0000
  H   H759      1.0  0.85112  0.27703  0.21299  1.0000
  C   C758      1.0  0.83823  0.39532  0.09270  1.0000
  S   S255      1.0  0.78242  0.49127  0.20600  1.0000
  H   H760      1.0  0.87099  0.37242  0.02677  1.0000
  H   H761      1.0  0.88552  0.40498  0.23475  1.0000
  C   C759      1.0  0.80664  0.38096  0.11598  1.0000
  C   C760      1.0  0.76927  0.48096  0.10323  1.0000
  H   H762      1.0  0.78284  0.48012  0.10556  1.0000
  C   C761      1.0  0.74800  0.25889  0.20769  1.0000
  C   C762      1.0  0.74960  0.49436  0.07788  1.0000
  C   C763      1.0  0.98735  0.49542  0.32007  1.0000
  H   H763      1.0  0.98503  0.46975  0.34352  1.0000
  C   C764      1.0  0.74679  0.23497  0.16654  1.0000
  C   C765      1.0  0.74578  0.48876  0.20334  1.0000
  H   H764      1.0  0.87509  0.31791  0.01716  1.0000
  S   S256      1.0  0.81481  0.49450  0.06081  1.0000
  C   C766      1.0  0.76715  0.49326  0.08043  1.0000
  H   H765      1.0  0.84410  0.47603  0.00338  1.0000
  H   H766      1.0  0.89749  0.35089  0.00702  1.0000
  Fe  Fe129     1.0  0.97622  0.39858  0.71495  1.0000
  S   S257      1.0  0.97474  0.41628  0.67208  1.0000
  S   S258      1.0  0.94864  0.37088  0.72511  1.0000
  C   C767      1.0  0.75764  0.24978  0.81083  1.0000
  C   C768      1.0  0.98528  0.39522  0.52947  1.0000
  H   H767      1.0  0.98523  0.39186  0.58298  1.0000
  Fe  Fe130     1.0  0.85706  0.34421  0.84868  1.0000
  S   S259      1.0  0.82984  0.34041  0.82027  1.0000
  S   S260      1.0  0.88869  0.36419  0.83672  1.0000
  Fe  Fe131     1.0  0.83450  0.32492  0.91012  1.0000
  S   S261      1.0  0.80600  0.32033  0.88699  1.0000
  S   S262      1.0  0.83396  0.31172  0.95990  1.0000
  Fe  Fe132     1.0  0.81519  0.31036  0.84123  1.0000
  S   S263      1.0  0.79234  0.28359  0.81185  1.0000
  Fe  Fe133     1.0  0.82231  0.35031  0.86828  1.0000
  S   S264      1.0  0.80684  0.36899  0.87125  1.0000
  S   S265      1.0  0.84318  0.31320  0.86523  1.0000
  S   S266      1.0  0.85008  0.35595  0.89593  1.0000
  Fe  Fe134     1.0  0.84287  0.47783  0.83235  1.0000
  S   S267      1.0  0.85227  0.45464  0.82094  1.0000
  C   C769      1.0  0.83326  0.44592  0.93432  1.0000
  S   S268      1.0  0.78251  0.48668  0.84795  1.0000
  C   C770      1.0  0.85024  0.45650  0.91746  1.0000
  C   C771      1.0  0.81935  0.39268  0.85673  1.0000
  C   C772      1.0  0.81114  0.40552  0.85941  1.0000
  C   C773      1.0  0.82095  0.42452  0.84812  1.0000
  C   C774      1.0  0.83899  0.43069  0.83393  1.0000
  C   C775      1.0  0.84714  0.41782  0.83116  1.0000
  C   C776      1.0  0.83738  0.39888  0.84260  1.0000
  H   H768      1.0  0.79714  0.40074  0.87020  1.0000
  H   H769      1.0  0.81456  0.43436  0.85027  1.0000
  H   H770      1.0  0.86112  0.42256  0.82035  1.0000
  H   H771      1.0  0.84382  0.38909  0.84047  1.0000
  C   C777      1.0  0.74616  0.30354  0.87220  1.0000
  C   C778      1.0  0.87765  0.31277  0.99251  1.0000
  H   H772      1.0  0.74542  0.47865  0.87190  1.0000
  H   H773      1.0  0.85732  0.35328  0.97333  1.0000
  N   N64       1.0  0.86437  0.47377  0.93086  1.0000
  H   H774      1.0  0.77330  0.32994  0.78101  1.0000
  H   H775      1.0  0.90402  0.36950  0.90608  1.0000
  C   C779      1.0  0.77148  0.26568  0.83052  1.0000
  C   C780      1.0  0.76784  0.26757  0.86401  1.0000
  N   N65       1.0  0.88450  0.32843  0.96885  1.0000
  C   C781      1.0  0.84577  0.47028  0.97937  1.0000
  H   H776      1.0  0.77834  0.27951  0.87965  1.0000
  H   H777      1.0  0.86349  0.30063  0.98339  1.0000
  C   C782      1.0  0.90201  0.36243  0.95808  1.0000
  C   C783      1.0  0.86249  0.48052  0.96169  1.0000
  H   H778      1.0  0.85195  0.45093  0.89343  1.0000
  S   S269      1.0  0.97544  0.46179  0.71760  1.0000
  C   C784      1.0  0.93241  0.36866  0.75722  1.0000
  C   C785      1.0  0.93729  0.38288  0.78296  1.0000
  C   C786      1.0  0.92386  0.38093  0.80739  1.0000
  C   C787      1.0  0.90526  0.36491  0.80627  1.0000
  C   C788      1.0  0.90041  0.35054  0.78080  1.0000
  C   C789      1.0  0.91398  0.35237  0.75658  1.0000
  H   H779      1.0  0.95144  0.39536  0.78410  1.0000
  H   H780      1.0  0.92786  0.39208  0.82707  1.0000
  H   H781      1.0  0.88622  0.33807  0.77964  1.0000
  H   H782      1.0  0.91008  0.34120  0.73695  1.0000
  C   C790      1.0  0.88124  0.32397  0.93527  1.0000
  S   S270      1.0  0.82905  0.48919  0.79446  1.0000
  N   N66       1.0  0.76366  0.31143  0.82176  1.0000
  H   H783      1.0  0.97374  0.38069  0.52408  1.0000
  H   H784      1.0  0.88585  0.33515  0.88563  1.0000
  H   H785      1.0  0.88846  0.30717  0.99590  1.0000
  H   H786      1.0  0.81775  0.44519  0.97851  1.0000
  H   H787      1.0  0.78952  0.33826  0.81742  1.0000
  S   S271      1.0  0.82654  0.48157  0.87477  1.0000
  H   H788      1.0  0.93152  0.43081  0.79397  1.0000
  C   C791      1.0  0.85366  0.34621  0.99685  1.0000
  H   H789      1.0  0.78797  0.31803  0.79223  1.0000
  H   H790      1.0  0.82193  0.43243  0.92315  1.0000
  N   N67       1.0  0.92534  0.41447  0.74733  1.0000
  C   C792      1.0  0.93258  0.41137  0.71838  1.0000
  C   C793      1.0  0.90704  0.40174  0.75598  1.0000
  C   C794      1.0  0.92178  0.39477  0.69783  1.0000
  C   C795      1.0  0.89578  0.38503  0.73590  1.0000
  C   C796      1.0  0.90331  0.38147  0.70681  1.0000
  C   C797      1.0  0.93739  0.43168  0.76881  1.0000
  H   H791      1.0  0.94700  0.42156  0.71151  1.0000
  H   H792      1.0  0.90132  0.40397  0.77916  1.0000
  H   H793      1.0  0.92804  0.39190  0.67579  1.0000
  H   H794      1.0  0.88165  0.37453  0.74365  1.0000
  H   H795      1.0  0.89511  0.36819  0.69173  1.0000
  H   H796      1.0  0.87283  0.30900  0.92611  1.0000
  H   H797      1.0  0.93854  0.44497  0.75690  1.0000
  H   H798      1.0  0.95232  0.43311  0.77228  1.0000
  C   C798      1.0  0.77938  0.32512  0.80216  1.0000
  H   H799      1.0  0.76031  0.24809  0.78492  1.0000
  H   H800      1.0  0.80468  0.48931  0.99091  1.0000
  C   C799      1.0  0.88839  0.33867  0.91228  1.0000
  C   C800      1.0  0.75031  0.25424  0.87726  1.0000
  C   C801      1.0  0.89870  0.35800  0.92381  1.0000
  C   C802      1.0  0.83098  0.45300  0.96536  1.0000
  Fe  Fe135     1.0  0.98848  0.44140  0.70927  1.0000
  H   H801      1.0  0.86557  0.47320  0.74891  1.0000
  C   C803      1.0  0.76124  0.31657  0.85354  1.0000
  S   S272      1.0  0.98830  0.42358  0.75231  1.0000
  H   H802      1.0  0.74750  0.25627  0.90295  1.0000
  H   H803      1.0  0.77115  0.33072  0.86481  1.0000
  C   C804      1.0  0.99168  0.40157  0.56297  1.0000
  C   C805      1.0  0.74720  0.48682  0.84963  1.0000
  H   H804      1.0  0.90985  0.48846  0.75706  1.0000
  H   H805      1.0  0.87373  0.49423  0.97232  1.0000
  C   C806      1.0  0.84177  0.32616  0.99712  1.0000
  C   C807      1.0  0.87546  0.48860  0.75643  1.0000
  H   H806      1.0  0.75354  0.28930  0.78287  1.0000
  C   C808      1.0  0.88198  0.48486  0.91275  1.0000
  H   H807      1.0  0.87995  0.48012  0.88587  1.0000
  H   H808      1.0  0.90993  0.37743  0.96729  1.0000
  C   C809      1.0  0.89494  0.34735  0.98039  1.0000
  H   H809      1.0  0.89427  0.48300  0.92397  1.0000
  C   C810      1.0  0.98704  0.48270  0.69459  1.0000
  H   H810      1.0  0.88187  0.48914  0.78184  1.0000
  H   H811      1.0  0.86678  0.49673  0.75853  1.0000
  C   C811      1.0  0.75122  0.29359  0.80765  1.0000
  C   C812      1.0  0.76440  0.49285  0.83231  1.0000
  Fe  Fe136     1.0  0.81451  0.49563  0.83797  1.0000
  N   N68       1.0  0.89058  0.49726  0.73221  1.0000
  C   C813      1.0  0.90745  0.49572  0.73595  1.0000
  C   C814      1.0  0.99398  0.40732  0.50293  1.0000
  H   H812      1.0  0.97861  0.58574  0.44587  1.0000
  H   H813      1.0  0.79106  0.51438  0.27328  1.0000
  Fe  Fe137     1.0  0.85392  0.52578  0.17274  1.0000
  C   C815      1.0  0.91041  0.52591  0.18602  1.0000
  S   S273      1.0  0.88113  0.55408  0.18585  1.0000
  C   C816      1.0  0.76886  0.51286  0.16876  1.0000
  Fe  Fe138     1.0  0.82772  0.50009  0.11383  1.0000
  N   N69       1.0  0.99279  0.53025  0.49362  1.0000
  S   S274      1.0  0.82603  0.52286  0.14768  1.0000
  C   C817      1.0  0.80648  0.51740  0.27730  1.0000
  C   C818      1.0  0.82458  0.55427  0.21136  1.0000
  H   H814      1.0  0.77913  0.50190  0.06501  1.0000
  H   H815      1.0  0.95712  0.53335  0.27314  1.0000
  H   H816      1.0  0.75801  0.53002  0.14171  1.0000
  Fe  Fe139     1.0  0.97098  0.57814  0.31766  1.0000
  S   S275      1.0  0.93852  0.56912  0.31286  1.0000
  C   C819      1.0  0.84455  0.56306  0.21877  1.0000
  C   C820      1.0  0.89742  0.55719  0.22026  1.0000
  C   C821      1.0  0.89181  0.54487  0.24712  1.0000
  C   C822      1.0  0.90471  0.54852  0.27499  1.0000
  C   C823      1.0  0.92358  0.56406  0.27586  1.0000
  C   C824      1.0  0.92939  0.57604  0.24859  1.0000
  C   C825      1.0  0.91626  0.57279  0.22119  1.0000
  H   H817      1.0  0.87738  0.53284  0.24683  1.0000
  H   H818      1.0  0.89999  0.53934  0.29616  1.0000
  H   H819      1.0  0.94372  0.58830  0.24922  1.0000
  H   H820      1.0  0.92069  0.58250  0.20069  1.0000
  C   C826      1.0  0.98743  0.58684  0.46805  1.0000
  H   H821      1.0  0.85624  0.51939  0.05425  1.0000
  C   C827      1.0  0.85182  0.55714  0.24603  1.0000
  C   C828      1.0  0.81218  0.53949  0.23124  1.0000
  C   C829      1.0  0.94113  0.52501  0.27500  1.0000
  C   C830      1.0  0.84921  0.51530  0.02957  1.0000
  H   H822      1.0  0.84490  0.53725  0.28565  1.0000
  N   N70       1.0  0.81947  0.53361  0.25772  1.0000
  H   H823      1.0  0.81878  0.55861  0.18999  1.0000
  H   H824      1.0  0.93674  0.53175  0.29575  1.0000
  S   S276      1.0  0.85687  0.50531  0.13529  1.0000
  S   S277      1.0  0.97660  0.55783  0.35044  1.0000
  H   H825      1.0  0.88669  0.50036  0.20376  1.0000
  H   H826      1.0  0.93807  0.51001  0.28126  1.0000
  C   C831      1.0  0.75451  0.51839  0.15879  1.0000
  H   H827      1.0  0.78324  0.52017  0.15925  1.0000
  N   N71       1.0  0.93078  0.52505  0.24380  1.0000
  H   H828      1.0  0.79670  0.53257  0.22505  1.0000
  H   H829      1.0  0.95398  0.55116  0.22774  1.0000
  H   H830      1.0  0.86735  0.56384  0.25174  1.0000
  H   H831      1.0  0.81034  0.52060  0.30442  1.0000
  C   C832      1.0  0.83904  0.54215  0.26513  1.0000
  C   C833      1.0  0.90164  0.51125  0.20845  1.0000
  H   H832      1.0  0.85447  0.57418  0.20309  1.0000
  C   C834      1.0  0.93943  0.53962  0.22210  1.0000
  H   H833      1.0  0.90494  0.49987  0.25512  1.0000
  S   S278      1.0  0.83861  0.50325  0.20990  1.0000
  H   H834      1.0  0.97907  0.54442  0.46608  1.0000
  C   C835      1.0  0.99262  0.51522  0.32453  1.0000
  C   C836      1.0  0.91205  0.51107  0.23747  1.0000
  C   C837      1.0  0.92945  0.54019  0.19280  1.0000
  H   H835      1.0  0.93615  0.55204  0.17610  1.0000
  C   C838      1.0  0.82916  0.50354  0.02599  1.0000
  H   H836      1.0  0.90224  0.52659  0.16403  1.0000
  H   H837      1.0  0.80745  0.50396  0.26948  1.0000
  H   H838      1.0  0.98051  0.52477  0.44376  1.0000
  S   S279      1.0  0.98863  0.57607  0.27586  1.0000
  Fe  Fe140     1.0  0.81091  0.49827  0.18152  1.0000
  H   H839      1.0  0.74806  0.50404  0.06027  1.0000
  C   C839      1.0  0.98837  0.53707  0.46223  1.0000
  S   S280      1.0  0.99204  0.52854  0.29037  1.0000
  C   C840      1.0  0.98033  0.58713  0.50000  1.0000
  H   H840      1.0  0.87574  0.53081  0.00397  1.0000
  C   C841      1.0  0.76460  0.49812  0.19137  1.0000
  C   C842      1.0  0.86021  0.52178  0.00108  1.0000
  H   H841      1.0  0.88571  0.50059  0.91384  1.0000
  S   S281      1.0  0.83901  0.52588  0.84801  1.0000
  C   C843      1.0  0.75614  0.53914  0.86270  1.0000
  Fe  Fe141     1.0  0.85476  0.51834  0.80765  1.0000
  S   S282      1.0  0.87246  0.53722  0.76583  1.0000
  S   S283      1.0  0.99213  0.59873  0.66973  1.0000
  C   C844      1.0  0.90189  0.51491  0.68237  1.0000
  H   H842      1.0  0.78625  0.53236  0.86242  1.0000
  C   C845      1.0  0.78072  0.53103  0.88800  1.0000
  C   C846      1.0  0.82019  0.49841  0.99385  1.0000
  S   S284      1.0  0.97919  0.55463  0.63930  1.0000
  S   S285      1.0  0.98171  0.58858  0.56893  1.0000
  H   H843      1.0  0.93095  0.52109  0.66954  1.0000
  H   H844      1.0  0.75419  0.51636  0.93379  1.0000
  Fe  Fe142     1.0  0.98014  0.56865  0.68969  1.0000
  S   S286      1.0  0.95902  0.55471  0.73144  1.0000
  S   S287      1.0  0.86572  0.52324  0.93377  1.0000
  H   H845      1.0  0.82415  0.50060  0.94076  1.0000
  C   C847      1.0  0.74978  0.52287  0.91375  1.0000
  C   C848      1.0  0.76655  0.50349  0.80367  1.0000
  H   H846      1.0  0.99091  0.57123  0.77802  1.0000
  Fe  Fe143     1.0  0.85128  0.51139  0.88271  1.0000
  H   H847      1.0  0.76540  0.54523  0.84195  1.0000
  H   H848      1.0  0.75324  0.51581  0.76992  1.0000
  C   C849      1.0  0.89718  0.54354  0.75818  1.0000
  C   C850      1.0  0.90567  0.55413  0.72994  1.0000
  C   C851      1.0  0.92473  0.55816  0.72167  1.0000
  C   C852      1.0  0.93556  0.55165  0.74165  1.0000
  C   C853      1.0  0.92724  0.54151  0.77032  1.0000
  C   C854      1.0  0.90822  0.53746  0.77853  1.0000
  H   H849      1.0  0.89734  0.55900  0.71407  1.0000
  H   H850      1.0  0.93091  0.56604  0.69960  1.0000
  H   H851      1.0  0.93547  0.53649  0.78609  1.0000
  H   H852      1.0  0.90206  0.52950  0.80047  1.0000
  C   C855      1.0  0.75150  0.50772  0.79228  1.0000
  H   H853      1.0  0.77986  0.51720  0.89720  1.0000
  H   H854      1.0  0.87433  0.50802  0.70301  1.0000
  C   C856      1.0  0.85126  0.51643  0.96892  1.0000
  H   H855      1.0  0.99021  0.52789  0.68773  1.0000
  C   C857      1.0  0.88756  0.50646  0.70560  1.0000
  C   C858      1.0  0.99151  0.58857  0.52927  1.0000
  H   H856      1.0  0.89980  0.52292  0.66213  1.0000
  N   N72       1.0  0.76165  0.53079  0.88787  1.0000
  C   C859      1.0  0.91935  0.51385  0.68647  1.0000
  H   H857      1.0  0.77971  0.50827  0.79011  1.0000
  C   C860      1.0  0.83119  0.50479  0.96539  1.0000
  S   S288      1.0  0.86886  0.50654  0.84352  1.0000
  H   H858      1.0  0.79138  0.54338  0.90415  1.0000
  C   C861      1.0  0.99199  0.53880  0.52347  1.0000
  C   C862      1.0  0.92215  0.50412  0.71331  1.0000
  C   C863      1.0  0.99303  0.51561  0.68294  1.0000
  H   H859      1.0  0.99368  0.61441  0.78175  1.0000
  Fe  Fe144     1.0  0.99352  0.58484  0.61986  1.0000
  H   H860      1.0  0.98636  0.59539  0.74953  1.0000
  H   H861      1.0  0.98737  0.55010  0.52428  1.0000
  H   H862      1.0  0.93590  0.50369  0.71707  1.0000
  C   C864      1.0  0.98329  0.49859  0.70046  1.0000
  H   H863      1.0  0.97307  0.49784  0.71885  1.0000
  H   H864      1.0  0.96605  0.58626  0.50208  1.0000
