data_image0
_chemical_formula_structural       HCFeS2HC2NSFeS2FeS2FeS3HSH2FeSNSC2H3C6H4C6H4C6H2CH4CHCHC3HC4H3CH2CFeC2H3NHC2H4SC2HSHFe2CHFeSCH2CSH4CHCFeS2FeS2FeSFeS3HSFeSCSFeS3H2C6H4C6H4C6H5C2H5CN2C2FeHFeSHCNC4HNC6H2CHCH3NC5H10C2SCHCHFeCHCH2SHCHC2HCHC2H4NH6CHCHC2H2CSCSCH2Fe2SHCH2S2CH2NHC2H4CH2SHSFeSC2FeSC2SFeS2FeS2FeSFeS3C6H4C3HCH3C6H2FeHC6HCH2CNC6H4C4H5SNHSHSC2H2C3H2NHC3HC5H4NC6H8NCH4C2NH3CHCH2C2HSH4CH2CNSHCHCHC2HCHCHSHC3FeS2FeS2FeSFeS3FeS2FeS2FeSFeHS3FeS2FeSHFeSFeS4CFeS2CFeC6H4C6H5C2HCHC4H3C7H3C6H4C2HCSC4H2CH2SNHC2HCNC6H9CHFeHC3HC2H5NHNCHNC5H6CHCHSH3CHCHCH2C3H2C5H2CHSNCHC3HCNCH3FeCHC2H2SHC2HC2HNHCHSCH2C2H6CH3C2SCHCHCFeS2FeS2FeHFeS3FeS2FeS2FeSFeCS2FeS2FeS2FeSFeS3H3CHC6H4C4H2C7H4CHNHC2NCHC6H4CHC7H4CHCHC5HNC6H5CHNHCH2CHC3H3C2HC2HC2H7NH3CHC3H3NH2CHCH2CHCHCH4SHCH5C2HC2S2FeS2FeS2FeCFeS3FeS2CHFeS3FeSHSFeSFeS2FeS2FeSFeS3FeCFeS2FeCS2C6H3CSHCNH3C7H3CHC4HCHCHC6H4C6H4CH3FeSC4HCNC6H4NCH7CSFeHCHCHCFeCH5CHC2H3SNCHCHCHCFeH2CHSC4HCSH2CH6CSHNCHCHCH2C2HCH3CHCNHC2HCH2C2HSHC2HFeH3CNCNFeCH2CHC2HCFeCHCH2CH2CSFeSHC7H3SCH3CH3CHCSH2CFeS2NFeS2FeS2FeSFeSFeS3FeH2CSH3FeSHFeHFeHS2HS2CHC2HCH2CH2CNHNC3HC6H4C6H5C2H2C7H4CFeH6SHC2H2FeC2H2CH2CNSCHCHSCNC6H3FeSCH2CNHC2HC3HCH2C2HC3HSFeH2CSH2C2HC4H4NCHCSC3HCH2C2HCH3C2S2H2C3HSH2C2S2H2FeSCHSCHCHFeSH2NS2H4CH2C6H2C2SH2C4FeCNHC2SH2CSH2FeC
_chemical_formula_sum              "H576 C576 Fe96 S192 N48"
_cell_length_a       72.2817
_cell_length_b       72.0483
_cell_length_c       30.7606
_cell_angle_alpha    90.9182
_cell_angle_beta     91.1017
_cell_angle_gamma    117.753

_space_group_name_H-M_alt    "P 1"
_space_group_IT_number       1

loop_
  _space_group_symop_operation_xyz
  'x, y, z'

loop_
  _atom_site_type_symbol
  _atom_site_label
  _atom_site_symmetry_multiplicity
  _atom_site_fract_x
  _atom_site_fract_y
  _atom_site_fract_z
  _atom_site_occupancy
  H   H1        1.0  0.04407  0.44818  0.00318  1.0000
  C   C1        1.0  0.02666  0.38902  0.01115  1.0000
  Fe  Fe1       1.0  0.29838  0.45576  0.09801  1.0000
  S   S1        1.0  0.32328  0.47569  0.05118  1.0000
  S   S2        1.0  0.27072  0.46121  0.11937  1.0000
  H   H2        1.0  0.00575  0.36031  0.58849  1.0000
  C   C2        1.0  0.15861  0.41704  0.19861  1.0000
  C   C3        1.0  0.16676  0.40731  0.12890  1.0000
  N   N1        1.0  0.14606  0.39800  0.11644  1.0000
  S   S3        1.0  0.29676  0.42535  0.07319  1.0000
  Fe  Fe2       1.0  0.15258  0.44912  0.07244  1.0000
  S   S4        1.0  0.14812  0.47511  0.04232  1.0000
  S   S5        1.0  0.17907  0.44247  0.04906  1.0000
  Fe  Fe3       1.0  0.11242  0.43508  0.12501  1.0000
  S   S6        1.0  0.10576  0.46042  0.09974  1.0000
  S   S7        1.0  0.08960  0.40862  0.16604  1.0000
  Fe  Fe4       1.0  0.11392  0.45216  0.03462  1.0000
  S   S8        1.0  0.09493  0.45381  0.97656  1.0000
  S   S9        1.0  0.11865  0.42545  0.05894  1.0000
  S   S10       1.0  0.14665  0.45652  0.14050  1.0000
  H   H3        1.0  0.02320  0.49466  0.70594  1.0000
  S   S11       1.0  0.02578  0.37453  0.87026  1.0000
  H   H4        1.0  0.00404  0.45119  0.44056  1.0000
  H   H5        1.0  0.29005  0.39506  0.99916  1.0000
  Fe  Fe5       1.0  0.00581  0.39725  0.34842  1.0000
  S   S12       1.0  0.03458  0.42071  0.31324  1.0000
  N   N2        1.0  0.02377  0.41746  0.97734  1.0000
  S   S13       1.0  0.99972  0.40840  0.41307  1.0000
  C   C4        1.0  0.01385  0.42492  0.94477  1.0000
  C   C5        1.0  0.03877  0.43148  0.00573  1.0000
  H   H6        1.0  0.14003  0.37255  0.07297  1.0000
  H   H7        1.0  0.31948  0.39515  0.06546  1.0000
  H   H8        1.0  0.17836  0.40760  0.10662  1.0000
  C   C6        1.0  0.07385  0.41212  0.20575  1.0000
  C   C7        1.0  0.07677  0.43207  0.21828  1.0000
  C   C8        1.0  0.06449  0.43431  0.25097  1.0000
  C   C9        1.0  0.04900  0.41669  0.27122  1.0000
  C   C10       1.0  0.04585  0.39670  0.25820  1.0000
  C   C11       1.0  0.05830  0.39446  0.22579  1.0000
  H   H9        1.0  0.08870  0.44579  0.20334  1.0000
  H   H10       1.0  0.06707  0.44983  0.26092  1.0000
  H   H11       1.0  0.03409  0.38302  0.27365  1.0000
  H   H12       1.0  0.05595  0.37895  0.21646  1.0000
  C   C12       1.0  0.07697  0.43167  0.94520  1.0000
  C   C13       1.0  0.06460  0.43443  0.91269  1.0000
  C   C14       1.0  0.04913  0.41709  0.88898  1.0000
  C   C15       1.0  0.04601  0.39683  0.89731  1.0000
  C   C16       1.0  0.05882  0.39413  0.92887  1.0000
  C   C17       1.0  0.07413  0.41145  0.95302  1.0000
  H   H13       1.0  0.06686  0.45004  0.90612  1.0000
  H   H14       1.0  0.03968  0.41941  0.86416  1.0000
  H   H15       1.0  0.05661  0.37851  0.93521  1.0000
  H   H16       1.0  0.08362  0.40915  0.97777  1.0000
  C   C18       1.0  0.20453  0.44794  0.06934  1.0000
  C   C19       1.0  0.21713  0.44236  0.04343  1.0000
  C   C20       1.0  0.23731  0.44616  0.05807  1.0000
  C   C21       1.0  0.24523  0.45565  0.09901  1.0000
  C   C22       1.0  0.23253  0.46111  0.12501  1.0000
  C   C23       1.0  0.21233  0.45723  0.11044  1.0000
  H   H17       1.0  0.21131  0.43507  0.01164  1.0000
  H   H18       1.0  0.24678  0.44186  0.03759  1.0000
  C   C24       1.0  0.01755  0.39644  0.97998  1.0000
  H   H19       1.0  0.20285  0.46147  0.13103  1.0000
  H   H20       1.0  0.18989  0.42480  0.17930  1.0000
  H   H21       1.0  0.12354  0.38486  0.06366  1.0000
  H   H22       1.0  0.30763  0.36799  0.07950  1.0000
  C   C25       1.0  0.13142  0.39756  0.14458  1.0000
  H   H23       1.0  0.28722  0.38790  0.91999  1.0000
  C   C26       1.0  0.04212  0.40323  0.03995  1.0000
  H   H24       1.0  0.31625  0.35356  0.01774  1.0000
  C   C27       1.0  0.04821  0.42460  0.03729  1.0000
  C   C28       1.0  0.30914  0.36053  0.99664  1.0000
  C   C29       1.0  0.00327  0.46523  0.45130  1.0000
  H   H25       1.0  0.00999  0.44251  0.84045  1.0000
  C   C30       1.0  0.30763  0.35611  0.95185  1.0000
  C   C31       1.0  0.13959  0.38775  0.07326  1.0000
  C   C32       1.0  0.29446  0.38362  0.98630  1.0000
  C   C33       1.0  0.17338  0.41708  0.17000  1.0000
  H   H26       1.0  0.31375  0.34611  0.93842  1.0000
  H   H27       1.0  0.03217  0.47732  0.81022  1.0000
  H   H28       1.0  0.02217  0.37241  0.01205  1.0000
  C   C34       1.0  0.29948  0.36580  0.92410  1.0000
  H   H29       1.0  0.21029  0.48770  0.01969  1.0000
  H   H30       1.0  0.29166  0.38067  0.07280  1.0000
  C   C35       1.0  0.30544  0.37968  0.05987  1.0000
  Fe  Fe6       1.0  0.32320  0.44548  0.03027  1.0000
  C   C36       1.0  0.01965  0.48508  0.44323  1.0000
  C   C37       1.0  0.29277  0.37959  0.94136  1.0000
  H   H31       1.0  0.23843  0.46841  0.15677  1.0000
  H   H32       1.0  0.04967  0.39778  0.06373  1.0000
  H   H33       1.0  0.06064  0.43583  0.05865  1.0000
  N   N3        1.0  0.30249  0.37406  0.01332  1.0000
  H   H34       1.0  0.12579  0.40707  0.20780  1.0000
  C   C38       1.0  0.01783  0.47434  0.82602  1.0000
  C   C39       1.0  0.00918  0.48068  0.71440  1.0000
  H   H35       1.0  0.32275  0.32873  0.42009  1.0000
  H   H36       1.0  0.02451  0.44127  0.93554  1.0000
  H   H37       1.0  0.16350  0.42473  0.23044  1.0000
  H   H38       1.0  0.15021  0.39793  0.04818  1.0000
  S   S14       1.0  0.32243  0.46006  0.15108  1.0000
  C   C40       1.0  0.13747  0.40714  0.18597  1.0000
  C   C41       1.0  0.99867  0.46654  0.33875  1.0000
  H   H39       1.0  0.11495  0.39001  0.13505  1.0000
  S   S15       1.0  0.99985  0.40370  0.80152  1.0000
  H   H40       1.0  0.29917  0.36325  0.88916  1.0000
  Fe  Fe7       1.0  0.14025  0.48118  0.10927  1.0000
  Fe  Fe8       1.0  0.32247  0.43119  0.12291  1.0000
  C   C42       1.0  0.01182  0.49015  0.82919  1.0000
  H   H41       1.0  0.02214  0.45957  0.70211  1.0000
  Fe  Fe9       1.0  0.99810  0.37610  0.83780  1.0000
  S   S16       1.0  0.32319  0.40448  0.16001  1.0000
  C   C43       1.0  0.00864  0.46107  0.71263  1.0000
  H   H42       1.0  0.00990  0.41519  0.91430  1.0000
  H   H43       1.0  0.01339  0.46980  0.32431  1.0000
  C   C44       1.0  0.00514  0.45454  0.84263  1.0000
  S   S17       1.0  0.32587  0.43908  0.95891  1.0000
  H   H44       1.0  0.03310  0.48622  0.42607  1.0000
  H   H45       1.0  0.00602  0.38532  0.95691  1.0000
  H   H46       1.0  0.99926  0.42423  0.95741  1.0000
  H   H47       1.0  0.32953  0.31698  0.34827  1.0000
  C   C45       1.0  0.20684  0.49941  0.03492  1.0000
  H   H48       1.0  0.22022  0.49821  0.09731  1.0000
  C   C46       1.0  0.00106  0.50137  0.47540  1.0000
  Fe  Fe10      1.0  0.12732  0.62100  0.15412  1.0000
  S   S18       1.0  0.13421  0.65305  0.13183  1.0000
  S   S19       1.0  0.11238  0.60297  0.21441  1.0000
  Fe  Fe11      1.0  0.14110  0.60932  0.06861  1.0000
  S   S20       1.0  0.14883  0.64034  0.03862  1.0000
  S   S21       1.0  0.13830  0.58062  0.03168  1.0000
  Fe  Fe12      1.0  0.16393  0.65488  0.10430  1.0000
  S   S22       1.0  0.19780  0.68067  0.11863  1.0000
  Fe  Fe13      1.0  0.11892  0.63636  0.06810  1.0000
  S   S23       1.0  0.09021  0.63714  0.03948  1.0000
  S   S24       1.0  0.15784  0.62357  0.13196  1.0000
  S   S25       1.0  0.11035  0.60451  0.09269  1.0000
  H   H49       1.0  0.13273  0.53513  0.23536  1.0000
  S   S26       1.0  0.15407  0.51420  0.13758  1.0000
  Fe  Fe14      1.0  0.02501  0.58041  0.83134  1.0000
  S   S27       1.0  0.05497  0.61032  0.84534  1.0000
  C   C47       1.0  0.23645  0.71572  0.11571  1.0000
  S   S28       1.0  0.02430  0.56325  0.76932  1.0000
  Fe  Fe15      1.0  0.01563  0.57909  0.34873  1.0000
  S   S29       1.0  0.03733  0.60743  0.31070  1.0000
  S   S30       1.0  0.02796  0.56225  0.39127  1.0000
  S   S31       1.0  0.01470  0.55234  0.87250  1.0000
  H   H50       1.0  0.00380  0.60187  0.73835  1.0000
  H   H51       1.0  0.19237  0.53923  0.08979  1.0000
  C   C48       1.0  0.09193  0.60488  0.24141  1.0000
  C   C49       1.0  0.07859  0.58818  0.26691  1.0000
  C   C50       1.0  0.06199  0.58892  0.28862  1.0000
  C   C51       1.0  0.05883  0.60660  0.28580  1.0000
  C   C52       1.0  0.07240  0.62350  0.26089  1.0000
  C   C53       1.0  0.08877  0.62257  0.23837  1.0000
  H   H52       1.0  0.08097  0.57448  0.26962  1.0000
  H   H53       1.0  0.05161  0.57577  0.30745  1.0000
  H   H54       1.0  0.07012  0.63727  0.25874  1.0000
  H   H55       1.0  0.09911  0.63564  0.21925  1.0000
  C   C54       1.0  0.08147  0.62806  0.98552  1.0000
  C   C55       1.0  0.09342  0.63880  0.95034  1.0000
  C   C56       1.0  0.08507  0.63327  0.90761  1.0000
  C   C57       1.0  0.06484  0.61673  0.89960  1.0000
  C   C58       1.0  0.05310  0.60559  0.93470  1.0000
  C   C59       1.0  0.06129  0.61143  0.97754  1.0000
  H   H56       1.0  0.10878  0.65198  0.95619  1.0000
  H   H57       1.0  0.09421  0.64205  0.88070  1.0000
  H   H58       1.0  0.03746  0.59290  0.92898  1.0000
  H   H59       1.0  0.05178  0.60331  0.00458  1.0000
  C   C60       1.0  0.14334  0.56246  0.06073  1.0000
  C   C61       1.0  0.15532  0.56835  0.09951  1.0000
  C   C62       1.0  0.15879  0.55349  0.12248  1.0000
  C   C63       1.0  0.15008  0.53260  0.10713  1.0000
  C   C64       1.0  0.13824  0.52672  0.06816  1.0000
  C   C65       1.0  0.13503  0.54166  0.04485  1.0000
  H   H60       1.0  0.16204  0.58440  0.11168  1.0000
  H   H61       1.0  0.16808  0.55817  0.15247  1.0000
  H   H62       1.0  0.02418  0.62885  0.74014  1.0000
  H   H63       1.0  0.12582  0.53702  0.01475  1.0000
  H   H64       1.0  0.14650  0.58950  0.20925  1.0000
  C   C66       1.0  0.20851  0.71873  0.07760  1.0000
  C   C67       1.0  0.21523  0.70662  0.10200  1.0000
  H   H65       1.0  0.24190  0.70656  0.13448  1.0000
  H   H66       1.0  0.05081  0.53478  0.88333  1.0000
  H   H67       1.0  0.19231  0.71208  0.06678  1.0000
  H   H68       1.0  0.06879  0.53345  0.95211  1.0000
  H   H69       1.0  0.03270  0.56751  0.20337  1.0000
  C   C68       1.0  0.06416  0.64238  0.13075  1.0000
  N   N4        1.0  0.02652  0.60971  0.68970  1.0000
  N   N5        1.0  0.12664  0.55667  0.19850  1.0000
  C   C69       1.0  0.11622  0.55925  0.16342  1.0000
  C   C70       1.0  0.12454  0.53725  0.20752  1.0000
  Fe  Fe16      1.0  0.00305  0.55867  0.43845  1.0000
  H   H70       1.0  0.13144  0.51063  0.05608  1.0000
  Fe  Fe17      1.0  0.00340  0.53317  0.35796  1.0000
  S   S32       1.0  0.01445  0.55952  0.50905  1.0000
  H   H71       1.0  0.06203  0.57836  0.15223  1.0000
  C   C71       1.0  0.20695  0.51951  0.09846  1.0000
  N   N6        1.0  0.01851  0.50282  0.45579  1.0000
  C   C72       1.0  0.11223  0.51989  0.18031  1.0000
  C   C73       1.0  0.10196  0.52248  0.14388  1.0000
  C   C74       1.0  0.22276  0.73962  0.06759  1.0000
  C   C75       1.0  0.22871  0.74419  0.19728  1.0000
  H   H72       1.0  0.01789  0.59167  0.21992  1.0000
  N   N7        1.0  0.09736  0.58508  0.93189  1.0000
  C   C76       1.0  0.09075  0.56654  0.95278  1.0000
  C   C77       1.0  0.08768  0.58589  0.89379  1.0000
  C   C78       1.0  0.07400  0.54815  0.93556  1.0000
  C   C79       1.0  0.07080  0.56785  0.87586  1.0000
  C   C80       1.0  0.06394  0.54887  0.89692  1.0000
  C   C81       1.0  0.11455  0.60414  0.95150  1.0000
  H   H73       1.0  0.09848  0.56595  0.98296  1.0000
  H   H74       1.0  0.09280  0.60055  0.87714  1.0000
  C   C82       1.0  0.03602  0.52338  0.44711  1.0000
  H   H75       1.0  0.06295  0.56865  0.84601  1.0000
  C   C83       1.0  0.25069  0.73661  0.10572  1.0000
  H   H76       1.0  0.11970  0.61772  0.92974  1.0000
  H   H77       1.0  0.10944  0.60841  0.98226  1.0000
  H   H78       1.0  0.12830  0.60157  0.95890  1.0000
  N   N8        1.0  0.05520  0.62170  0.15039  1.0000
  C   C84       1.0  0.03878  0.61570  0.17773  1.0000
  C   C85       1.0  0.06307  0.60826  0.14018  1.0000
  C   C86       1.0  0.03021  0.59597  0.19655  1.0000
  C   C87       1.0  0.05504  0.58852  0.15878  1.0000
  C   C88       1.0  0.03856  0.58241  0.18731  1.0000
  H   H79       1.0  0.06437  0.60482  0.63527  1.0000
  H   H80       1.0  0.03261  0.62636  0.18626  1.0000
  H   H81       1.0  0.07597  0.61302  0.11829  1.0000
  H   H82       1.0  0.18717  0.53666  0.97361  1.0000
  H   H83       1.0  0.08152  0.64938  0.13020  1.0000
  H   H84       1.0  0.99997  0.51542  0.48471  1.0000
  H   H85       1.0  0.05435  0.60861  0.71026  1.0000
  H   H86       1.0  0.09634  0.54461  0.10671  1.0000
  H   H87       1.0  0.15259  0.57298  0.24306  1.0000
  H   H88       1.0  0.05818  0.64082  0.09660  1.0000
  C   C89       1.0  0.10388  0.54226  0.13539  1.0000
  C   C90       1.0  0.04452  0.60836  0.68290  1.0000
  S   S33       1.0  0.01151  0.50847  0.33341  1.0000
  C   C91       1.0  0.05035  0.60636  0.64062  1.0000
  H   H89       1.0  0.11784  0.57462  0.15633  1.0000
  C   C92       1.0  0.00240  0.55737  0.55992  1.0000
  H   H90       1.0  0.06044  0.65352  0.14925  1.0000
  Fe  Fe18      1.0  0.01152  0.53482  0.81014  1.0000
  C   C93       1.0  0.01413  0.60940  0.65522  1.0000
  H   H91       1.0  0.01261  0.55352  0.66784  1.0000
  C   C94       1.0  0.13948  0.57467  0.22750  1.0000
  H   H92       1.0  0.12960  0.57627  0.25306  1.0000
  H   H93       1.0  0.02644  0.55334  0.59461  1.0000
  S   S34       1.0  0.02684  0.51418  0.80489  1.0000
  H   H94       1.0  0.18015  0.54519  0.02282  1.0000
  C   C95       1.0  0.01233  0.55489  0.59758  1.0000
  H   H95       1.0  0.16354  0.51925  0.00073  1.0000
  C   C96       1.0  0.02076  0.61233  0.73396  1.0000
  C   C97       1.0  0.19664  0.52828  0.07390  1.0000
  H   H96       1.0  0.00935  0.60661  0.58531  1.0000
  C   C98       1.0  0.01957  0.60758  0.61254  1.0000
  H   H97       1.0  0.02947  0.60822  0.75899  1.0000
  C   C99       1.0  0.03776  0.60597  0.60527  1.0000
  C   C100      1.0  0.18010  0.53142  0.00577  1.0000
  H   H98       1.0  0.19199  0.50361  0.97754  1.0000
  H   H99       1.0  0.05094  0.52437  0.45984  1.0000
  H   H100      1.0  0.23655  0.73410  0.19942  1.0000
  H   H101      1.0  0.04170  0.60377  0.57230  1.0000
  N   N9        1.0  0.19167  0.52282  0.03082  1.0000
  H   H102      1.0  0.09291  0.50927  0.12183  1.0000
  H   H103      1.0  0.99957  0.60990  0.66069  1.0000
  H   H104      1.0  0.21849  0.73893  0.16736  1.0000
  H   H105      1.0  0.21055  0.52366  0.13277  1.0000
  H   H106      1.0  0.21865  0.74153  0.22572  1.0000
  H   H107      1.0  0.26687  0.74330  0.11674  1.0000
  C   C101      1.0  0.00453  0.55500  0.63923  1.0000
  H   H108      1.0  0.03413  0.53640  0.46278  1.0000
  C   C102      1.0  0.21219  0.50511  0.07869  1.0000
  H   H109      1.0  0.03712  0.52582  0.41148  1.0000
  C   C103      1.0  0.19653  0.50848  0.01130  1.0000
  C   C104      1.0  0.24392  0.74877  0.08165  1.0000
  H   H110      1.0  0.11124  0.50467  0.18667  1.0000
  H   H111      1.0  0.21729  0.74879  0.04887  1.0000
  C   C105      1.0  0.25659  0.80045  0.16534  1.0000
  S   S35       1.0  0.30561  0.83174  0.10491  1.0000
  C   C106      1.0  0.24209  0.77916  0.16607  1.0000
  S   S36       1.0  0.26082  0.77566  0.07019  1.0000
  C   C107      1.0  0.27318  0.80870  0.19580  1.0000
  H   H112      1.0  0.28846  0.80185  0.24926  1.0000
  H   H113      1.0  0.22950  0.77284  0.14162  1.0000
  Fe  Fe19      1.0  0.29544  0.79733  0.08896  1.0000
  Fe  Fe20      1.0  0.32355  0.82798  0.16142  1.0000
  S   S37       1.0  0.31133  0.79332  0.14884  1.0000
  H   H114      1.0  0.25523  0.81032  0.14051  1.0000
  C   C108      1.0  0.27529  0.79557  0.22609  1.0000
  H   H115      1.0  0.28461  0.82518  0.19551  1.0000
  H   H116      1.0  0.32735  0.86902  0.88624  1.0000
  S   S38       1.0  0.32715  0.84066  0.23097  1.0000
  S   S39       1.0  0.32286  0.80458  0.04520  1.0000
  C   C109      1.0  0.26061  0.77430  0.22566  1.0000
  H   H117      1.0  0.32622  0.85327  0.95838  1.0000
  H   H118      1.0  0.32666  0.87579  0.18562  1.0000
  N   N10       1.0  0.24428  0.76637  0.19588  1.0000
  H   H119      1.0  0.26245  0.76414  0.24907  1.0000
  C   C110      1.0  0.60695  0.03282  0.14726  1.0000
  C   C111      1.0  0.58947  0.06915  0.93975  1.0000
  H   H120      1.0  0.60080  0.02289  0.11719  1.0000
  H   H121      1.0  0.41257  0.02917  0.08111  1.0000
  H   H122      1.0  0.48578  0.02811  0.30775  1.0000
  H   H123      1.0  0.64019  0.05485  0.09996  1.0000
  C   C112      1.0  0.63337  0.05904  0.86645  1.0000
  H   H124      1.0  0.60194  0.16674  0.08217  1.0000
  H   H125      1.0  0.44439  0.01019  0.95865  1.0000
  S   S40       1.0  0.61637  0.08144  0.20812  1.0000
  H   H126      1.0  0.65739  0.02736  0.23243  1.0000
  S   S41       1.0  0.44620  0.02705  0.33993  1.0000
  Fe  Fe21      1.0  0.63817  0.10096  0.15584  1.0000
  S   S42       1.0  0.62539  0.08722  0.08922  1.0000
  C   C113      1.0  0.65174  0.18392  0.15438  1.0000
  C   C114      1.0  0.48220  0.23042  0.09708  1.0000
  Fe  Fe22      1.0  0.62962  0.11911  0.07374  1.0000
  S   S43       1.0  0.60410  0.12166  0.03477  1.0000
  C   C115      1.0  0.61608  0.17178  0.10217  1.0000
  C   C116      1.0  0.46065  0.21690  0.09700  1.0000
  S   S44       1.0  0.64042  0.13239  0.14106  1.0000
  Fe  Fe23      1.0  0.47676  0.10416  0.03696  1.0000
  S   S45       1.0  0.44859  0.10241  0.06941  1.0000
  S   S46       1.0  0.47849  0.09264  0.96899  1.0000
  Fe  Fe24      1.0  0.50439  0.12283  0.11752  1.0000
  S   S47       1.0  0.47818  0.12236  0.15725  1.0000
  S   S48       1.0  0.53646  0.13187  0.14675  1.0000
  Fe  Fe25      1.0  0.45900  0.09016  0.12680  1.0000
  S   S49       1.0  0.43509  0.05959  0.15557  1.0000
  Fe  Fe26      1.0  0.47006  0.13503  0.09700  1.0000
  S   S50       1.0  0.45607  0.15798  0.09657  1.0000
  S   S51       1.0  0.48577  0.08984  0.09201  1.0000
  S   S52       1.0  0.49764  0.13758  0.05955  1.0000
  C   C117      1.0  0.58393  0.12206  0.06569  1.0000
  C   C118      1.0  0.58453  0.12135  0.11108  1.0000
  C   C119      1.0  0.56968  0.12403  0.13554  1.0000
  C   C120      1.0  0.55373  0.12681  0.11484  1.0000
  C   C121      1.0  0.55257  0.12664  0.06934  1.0000
  C   C122      1.0  0.56776  0.12447  0.04485  1.0000
  H   H127      1.0  0.59663  0.11911  0.12755  1.0000
  H   H128      1.0  0.57055  0.12393  0.17070  1.0000
  H   H129      1.0  0.54031  0.12878  0.05309  1.0000
  H   H130      1.0  0.56712  0.12496  0.00975  1.0000
  C   C123      1.0  0.46676  0.18598  0.09695  1.0000
  C   C124      1.0  0.48830  0.19948  0.09678  1.0000
  C   C125      1.0  0.49591  0.22149  0.09685  1.0000
  H   H131      1.0  0.37632  0.01001  0.31347  1.0000
  C   C126      1.0  0.45303  0.19489  0.09689  1.0000
  H   H132      1.0  0.49913  0.19302  0.09696  1.0000
  H   H133      1.0  0.51260  0.23171  0.09701  1.0000
  H   H134      1.0  0.43635  0.18469  0.09709  1.0000
  C   C127      1.0  0.44023  0.04972  0.20416  1.0000
  C   C128      1.0  0.45710  0.06221  0.23227  1.0000
  C   C129      1.0  0.45927  0.05468  0.27304  1.0000
  C   C130      1.0  0.44461  0.03466  0.28608  1.0000
  C   C131      1.0  0.42827  0.02183  0.25722  1.0000
  C   C132      1.0  0.42609  0.02935  0.21646  1.0000
  H   H135      1.0  0.46815  0.07790  0.22310  1.0000
  H   H136      1.0  0.47206  0.06467  0.29504  1.0000
  Fe  Fe27      1.0  0.65876  0.09974  0.07177  1.0000
  H   H137      1.0  0.41302  0.01956  0.19491  1.0000
  C   C133      1.0  0.61987  0.06464  0.24477  1.0000
  C   C134      1.0  0.52075  0.01106  0.37454  1.0000
  C   C135      1.0  0.64157  0.05419  0.28874  1.0000
  C   C136      1.0  0.62369  0.03733  0.30495  1.0000
  C   C137      1.0  0.60390  0.03420  0.29098  1.0000
  C   C138      1.0  0.60202  0.04795  0.26142  1.0000
  H   H138      1.0  0.49909  0.02241  0.69506  1.0000
  C   C139      1.0  0.59728  0.05041  0.88328  1.0000
  H   H139      1.0  0.59005  0.02126  0.30324  1.0000
  H   H140      1.0  0.58666  0.04558  0.25118  1.0000
  C   C140      1.0  0.44107  0.03491  0.04953  1.0000
  N   N11       1.0  0.52849  0.02319  0.33894  1.0000
  C   C141      1.0  0.42353  0.03501  0.90450  1.0000
  C   C142      1.0  0.42003  0.04606  0.93869  1.0000
  C   C143      1.0  0.43684  0.06332  0.95973  1.0000
  C   C144      1.0  0.45717  0.07020  0.94542  1.0000
  C   C145      1.0  0.46066  0.05935  0.91088  1.0000
  C   C146      1.0  0.44395  0.04158  0.89096  1.0000
  H   H141      1.0  0.40426  0.04099  0.94937  1.0000
  H   H142      1.0  0.43399  0.07150  0.98646  1.0000
  H   H143      1.0  0.47636  0.06466  0.89953  1.0000
  H   H144      1.0  0.44679  0.03325  0.86449  1.0000
  C   C147      1.0  0.64001  0.02549  0.93547  1.0000
  C   C148      1.0  0.62717  0.03220  0.95739  1.0000
  C   C149      1.0  0.63611  0.04905  0.98850  1.0000
  C   C150      1.0  0.63314  0.02892  0.19307  1.0000
  H   H145      1.0  0.56598  0.04393  0.89964  1.0000
  H   H146      1.0  0.44985  0.22340  0.09725  1.0000
  H   H147      1.0  0.61050  0.02442  0.95043  1.0000
  H   H148      1.0  0.62629  0.05422  0.00548  1.0000
  H   H149      1.0  0.62730  0.04214  0.85739  1.0000
  S   S53       1.0  0.66228  0.13084  0.04974  1.0000
  N   N12       1.0  0.63475  0.17638  0.08366  1.0000
  H   H150      1.0  0.59176  0.03828  0.85776  1.0000
  S   S54       1.0  0.54737  0.01334  0.81952  1.0000
  H   H151      1.0  0.60644  0.04786  0.14279  1.0000
  S   S55       1.0  0.59522  0.00376  0.79558  1.0000
  C   C151      1.0  0.61473  0.17279  0.14738  1.0000
  C   C152      1.0  0.64388  0.04878  0.12907  1.0000
  H   H152      1.0  0.64176  0.08728  0.93126  1.0000
  H   H153      1.0  0.39604  0.05658  0.21490  1.0000
  C   C153      1.0  0.41938  0.02478  0.05421  1.0000
  C   C154      1.0  0.63969  0.06770  0.25834  1.0000
  C   C155      1.0  0.62514  0.07784  0.92399  1.0000
  H   H154      1.0  0.55950  0.02735  0.35147  1.0000
  H   H155      1.0  0.59972  0.16847  0.16188  1.0000
  N   N13       1.0  0.41757  0.05876  0.31473  1.0000
  H   H156      1.0  0.65692  0.05676  0.29967  1.0000
  C   C156      1.0  0.41458  0.06513  0.27470  1.0000
  C   C157      1.0  0.38684  0.02559  0.30251  1.0000
  C   C158      1.0  0.39777  0.05175  0.24735  1.0000
  H   H157      1.0  0.55777  0.04545  0.31442  1.0000
  C   C159      1.0  0.43516  0.07304  0.34315  1.0000
  C   C160      1.0  0.51614  0.02919  0.31490  1.0000
  C   C161      1.0  0.63603  0.17477  0.03637  1.0000
  C   C162      1.0  0.49559  0.02336  0.32678  1.0000
  C   C163      1.0  0.40384  0.03937  0.32901  1.0000
  H   H158      1.0  0.54897  0.01839  0.29732  1.0000
  H   H159      1.0  0.44857  0.08392  0.32380  1.0000
  H   H160      1.0  0.43019  0.08230  0.36471  1.0000
  H   H161      1.0  0.44105  0.06415  0.36347  1.0000
  N   N14       1.0  0.46596  0.13764  0.95919  1.0000
  C   C164      1.0  0.45730  0.14572  0.98823  1.0000
  C   C165      1.0  0.45365  0.11939  0.93635  1.0000
  C   C166      1.0  0.43585  0.13517  0.99576  1.0000
  C   C167      1.0  0.43215  0.10839  0.94317  1.0000
  C   C168      1.0  0.42325  0.11632  0.97327  1.0000
  C   C169      1.0  0.48845  0.14875  0.95135  1.0000
  H   H162      1.0  0.46697  0.16025  0.00637  1.0000
  H   H163      1.0  0.46053  0.11295  0.91337  1.0000
  H   H164      1.0  0.42918  0.14145  0.01961  1.0000
  H   H165      1.0  0.42258  0.09366  0.92567  1.0000
  H   H166      1.0  0.40666  0.10783  0.97944  1.0000
  H   H167      1.0  0.49116  0.15582  0.91880  1.0000
  H   H168      1.0  0.49706  0.16139  0.97630  1.0000
  H   H169      1.0  0.49518  0.13766  0.95286  1.0000
  N   N15       1.0  0.61824  0.06233  0.89228  1.0000
  C   C170      1.0  0.61087  0.08140  0.94837  1.0000
  H   H170      1.0  0.52212  0.03842  0.28616  1.0000
  H   H171      1.0  0.37104  0.02113  0.24011  1.0000
  H   H172      1.0  0.59643  0.02488  0.17439  1.0000
  H   H173      1.0  0.57829  0.07181  0.95846  1.0000
  C   C171      1.0  0.65376  0.03324  0.20290  1.0000
  C   C172      1.0  0.58259  0.05355  0.90694  1.0000
  N   N16       1.0  0.44983  0.02984  0.01528  1.0000
  H   H174      1.0  0.45078  0.04699  0.07332  1.0000
  H   H175      1.0  0.42560  0.08036  0.26300  1.0000
  H   H176      1.0  0.61634  0.09354  0.97391  1.0000
  C   C173      1.0  0.48764  0.01114  0.36320  1.0000
  H   H177      1.0  0.63670  0.06821  0.83635  1.0000
  C   C174      1.0  0.54972  0.02891  0.32488  1.0000
  H   H178      1.0  0.53236  0.02002  0.70154  1.0000
  H   H179      1.0  0.64554  0.19056  0.02305  1.0000
  C   C175      1.0  0.40668  0.00921  0.02382  1.0000
  C   C176      1.0  0.66148  0.03540  0.94527  1.0000
  H   H180      1.0  0.64826  0.06374  0.88528  1.0000
  S   S56       1.0  0.62643  0.02005  0.34151  1.0000
  H   H181      1.0  0.63177  0.17916  0.20874  1.0000
  H   H182      1.0  0.51156  0.02107  0.82129  1.0000
  H   H183      1.0  0.53017  0.00547  0.39245  1.0000
  H   H184      1.0  0.41691  0.00635  0.26682  1.0000
  C   C177      1.0  0.50026  0.00492  0.38728  1.0000
  H   H185      1.0  0.48000  0.03385  0.03299  1.0000
  H   H186      1.0  0.40635  0.03422  0.36054  1.0000
  C   C178      1.0  0.63268  0.17878  0.17360  1.0000
  N   N17       1.0  0.62849  0.03696  0.15689  1.0000
  S   S57       1.0  0.40204  0.01299  0.88007  1.0000
  H   H187      1.0  0.65352  0.08067  0.24609  1.0000
  C   C179      1.0  0.65782  0.05914  0.99726  1.0000
  H   H188      1.0  0.62103  0.01963  0.21539  1.0000
  C   C180      1.0  0.38386  0.03184  0.26138  1.0000
  H   H189      1.0  0.47709  0.03979  0.97703  1.0000
  C   C181      1.0  0.47260  0.04073  0.01105  1.0000
  C   C182      1.0  0.43753  0.01423  0.98595  1.0000
  H   H190      1.0  0.62029  0.16746  0.01996  1.0000
  C   C183      1.0  0.65249  0.18265  0.10907  1.0000
  H   H191      1.0  0.64328  0.16454  0.02830  1.0000
  C   C184      1.0  0.41578  0.00378  0.98962  1.0000
  H   H192      1.0  0.47163  0.00627  0.37235  1.0000
  S   S58       1.0  0.63082  0.00521  0.89500  1.0000
  H   H193      1.0  0.47901  0.05773  0.01942  1.0000
  C   C185      1.0  0.51776  0.00717  0.71153  1.0000
  C   C186      1.0  0.50706  0.00563  0.83367  1.0000
  C   C187      1.0  0.49916  0.00856  0.70817  1.0000
  Fe  Fe28      1.0  0.42255  0.41986  0.82501  1.0000
  S   S59       1.0  0.39155  0.40231  0.78969  1.0000
  S   S60       1.0  0.43914  0.45505  0.82853  1.0000
  Fe  Fe29      1.0  0.42424  0.38023  0.85333  1.0000
  S   S61       1.0  0.39324  0.35921  0.82050  1.0000
  S   S62       1.0  0.44735  0.37143  0.88610  1.0000
  Fe  Fe30      1.0  0.40425  0.38109  0.76360  1.0000
  S   S63       1.0  0.40973  0.37239  0.69465  1.0000
  Fe  Fe31      1.0  0.38333  0.38233  0.84904  1.0000
  S   S64       1.0  0.35542  0.37430  0.89116  1.0000
  S   S65       1.0  0.43593  0.40046  0.79520  1.0000
  S   S66       1.0  0.41364  0.40155  0.88561  1.0000
  Fe  Fe32      1.0  0.39722  0.38160  0.43596  1.0000
  S   S67       1.0  0.41513  0.41477  0.41478  1.0000
  S   S68       1.0  0.37937  0.37535  0.49929  1.0000
  Fe  Fe33      1.0  0.40735  0.36456  0.35252  1.0000
  S   S69       1.0  0.42615  0.39644  0.32577  1.0000
  S   S70       1.0  0.40224  0.33576  0.31230  1.0000
  Fe  Fe34      1.0  0.43918  0.40552  0.39395  1.0000
  S   S71       1.0  0.47269  0.42726  0.41273  1.0000
  Fe  Fe35      1.0  0.40052  0.40330  0.34797  1.0000
  H   H194      1.0  0.43390  0.32121  0.13683  1.0000
  S   S72       1.0  0.42246  0.37292  0.41958  1.0000
  S   S73       1.0  0.38035  0.37056  0.37036  1.0000
  S   S74       1.0  0.34839  0.44878  0.07760  1.0000
  Fe  Fe36      1.0  0.45590  0.30424  0.06496  1.0000
  S   S75       1.0  0.47722  0.33550  0.09505  1.0000
  S   S76       1.0  0.42770  0.30286  0.02861  1.0000
  Fe  Fe37      1.0  0.48266  0.28434  0.09797  1.0000
  S   S77       1.0  0.50601  0.31504  0.13109  1.0000
  H   H195      1.0  0.35649  0.39115  0.97760  1.0000
  Fe  Fe38      1.0  0.47799  0.31803  0.15365  1.0000
  S   S78       1.0  0.47984  0.33626  0.21609  1.0000
  Fe  Fe39      1.0  0.50329  0.33029  0.07021  1.0000
  S   S79       1.0  0.52697  0.35917  0.03713  1.0000
  S   S80       1.0  0.45468  0.28637  0.12554  1.0000
  S   S81       1.0  0.48184  0.29999  0.03512  1.0000
  S   S82       1.0  0.62173  0.46220  0.07645  1.0000
  C   C188      1.0  0.62181  0.40334  0.97125  1.0000
  Fe  Fe40      1.0  0.63996  0.44442  0.07841  1.0000
  S   S83       1.0  0.62389  0.40901  0.08339  1.0000
  S   S84       1.0  0.51818  0.50123  0.28389  1.0000
  C   C189      1.0  0.34295  0.41051  0.20101  1.0000
  Fe  Fe41      1.0  0.64360  0.48172  0.02581  1.0000
  C   C190      1.0  0.55323  0.37265  0.05535  1.0000
  C   C191      1.0  0.56385  0.39445  0.05135  1.0000
  C   C192      1.0  0.58540  0.40565  0.06037  1.0000
  C   C193      1.0  0.59658  0.39522  0.07372  1.0000
  C   C194      1.0  0.58587  0.37341  0.07884  1.0000
  C   C195      1.0  0.56417  0.36213  0.06991  1.0000
  H   H196      1.0  0.55547  0.40266  0.03998  1.0000
  H   H197      1.0  0.59335  0.42226  0.05559  1.0000
  H   H198      1.0  0.59440  0.36519  0.08919  1.0000
  H   H199      1.0  0.55608  0.34524  0.07276  1.0000
  C   C196      1.0  0.42396  0.33545  0.28706  1.0000
  C   C197      1.0  0.44439  0.35105  0.29659  1.0000
  C   C198      1.0  0.46132  0.35077  0.27522  1.0000
  C   C199      1.0  0.45802  0.33514  0.24364  1.0000
  C   C200      1.0  0.43760  0.31944  0.23431  1.0000
  C   C201      1.0  0.42066  0.31954  0.25614  1.0000
  H   H200      1.0  0.44718  0.36331  0.32052  1.0000
  H   H201      1.0  0.47706  0.36289  0.28293  1.0000
  H   H202      1.0  0.43490  0.30708  0.21070  1.0000
  H   H203      1.0  0.40494  0.30730  0.24884  1.0000
  H   H204      1.0  0.62833  0.40105  0.94045  1.0000
  C   C202      1.0  0.35971  0.39860  0.25613  1.0000
  C   C203      1.0  0.33961  0.31878  0.37635  1.0000
  H   H205      1.0  0.36044  0.38595  0.27318  1.0000
  C   C204      1.0  0.50664  0.47963  0.31775  1.0000
  H   H206      1.0  0.45573  0.29243  0.94494  1.0000
  C   C205      1.0  0.50564  0.46316  0.38653  1.0000
  C   C206      1.0  0.48599  0.44666  0.37488  1.0000
  C   C207      1.0  0.47689  0.44645  0.33421  1.0000
  C   C208      1.0  0.48730  0.46277  0.30547  1.0000
  H   H207      1.0  0.51274  0.46345  0.41801  1.0000
  H   H208      1.0  0.46172  0.43396  0.32502  1.0000
  H   H209      1.0  0.48005  0.46267  0.27431  1.0000
  C   C209      1.0  0.38902  0.37624  0.55342  1.0000
  C   C210      1.0  0.37764  0.37796  0.58854  1.0000
  C   C211      1.0  0.38398  0.37737  0.63202  1.0000
  C   C212      1.0  0.40145  0.37439  0.64083  1.0000
  C   C213      1.0  0.41286  0.37272  0.60571  1.0000
  C   C214      1.0  0.40692  0.37399  0.56233  1.0000
  C   C215      1.0  0.50627  0.47496  0.79214  1.0000
  H   H210      1.0  0.37497  0.37859  0.65858  1.0000
  H   H211      1.0  0.42643  0.37045  0.61214  1.0000
  H   H212      1.0  0.41590  0.37269  0.53582  1.0000
  C   C216      1.0  0.44133  0.35462  0.93064  1.0000
  C   C217      1.0  0.45778  0.35335  0.95304  1.0000
  C   C218      1.0  0.45371  0.33816  0.98461  1.0000
  C   C219      1.0  0.43309  0.32394  0.99380  1.0000
  C   C220      1.0  0.41659  0.32570  0.97269  1.0000
  C   C221      1.0  0.42068  0.34109  0.94132  1.0000
  H   H213      1.0  0.47379  0.36376  0.94499  1.0000
  H   H214      1.0  0.46657  0.33692  0.00040  1.0000
  H   H215      1.0  0.40060  0.31480  0.97980  1.0000
  H   H216      1.0  0.40789  0.34201  0.92439  1.0000
  C   C222      1.0  0.35184  0.39566  0.90997  1.0000
  C   C223      1.0  0.38035  0.32767  0.48499  1.0000
  H   H217      1.0  0.47079  0.49362  0.79519  1.0000
  C   C224      1.0  0.39090  0.46019  0.98756  1.0000
  S   S85       1.0  0.39363  0.42603  0.30876  1.0000
  C   C225      1.0  0.46561  0.46363  0.81881  1.0000
  C   C226      1.0  0.47441  0.45023  0.82573  1.0000
  C   C227      1.0  0.49457  0.45570  0.81164  1.0000
  C   C228      1.0  0.47756  0.48321  0.80068  1.0000
  H   H218      1.0  0.46562  0.43552  0.84159  1.0000
  H   H219      1.0  0.50106  0.44498  0.81578  1.0000
  C   C229      1.0  0.42738  0.28969  0.91492  1.0000
  H   H220      1.0  0.40788  0.36618  0.22796  1.0000
  H   H221      1.0  0.40992  0.32100  0.11968  1.0000
  S   S86       1.0  0.53093  0.48110  0.77251  1.0000
  N   N18       1.0  0.47687  0.49190  0.39070  1.0000
  H   H222      1.0  0.53116  0.48156  0.91466  1.0000
  C   C230      1.0  0.35687  0.31519  0.37208  1.0000
  C   C231      1.0  0.34495  0.41377  0.97045  1.0000
  H   H223      1.0  0.49817  0.45162  0.70206  1.0000
  C   C232      1.0  0.49798  0.48897  0.78773  1.0000
  N   N19       1.0  0.55622  0.39362  0.16095  1.0000
  C   C233      1.0  0.56005  0.41400  0.15693  1.0000
  C   C234      1.0  0.57222  0.38918  0.17125  1.0000
  C   C235      1.0  0.58043  0.43052  0.16202  1.0000
  C   C236      1.0  0.59278  0.40531  0.17637  1.0000
  C   C237      1.0  0.59687  0.42607  0.17152  1.0000
  C   C238      1.0  0.53476  0.37654  0.15556  1.0000
  H   H224      1.0  0.54736  0.41756  0.14926  1.0000
  H   H225      1.0  0.56924  0.37305  0.17435  1.0000
  H   H226      1.0  0.58360  0.44670  0.15835  1.0000
  H   H227      1.0  0.60557  0.40171  0.18265  1.0000
  H   H228      1.0  0.61278  0.43872  0.17469  1.0000
  H   H229      1.0  0.52632  0.37417  0.18649  1.0000
  H   H230      1.0  0.52607  0.37987  0.12921  1.0000
  H   H231      1.0  0.53460  0.36154  0.14577  1.0000
  H   H232      1.0  0.35993  0.47917  0.99038  1.0000
  C   C239      1.0  0.46517  0.44245  0.70365  1.0000
  H   H233      1.0  0.55073  0.37721  0.94758  1.0000
  Fe  Fe42      1.0  0.34683  0.47749  0.10201  1.0000
  H   H234      1.0  0.40207  0.29172  0.88153  1.0000
  C   C240      1.0  0.42229  0.32368  0.82980  1.0000
  C   C241      1.0  0.37402  0.41942  0.26718  1.0000
  C   C242      1.0  0.34921  0.32797  0.45218  1.0000
  H   H235      1.0  0.42838  0.45241  0.36686  1.0000
  C   C243      1.0  0.45696  0.37957  0.19488  1.0000
  C   C244      1.0  0.42698  0.33122  0.12519  1.0000
  H   H236      1.0  0.49539  0.43586  0.62794  1.0000
  H   H237      1.0  0.38469  0.31480  0.48676  1.0000
  H   H238      1.0  0.41384  0.31217  0.80291  1.0000
  H   H239      1.0  0.49260  0.48694  0.44523  1.0000
  H   H240      1.0  0.41124  0.32785  0.84676  1.0000
  N   N20       1.0  0.38375  0.47253  0.96744  1.0000
  H   H241      1.0  0.57728  0.48084  0.41837  1.0000
  N   N21       1.0  0.44617  0.43257  0.68213  1.0000
  C   C245      1.0  0.37279  0.43569  0.24479  1.0000
  H   H242      1.0  0.38756  0.46038  0.86225  1.0000
  N   N22       1.0  0.60321  0.40597  0.96200  1.0000
  C   C246      1.0  0.33765  0.42373  0.94118  1.0000
  C   C247      1.0  0.33578  0.32531  0.41659  1.0000
  C   C248      1.0  0.58773  0.42834  0.94605  1.0000
  C   C249      1.0  0.35740  0.43128  0.21184  1.0000
  C   C250      1.0  0.56607  0.39088  0.94866  1.0000
  H   H243      1.0  0.55421  0.41280  0.93618  1.0000
  H   H244      1.0  0.43008  0.43543  0.73760  1.0000
  H   H245      1.0  0.46450  0.36179  0.14845  1.0000
  H   H246      1.0  0.47316  0.39085  0.20190  1.0000
  H   H247      1.0  0.33308  0.37809  0.21514  1.0000
  H   H248      1.0  0.59520  0.48523  0.23910  1.0000
  C   C251      1.0  0.48157  0.43499  0.64307  1.0000
  H   H249      1.0  0.42954  0.41679  0.62373  1.0000
  C   C252      1.0  0.53050  0.49615  0.92022  1.0000
  H   H250      1.0  0.36032  0.31062  0.34068  1.0000
  S   S87       1.0  0.49298  0.25844  0.09732  1.0000
  H   H251      1.0  0.34447  0.41629  0.00505  1.0000
  H   H252      1.0  0.62055  0.43932  0.95815  1.0000
  H   H253      1.0  0.39151  0.45974  0.02278  1.0000
  C   C253      1.0  0.45841  0.47410  0.39607  1.0000
  H   H254      1.0  0.43421  0.33840  0.81552  1.0000
  C   C254      1.0  0.51581  0.47974  0.35826  1.0000
  H   H255      1.0  0.39471  0.34283  0.48188  1.0000
  C   C255      1.0  0.60529  0.42559  0.95551  1.0000
  H   H256      1.0  0.53050  0.49274  0.36841  1.0000
  H   H257      1.0  0.58225  0.37317  0.96401  1.0000
  C   C256      1.0  0.37719  0.48563  0.99321  1.0000
  C   C257      1.0  0.39638  0.44808  0.91766  1.0000
  C   C258      1.0  0.38872  0.46041  0.89748  1.0000
  H   H258      1.0  0.42322  0.44296  0.68662  1.0000
  H   H259      1.0  0.40286  0.43790  0.97888  1.0000
  C   C259      1.0  0.44654  0.47709  0.32388  1.0000
  C   C260      1.0  0.48315  0.44378  0.68460  1.0000
  C   C261      1.0  0.37016  0.31830  0.40820  1.0000
  C   C262      1.0  0.44455  0.42426  0.64110  1.0000
  C   C263      1.0  0.39737  0.44783  0.96298  1.0000
  H   H260      1.0  0.40127  0.43853  0.89812  1.0000
  H   H261      1.0  0.60217  0.48283  0.88948  1.0000
  C   C264      1.0  0.56801  0.41086  0.94273  1.0000
  H   H262      1.0  0.46310  0.33730  0.84782  1.0000
  S   S88       1.0  0.62632  0.48407  0.18528  1.0000
  N   N23       1.0  0.43161  0.34840  0.15678  1.0000
  C   C265      1.0  0.45297  0.32353  0.86566  1.0000
  H   H263      1.0  0.35661  0.44400  0.19507  1.0000
  C   C266      1.0  0.45196  0.36309  0.16466  1.0000
  C   C267      1.0  0.46216  0.42517  0.62106  1.0000
  C   C268      1.0  0.42751  0.43163  0.70209  1.0000
  H   H264      1.0  0.45568  0.46539  0.42577  1.0000
  C   C269      1.0  0.46196  0.31536  0.89548  1.0000
  N   N24       1.0  0.43169  0.31494  0.86067  1.0000
  C   C270      1.0  0.44101  0.38090  0.21726  1.0000
  H   H265      1.0  0.44474  0.39332  0.24152  1.0000
  H   H266      1.0  0.43365  0.33756  0.09320  1.0000
  H   H267      1.0  0.63403  0.41726  0.98943  1.0000
  Fe  Fe43      1.0  0.64492  0.48378  0.12668  1.0000
  C   C271      1.0  0.60958  0.49850  0.90393  1.0000
  H   H268      1.0  0.38375  0.45182  0.25311  1.0000
  C   C272      1.0  0.44904  0.29838  0.92034  1.0000
  C   C273      1.0  0.58397  0.38870  0.95822  1.0000
  H   H269      1.0  0.36373  0.37963  0.58208  1.0000
  H   H270      1.0  0.34634  0.33347  0.48315  1.0000
  S   S89       1.0  0.62742  0.48252  0.96189  1.0000
  H   H271      1.0  0.38166  0.48647  0.02829  1.0000
  C   C274      1.0  0.41585  0.34945  0.17892  1.0000
  C   C275      1.0  0.42031  0.36572  0.20943  1.0000
  H   H272      1.0  0.39978  0.33745  0.17390  1.0000
  C   C276      1.0  0.41892  0.29817  0.88466  1.0000
  C   C277      1.0  0.51380  0.49866  0.90281  1.0000
  H   H273      1.0  0.61804  0.38974  0.99243  1.0000
  N   N25       1.0  0.36604  0.32428  0.44777  1.0000
  H   H274      1.0  0.34531  0.40340  0.84619  1.0000
  C   C278      1.0  0.44297  0.46654  0.36284  1.0000
  H   H275      1.0  0.37326  0.32845  0.51632  1.0000
  S   S90       1.0  0.66065  0.46227  0.02426  1.0000
  C   C279      1.0  0.35187  0.39964  0.95485  1.0000
  H   H276      1.0  0.46654  0.44938  0.73570  1.0000
  H   H277      1.0  0.58947  0.44401  0.94174  1.0000
  C   C280      1.0  0.34567  0.40656  0.88079  1.0000
  C   C281      1.0  0.38227  0.47249  0.92302  1.0000
  H   H278      1.0  0.37593  0.48173  0.90717  1.0000
  H   H279      1.0  0.47880  0.32266  0.90057  1.0000
  H   H280      1.0  0.38397  0.31620  0.40408  1.0000
  H   H281      1.0  0.41418  0.41555  0.69811  1.0000
  H   H282      1.0  0.38468  0.50198  0.98155  1.0000
  H   H283      1.0  0.46070  0.41830  0.58870  1.0000
  C   C282      1.0  0.58858  0.49736  0.42023  1.0000
  H   H284      1.0  0.41726  0.27707  0.93549  1.0000
  H   H285      1.0  0.43477  0.47094  0.29768  1.0000
  H   H286      1.0  0.50153  0.48578  0.88412  1.0000
  C   C283      1.0  0.34421  0.39419  0.22323  1.0000
  C   C284      1.0  0.46535  0.49530  0.31878  1.0000
  S   S91       1.0  0.66243  0.46487  0.13122  1.0000
  C   C285      1.0  0.49263  0.49999  0.42637  1.0000
  H   H287      1.0  0.33291  0.42810  0.87352  1.0000
  C   C286      1.0  0.33851  0.42045  0.89636  1.0000
  H   H288      1.0  0.60539  0.49583  0.36411  1.0000
  C   C287      1.0  0.60812  0.50096  0.23923  1.0000
  Fe  Fe44      1.0  0.57892  0.55565  0.72891  1.0000
  S   S92       1.0  0.54423  0.53907  0.73834  1.0000
  S   S93       1.0  0.59475  0.57053  0.66577  1.0000
  Fe  Fe45      1.0  0.58879  0.54894  0.82366  1.0000
  S   S94       1.0  0.55500  0.53186  0.83914  1.0000
  S   S95       1.0  0.61261  0.55524  0.87867  1.0000
  Fe  Fe46      1.0  0.55087  0.51592  0.77430  1.0000
  H   H289      1.0  0.54289  0.67931  0.02940  1.0000
  Fe  Fe47      1.0  0.55134  0.55664  0.80302  1.0000
  S   S96       1.0  0.52831  0.56707  0.82898  1.0000
  S   S97       1.0  0.58512  0.53103  0.76088  1.0000
  S   S98       1.0  0.58572  0.57530  0.79119  1.0000
  Fe  Fe48      1.0  0.56582  0.54875  0.40390  1.0000
  S   S99       1.0  0.54051  0.54988  0.36156  1.0000
  S   S100      1.0  0.55713  0.53730  0.47326  1.0000
  Fe  Fe49      1.0  0.59315  0.55312  0.32494  1.0000
  S   S101      1.0  0.56971  0.55384  0.27749  1.0000
  S   S102      1.0  0.62414  0.55693  0.30099  1.0000
  Fe  Fe50      1.0  0.56643  0.57553  0.32604  1.0000
  S   S103      1.0  0.56741  0.60478  0.29730  1.0000
  Fe  Fe51      1.0  0.54583  0.52829  0.31644  1.0000
  C   C288      1.0  0.60723  0.51688  0.26475  1.0000
  S   S104      1.0  0.59167  0.57661  0.37226  1.0000
  S   S105      1.0  0.56953  0.52547  0.35976  1.0000
  Fe  Fe52      1.0  0.51317  0.62149  0.03681  1.0000
  S   S106      1.0  0.52136  0.64443  0.09342  1.0000
  S   S107      1.0  0.53999  0.61827  0.00660  1.0000
  Fe  Fe53      1.0  0.46634  0.60694  0.04416  1.0000
  S   S108      1.0  0.47093  0.62904  0.10048  1.0000
  S   S109      1.0  0.43399  0.58518  0.01625  1.0000
  Fe  Fe54      1.0  0.49777  0.65334  0.06362  1.0000
  S   S110      1.0  0.50582  0.68690  0.04356  1.0000
  Fe  Fe55      1.0  0.49400  0.61842  0.12532  1.0000
  S   S111      1.0  0.49037  0.60341  0.19097  1.0000
  S   S112      1.0  0.49139  0.63167  0.00492  1.0000
  S   S113      1.0  0.48765  0.59500  0.07084  1.0000
  H   H290      1.0  0.48950  0.51047  0.44849  1.0000
  H   H291      1.0  0.39824  0.58069  0.09992  1.0000
  H   H292      1.0  0.64318  0.62560  0.77920  1.0000
  C   C289      1.0  0.39800  0.54542  0.19889  1.0000
  H   H293      1.0  0.42557  0.59758  0.10438  1.0000
  C   C290      1.0  0.41905  0.56143  0.04278  1.0000
  C   C291      1.0  0.39788  0.54895  0.03060  1.0000
  C   C292      1.0  0.38526  0.53087  0.05375  1.0000
  C   C293      1.0  0.39383  0.52515  0.08900  1.0000
  C   C294      1.0  0.41513  0.53724  0.10016  1.0000
  C   C295      1.0  0.42767  0.55536  0.07733  1.0000
  H   H294      1.0  0.39110  0.55363  0.00398  1.0000
  H   H295      1.0  0.36879  0.52178  0.04522  1.0000
  H   H296      1.0  0.42184  0.53290  0.12742  1.0000
  H   H297      1.0  0.44389  0.56484  0.08710  1.0000
  C   C296      1.0  0.60142  0.53186  0.45355  1.0000
  C   C297      1.0  0.50807  0.72620  0.03944  1.0000
  C   C298      1.0  0.50188  0.70811  0.06440  1.0000
  C   C299      1.0  0.49315  0.70764  0.10485  1.0000
  H   H298      1.0  0.51488  0.72684  0.00815  1.0000
  H   H299      1.0  0.48837  0.69397  0.12461  1.0000
  C   C300      1.0  0.61827  0.52723  0.39189  1.0000
  C   C301      1.0  0.54573  0.60418  0.26842  1.0000
  C   C302      1.0  0.54895  0.62055  0.24038  1.0000
  C   C303      1.0  0.53222  0.62024  0.21563  1.0000
  C   C304      1.0  0.51197  0.60388  0.21990  1.0000
  C   C305      1.0  0.50866  0.58767  0.24852  1.0000
  C   C306      1.0  0.52552  0.58763  0.27217  1.0000
  H   H300      1.0  0.56448  0.63354  0.23770  1.0000
  H   H301      1.0  0.53489  0.63294  0.19418  1.0000
  H   H302      1.0  0.49302  0.57504  0.25224  1.0000
  H   H303      1.0  0.52285  0.57501  0.29387  1.0000
  C   C307      1.0  0.62407  0.53712  0.26612  1.0000
  H   H304      1.0  0.38455  0.53063  0.20606  1.0000
  N   N26       1.0  0.64134  0.57111  0.77846  1.0000
  H   H305      1.0  0.56630  0.69297  0.99850  1.0000
  C   C308      1.0  0.64225  0.52557  0.21450  1.0000
  C   C309      1.0  0.64159  0.54141  0.24098  1.0000
  N   N27       1.0  0.51323  0.51728  0.90815  1.0000
  C   C310      1.0  0.43235  0.58243  0.17697  1.0000
  H   H306      1.0  0.59366  0.51338  0.28392  1.0000
  C   C311      1.0  0.58383  0.56139  0.61244  1.0000
  C   C312      1.0  0.59422  0.57309  0.57624  1.0000
  C   C313      1.0  0.58619  0.56621  0.53344  1.0000
  C   C314      1.0  0.56773  0.54740  0.52634  1.0000
  C   C315      1.0  0.55742  0.53569  0.56251  1.0000
  C   C316      1.0  0.56535  0.54265  0.60526  1.0000
  H   H307      1.0  0.60848  0.58765  0.58138  1.0000
  H   H308      1.0  0.59423  0.57550  0.50606  1.0000
  H   H309      1.0  0.54315  0.52112  0.55748  1.0000
  H   H310      1.0  0.55717  0.53346  0.63266  1.0000
  C   C317      1.0  0.54594  0.53176  0.94876  1.0000
  H   H311      1.0  0.44596  0.59682  0.16855  1.0000
  C   C318      1.0  0.64913  0.58414  0.81438  1.0000
  C   C319      1.0  0.53183  0.58096  0.87891  1.0000
  C   C320      1.0  0.55091  0.58978  0.90232  1.0000
  C   C321      1.0  0.55310  0.60090  0.94179  1.0000
  C   C322      1.0  0.53621  0.60309  0.95835  1.0000
  C   C323      1.0  0.51703  0.59393  0.93534  1.0000
  C   C324      1.0  0.51491  0.58304  0.89564  1.0000
  H   H312      1.0  0.56405  0.58828  0.88971  1.0000
  H   H313      1.0  0.56802  0.60800  0.95934  1.0000
  H   H314      1.0  0.50392  0.59555  0.94773  1.0000
  H   H315      1.0  0.50009  0.57622  0.87772  1.0000
  C   C325      1.0  0.61577  0.53468  0.90292  1.0000
  H   H316      1.0  0.51586  0.68556  0.95540  1.0000
  C   C326      1.0  0.49089  0.72508  0.12016  1.0000
  H   H317      1.0  0.41904  0.54093  0.24283  1.0000
  C   C327      1.0  0.63239  0.52323  0.95918  1.0000
  C   C328      1.0  0.62897  0.53908  0.94004  1.0000
  C   C329      1.0  0.64007  0.55019  0.77934  1.0000
  C   C330      1.0  0.52177  0.57810  0.13637  1.0000
  C   C331      1.0  0.41122  0.58997  0.12373  1.0000
  H   H318      1.0  0.65470  0.55703  0.24199  1.0000
  N   N28       1.0  0.53825  0.67416  0.96127  1.0000
  C   C332      1.0  0.54443  0.65998  0.94633  1.0000
  C   C333      1.0  0.52118  0.67478  0.94273  1.0000
  C   C334      1.0  0.53375  0.64628  0.91127  1.0000
  C   C335      1.0  0.50998  0.66112  0.90795  1.0000
  C   C336      1.0  0.51635  0.64679  0.89217  1.0000
  C   C337      1.0  0.54925  0.68783  0.99901  1.0000
  H   H319      1.0  0.55747  0.65891  0.96201  1.0000
  H   H320      1.0  0.49456  0.53312  0.90184  1.0000
  H   H321      1.0  0.53871  0.63504  0.89963  1.0000
  H   H322      1.0  0.48124  0.50554  0.88776  1.0000
  H   H323      1.0  0.49622  0.66140  0.89398  1.0000
  C   C338      1.0  0.55821  0.60385  0.13922  1.0000
  H   H324      1.0  0.51328  0.55319  0.18190  1.0000
  N   N29       1.0  0.41335  0.57652  0.15660  1.0000
  H   H325      1.0  0.62830  0.56715  0.71387  1.0000
  C   C339      1.0  0.49717  0.74320  0.09532  1.0000
  H   H326      1.0  0.53494  0.60523  0.09619  1.0000
  H   H327      1.0  0.58713  0.61656  0.20928  1.0000
  C   C340      1.0  0.49646  0.52005  0.88654  1.0000
  H   H328      1.0  0.64268  0.52684  0.98758  1.0000
  C   C341      1.0  0.43468  0.56979  0.20840  1.0000
  C   C342      1.0  0.53802  0.59649  0.12118  1.0000
  C   C343      1.0  0.63553  0.59727  0.74194  1.0000
  H   H329      1.0  0.50766  0.63589  0.86563  1.0000
  H   H330      1.0  0.54908  0.56686  0.21284  1.0000
  H   H331      1.0  0.55871  0.54504  0.96556  1.0000
  C   C344      1.0  0.54624  0.57501  0.18634  1.0000
  C   C345      1.0  0.52589  0.56721  0.16901  1.0000
  H   H332      1.0  0.58463  0.59086  0.21457  1.0000
  C   C346      1.0  0.58324  0.60170  0.19095  1.0000
  C   C347      1.0  0.41739  0.55111  0.21918  1.0000
  H   H333      1.0  0.38118  0.55353  0.15119  1.0000
  C   C348      1.0  0.58718  0.51046  0.45250  1.0000
  C   C349      1.0  0.50568  0.74358  0.05463  1.0000
  H   H334      1.0  0.54709  0.70216  0.99988  1.0000
  H   H335      1.0  0.50030  0.52387  0.85190  1.0000
  H   H336      1.0  0.59489  0.60471  0.16546  1.0000
  H   H337      1.0  0.62368  0.57178  0.43835  1.0000
  H   H338      1.0  0.65534  0.61381  0.84452  1.0000
  H   H339      1.0  0.44989  0.57441  0.22385  1.0000
  H   H340      1.0  0.60002  0.54194  0.47841  1.0000
  N   N30       1.0  0.56209  0.59312  0.17142  1.0000
  H   H341      1.0  0.40834  0.60229  0.13961  1.0000
  H   H342      1.0  0.59574  0.51063  0.85661  1.0000
  H   H343      1.0  0.57066  0.61840  0.12787  1.0000
  C   C350      1.0  0.43982  0.75074  0.11915  1.0000
  H   H344      1.0  0.50593  0.57257  0.12366  1.0000
  C   C351      1.0  0.39621  0.55846  0.16769  1.0000
  C   C352      1.0  0.52900  0.53372  0.93080  1.0000
  C   C353      1.0  0.60593  0.51425  0.88517  1.0000
  H   H345      1.0  0.65403  0.57892  0.84328  1.0000
  H   H346      1.0  0.63665  0.55484  0.95402  1.0000
  H   H347      1.0  0.63277  0.54087  0.74893  1.0000
  N   N31       1.0  0.61640  0.54005  0.42290  1.0000
  H   H348      1.0  0.65593  0.55156  0.78385  1.0000
  H   H349      1.0  0.48435  0.72457  0.15173  1.0000
  C   C354      1.0  0.63470  0.57748  0.74237  1.0000
  H   H350      1.0  0.62986  0.60208  0.71353  1.0000
  C   C355      1.0  0.64302  0.61047  0.77879  1.0000
  H   H351      1.0  0.57478  0.50432  0.47584  1.0000
  H   H352      1.0  0.63031  0.53366  0.36787  1.0000
  C   C356      1.0  0.54671  0.51286  0.94320  1.0000
  H   H353      1.0  0.52880  0.54862  0.93420  1.0000
  C   C357      1.0  0.64989  0.60390  0.81530  1.0000
  H   H354      1.0  0.50698  0.50390  0.77277  1.0000
  C   C358      1.0  0.63104  0.56257  0.42435  1.0000
  H   H355      1.0  0.41989  0.75034  0.17072  1.0000
  H   H356      1.0  0.64519  0.56561  0.44424  1.0000
  H   H357      1.0  0.50868  0.50899  0.41389  1.0000
  H   H358      1.0  0.63581  0.56844  0.39105  1.0000
  S   S114      1.0  0.37824  0.50445  0.12284  1.0000
  H   H359      1.0  0.45042  0.74794  0.14030  1.0000
  C   C359      1.0  0.62558  0.50520  0.21395  1.0000
  H   H360      1.0  0.65583  0.52899  0.19544  1.0000
  H   H361      1.0  0.49502  0.51664  0.34837  1.0000
  H   H362      1.0  0.63031  0.54131  0.80677  1.0000
  H   H363      1.0  0.43276  0.74594  0.98568  1.0000
  H   H364      1.0  0.56012  0.51138  0.95566  1.0000
  C   C360      1.0  0.62285  0.50288  0.94094  1.0000
  C   C361      1.0  0.60429  0.50575  0.38981  1.0000
  H   H365      1.0  0.46857  0.50342  0.28828  1.0000
  C   C362      1.0  0.42272  0.75210  0.13616  1.0000
  C   C363      1.0  0.48032  0.50267  0.35294  1.0000
  S   S115      1.0  0.36075  0.78823  0.11821  1.0000
  S   S116      1.0  0.35232  0.83650  0.12392  1.0000
  Fe  Fe56      1.0  0.47279  0.81649  0.05448  1.0000
  S   S117      1.0  0.47424  0.80506  0.12097  1.0000
  S   S118      1.0  0.44344  0.81119  0.01689  1.0000
  Fe  Fe57      1.0  0.52007  0.83900  0.04799  1.0000
  S   S119      1.0  0.52529  0.82892  0.11442  1.0000
  S   S120      1.0  0.54761  0.86258  0.01052  1.0000
  Fe  Fe58      1.0  0.49867  0.79698  0.09447  1.0000
  C   C364      1.0  0.49883  0.97312  0.74287  1.0000
  Fe  Fe59      1.0  0.50054  0.83743  0.13542  1.0000
  S   S121      1.0  0.49961  0.85759  0.19201  1.0000
  S   S122      1.0  0.49549  0.80656  0.02634  1.0000
  S   S123      1.0  0.49705  0.84934  0.07050  1.0000
  Fe  Fe60      1.0  0.55807  0.95055  0.84719  1.0000
  S   S124      1.0  0.59000  0.95807  0.82432  1.0000
  S   S125      1.0  0.53348  0.91920  0.87082  1.0000
  C   C365      1.0  0.36748  0.91730  0.52289  1.0000
  H   H366      1.0  0.38088  0.90945  0.00072  1.0000
  Fe  Fe61      1.0  0.58209  0.97134  0.76491  1.0000
  S   S126      1.0  0.59155  0.96395  0.69882  1.0000
  S   S127      1.0  0.54931  0.96152  0.78554  1.0000
  S   S128      1.0  0.56890  0.98120  0.88411  1.0000
  Fe  Fe62      1.0  0.41076  0.96717  0.75831  1.0000
  S   S129      1.0  0.40926  0.93957  0.79428  1.0000
  H   H367      1.0  0.40602  0.99205  0.96517  1.0000
  S   S130      1.0  0.40482  0.96187  0.88470  1.0000
  Fe  Fe63      1.0  0.43051  0.96317  0.84395  1.0000
  S   S131      1.0  0.45465  0.95594  0.87457  1.0000
  Fe  Fe64      1.0  0.38342  0.93991  0.83279  1.0000
  S   S132      1.0  0.35646  0.90836  0.84982  1.0000
  S   S133      1.0  0.38259  0.96558  0.79250  1.0000
  Fe  Fe65      1.0  0.57274  0.94454  0.35305  1.0000
  S   S134      1.0  0.57580  0.97027  0.30941  1.0000
  S   S135      1.0  0.57386  0.91613  0.32296  1.0000
  Fe  Fe66      1.0  0.56808  0.96693  0.43566  1.0000
  S   S136      1.0  0.55665  0.96418  0.50571  1.0000
  Fe  Fe67      1.0  0.54991  0.97047  0.34754  1.0000
  S   S137      1.0  0.52446  0.97357  0.31090  1.0000
  S   S138      1.0  0.54500  0.94292  0.38733  1.0000
  S   S139      1.0  0.59583  0.96626  0.40432  1.0000
  Fe  Fe68      1.0  0.42218  0.95407  0.39296  1.0000
  C   C366      1.0  0.36966  0.90952  0.93541  1.0000
  Fe  Fe69      1.0  0.38555  0.95280  0.34135  1.0000
  S   S140      1.0  0.38925  0.98266  0.37430  1.0000
  S   S141      1.0  0.36324  0.93749  0.28346  1.0000
  Fe  Fe70      1.0  0.39493  0.96951  0.43677  1.0000
  C   C367      1.0  0.35290  0.91042  0.26985  1.0000
  S   S142      1.0  0.41963  0.96586  0.32732  1.0000
  S   S143      1.0  0.38781  0.93857  0.40427  1.0000
  C   C368      1.0  0.46353  0.94656  0.38362  1.0000
  C   C369      1.0  0.46432  0.95378  0.34142  1.0000
  C   C370      1.0  0.48300  0.96167  0.31885  1.0000
  C   C371      1.0  0.50095  0.96246  0.33855  1.0000
  C   C372      1.0  0.50020  0.95532  0.38083  1.0000
  C   C373      1.0  0.48143  0.94714  0.40317  1.0000
  H   H368      1.0  0.45049  0.95297  0.32582  1.0000
  H   H369      1.0  0.39651  0.90458  0.86218  1.0000
  H   H370      1.0  0.51413  0.95644  0.39672  1.0000
  C   C374      1.0  0.46109  0.95788  0.75510  1.0000
  S   S144      1.0  0.43409  0.99102  0.80656  1.0000
  H   H371      1.0  0.52716  0.97238  0.85589  1.0000
  C   C375      1.0  0.52185  0.99826  0.83723  1.0000
  N   N32       1.0  0.40034  0.88735  0.91469  1.0000
  H   H372      1.0  0.54059  0.96479  0.58992  1.0000
  H   H373      1.0  0.57706  0.87498  0.89013  1.0000
  H   H374      1.0  0.60435  0.90340  0.84764  1.0000
  C   C376      1.0  0.58790  0.89792  0.83978  1.0000
  C   C377      1.0  0.58232  0.96569  0.64556  1.0000
  C   C378      1.0  0.56306  0.96550  0.63816  1.0000
  C   C379      1.0  0.55568  0.96534  0.59522  1.0000
  C   C380      1.0  0.56755  0.96577  0.55909  1.0000
  C   C381      1.0  0.58705  0.96650  0.56653  1.0000
  C   C382      1.0  0.59422  0.96617  0.60944  1.0000
  H   H375      1.0  0.55366  0.96501  0.66546  1.0000
  H   H376      1.0  0.38178  0.92511  0.92953  1.0000
  H   H377      1.0  0.59653  0.96709  0.53928  1.0000
  C   C383      1.0  0.55469  0.91079  0.76334  1.0000
  H   H378      1.0  0.41106  0.91521  0.29315  1.0000
  C   C384      1.0  0.51594  0.97826  0.85308  1.0000
  C   C385      1.0  0.49538  0.96563  0.86536  1.0000
  C   C386      1.0  0.48050  0.97278  0.86125  1.0000
  C   C387      1.0  0.51759  0.98928  0.72860  1.0000
  H   H379      1.0  0.42512  0.76654  0.98470  1.0000
  C   C388      1.0  0.40348  0.91043  0.26115  1.0000
  H   H380      1.0  0.49096  0.95016  0.87758  1.0000
  C   C389      1.0  0.48063  0.99203  0.72241  1.0000
  H   H381      1.0  0.54645  0.89938  0.73619  1.0000
  C   C390      1.0  0.52078  0.87382  0.22728  1.0000
  C   C391      1.0  0.51946  0.88987  0.25134  1.0000
  C   C392      1.0  0.53590  0.90327  0.27979  1.0000
  C   C393      1.0  0.55356  0.90031  0.28547  1.0000
  C   C394      1.0  0.55483  0.88410  0.26182  1.0000
  C   C395      1.0  0.53861  0.87106  0.23232  1.0000
  H   H382      1.0  0.50566  0.89204  0.24773  1.0000
  H   H383      1.0  0.53473  0.91568  0.29786  1.0000
  H   H384      1.0  0.56843  0.88167  0.26617  1.0000
  H   H385      1.0  0.53971  0.85864  0.21412  1.0000
  C   C396      1.0  0.54341  0.87937  0.97477  1.0000
  C   C397      1.0  0.56058  0.89760  0.96055  1.0000
  C   C398      1.0  0.55772  0.91059  0.93022  1.0000
  C   C399      1.0  0.53768  0.90520  0.91335  1.0000
  C   C400      1.0  0.52053  0.88716  0.92815  1.0000
  C   C401      1.0  0.52333  0.87440  0.95899  1.0000
  H   H386      1.0  0.57617  0.90158  0.97269  1.0000
  H   H387      1.0  0.57107  0.92441  0.91894  1.0000
  H   H388      1.0  0.50498  0.88284  0.91524  1.0000
  H   H389      1.0  0.50999  0.86039  0.96959  1.0000
  C   C402      1.0  0.48631  0.99282  0.84548  1.0000
  H   H390      1.0  0.48357  0.96727  0.28623  1.0000
  H   H391      1.0  0.49905  0.95965  0.75763  1.0000
  H   H392      1.0  0.44974  0.95050  0.72739  1.0000
  Fe  Fe71      1.0  0.59670  0.99211  0.36216  1.0000
  S   S145      1.0  0.57085  0.99451  0.39714  1.0000
  C   C403      1.0  0.34256  0.90279  0.22929  1.0000
  C   C404      1.0  0.39140  0.92276  0.58491  1.0000
  C   C405      1.0  0.35482  0.89818  0.90260  1.0000
  C   C406      1.0  0.33474  0.88150  0.21677  1.0000
  H   H393      1.0  0.34847  0.86444  0.30817  1.0000
  C   C407      1.0  0.33831  0.86895  0.95216  1.0000
  N   N33       1.0  0.43072  0.75780  0.04800  1.0000
  C   C408      1.0  0.38457  0.79832  0.09098  1.0000
  C   C409      1.0  0.38530  0.80171  0.04625  1.0000
  C   C410      1.0  0.40374  0.80647  0.02397  1.0000
  C   C411      1.0  0.42164  0.80833  0.04645  1.0000
  C   C412      1.0  0.42122  0.80610  0.09153  1.0000
  C   C413      1.0  0.40263  0.80076  0.11358  1.0000
  H   H394      1.0  0.37133  0.79955  0.02852  1.0000
  H   H395      1.0  0.40395  0.80812  0.98906  1.0000
  H   H396      1.0  0.43494  0.80764  0.10924  1.0000
  H   H397      1.0  0.40215  0.79816  0.14819  1.0000
  N   N34       1.0  0.48070  0.97470  0.73977  1.0000
  C   C414      1.0  0.38470  0.85363  0.97017  1.0000
  H   H398      1.0  0.34064  0.91341  0.20739  1.0000
  H   H399      1.0  0.60916  0.96638  0.61472  1.0000
  H   H400      1.0  0.36497  0.96415  0.58928  1.0000
  H   H401      1.0  0.46346  0.94565  0.77225  1.0000
  H   H402      1.0  0.36285  0.90215  0.32954  1.0000
  H   H403      1.0  0.44258  0.93393  0.58845  1.0000
  H   H404      1.0  0.36007  0.92467  0.54353  1.0000
  C   C415      1.0  0.37389  0.85272  0.93147  1.0000
  S   S146      1.0  0.35503  0.86957  0.03503  1.0000
  Fe  Fe72      1.0  0.33920  0.80255  0.10661  1.0000
  H   H405      1.0  0.57080  0.88685  0.09111  1.0000
  C   C416      1.0  0.41093  0.92688  0.60274  1.0000
  H   H406      1.0  0.37825  0.84077  0.99256  1.0000
  C   C417      1.0  0.35505  0.89650  0.29814  1.0000
  H   H407      1.0  0.48092  0.94172  0.43594  1.0000
  C   C418      1.0  0.41125  0.88821  0.95217  1.0000
  Fe  Fe73      1.0  0.56300  0.99280  0.82076  1.0000
  C   C419      1.0  0.40357  0.87141  0.98054  1.0000
  H   H408      1.0  0.59010  0.90508  0.15979  1.0000
  H   H409      1.0  0.57052  0.89277  0.39981  1.0000
  H   H410      1.0  0.42199  0.90570  0.86761  1.0000
  H   H411      1.0  0.35894  0.83919  0.92370  1.0000
  H   H412      1.0  0.59010  0.91869  0.45869  1.0000
  C   C420      1.0  0.33899  0.87791  0.91132  1.0000
  H   H413      1.0  0.35725  0.90009  0.52049  1.0000
  C   C421      1.0  0.56210  0.89788  0.42171  1.0000
  C   C422      1.0  0.57328  0.91251  0.45505  1.0000
  H   H414      1.0  0.52076  0.88197  0.35992  1.0000
  H   H415      1.0  0.53996  0.87297  0.35829  1.0000
  H   H416      1.0  0.46619  0.99321  0.72000  1.0000
  S   S147      1.0  0.44049  0.93753  0.41277  1.0000
  N   N35       1.0  0.54102  0.89075  0.41581  1.0000
  C   C423      1.0  0.52939  0.87575  0.38027  1.0000
  H   H417      1.0  0.56827  0.92452  0.74979  1.0000
  C   C424      1.0  0.56271  0.91952  0.48290  1.0000
  H   H418      1.0  0.57121  0.93112  0.50846  1.0000
  C   C425      1.0  0.56754  0.91541  0.17705  1.0000
  H   H419      1.0  0.45421  0.96449  0.77879  1.0000
  C   C426      1.0  0.38202  0.86979  0.90383  1.0000
  Fe  Fe74      1.0  0.60019  0.98977  0.85667  1.0000
  H   H420      1.0  0.38077  0.88512  0.11647  1.0000
  H   H421      1.0  0.37902  0.92088  0.60663  1.0000
  C   C427      1.0  0.57563  0.90524  0.15043  1.0000
  H   H422      1.0  0.51814  0.86047  0.39349  1.0000
  S   S148      1.0  0.49406  0.76476  0.11698  1.0000
  C   C428      1.0  0.42273  0.97559  0.60016  1.0000
  C   C429      1.0  0.54601  0.88503  0.82038  1.0000
  C   C430      1.0  0.53052  0.89748  0.44314  1.0000
  C   C431      1.0  0.54120  0.91194  0.47711  1.0000
  H   H423      1.0  0.57558  0.92306  0.20746  1.0000
  C   C432      1.0  0.40867  0.90525  0.88579  1.0000
  S   S149      1.0  0.42237  0.96991  0.68847  1.0000
  H   H424      1.0  0.51388  0.89207  0.43812  1.0000
  H   H425      1.0  0.53770  0.88698  0.07116  1.0000
  C   C433      1.0  0.37242  0.89131  0.13743  1.0000
  H   H426      1.0  0.38889  0.92978  0.17486  1.0000
  H   H427      1.0  0.51425  0.90152  0.08091  1.0000
  H   H428      1.0  0.40693  0.94102  0.24644  1.0000
  H   H429      1.0  0.59378  0.91971  0.78853  1.0000
  H   H430      1.0  0.53303  0.91781  0.49804  1.0000
  H   H431      1.0  0.42585  0.90208  0.96052  1.0000
  C   C434      1.0  0.39292  0.97098  0.55437  1.0000
  S   S150      1.0  0.38066  0.96932  0.50257  1.0000
  H   H432      1.0  0.39637  0.87800  0.26701  1.0000
  N   N36       1.0  0.56106  0.90081  0.79756  1.0000
  C   C435      1.0  0.40131  0.92496  0.23493  1.0000
  H   H433      1.0  0.40141  0.92374  0.47848  1.0000
  C   C436      1.0  0.38997  0.96749  0.63362  1.0000
  H   H434      1.0  0.54408  0.91657  0.77678  1.0000
  C   C437      1.0  0.58180  0.90715  0.80652  1.0000
  H   H435      1.0  0.42314  0.97809  0.53008  1.0000
  H   H436      1.0  0.37150  0.90427  0.12007  1.0000
  C   C438      1.0  0.56483  0.89500  0.11206  1.0000
  C   C439      1.0  0.39527  0.88959  0.24651  1.0000
  H   H437      1.0  0.38059  0.96433  0.66221  1.0000
  C   C440      1.0  0.38113  0.96732  0.59214  1.0000
  H   H438      1.0  0.35614  0.87875  0.14100  1.0000
  H   H439      1.0  0.52960  0.88050  0.81428  1.0000
  H   H440      1.0  0.41198  0.87225  0.01071  1.0000
  C   C441      1.0  0.41383  0.97519  0.55869  1.0000
  H   H441      1.0  0.54191  0.92210  0.18693  1.0000
  C   C442      1.0  0.41083  0.97149  0.63785  1.0000
  N   N37       1.0  0.38310  0.89802  0.18014  1.0000
  H   H442      1.0  0.37822  0.86726  0.19503  1.0000
  C   C443      1.0  0.55155  0.87529  0.85347  1.0000
  C   C444      1.0  0.57263  0.88191  0.86341  1.0000
  H   H443      1.0  0.43622  0.93162  0.50814  1.0000
  C   C445      1.0  0.54599  0.89501  0.10097  1.0000
  H   H444      1.0  0.37319  0.86920  0.87443  1.0000
  H   H445      1.0  0.53957  0.86336  0.87266  1.0000
  C   C446      1.0  0.39099  0.91846  0.19434  1.0000
  C   C447      1.0  0.38503  0.88361  0.20570  1.0000
  H   H446      1.0  0.41424  0.92024  0.90485  1.0000
  S   S151      1.0  0.42951  0.98416  0.42834  1.0000
  H   H447      1.0  0.53209  0.98831  0.73233  1.0000
  C   C448      1.0  0.41370  0.75880  0.06427  1.0000
  C   C449      1.0  0.51767  0.90364  0.11657  1.0000
  H   H448      1.0  0.43888  0.97874  0.60293  1.0000
  Fe  Fe75      1.0  0.40609  0.98766  0.84304  1.0000
  H   H449      1.0  0.39624  0.75738  0.12142  1.0000
  H   H450      1.0  0.50518  0.89006  0.13295  1.0000
  H   H451      1.0  0.51713  0.91816  0.12731  1.0000
  C   C450      1.0  0.54850  0.91487  0.16519  1.0000
  N   N38       1.0  0.53806  0.90486  0.12742  1.0000
  C   C451      1.0  0.42370  0.92901  0.53014  1.0000
  N   N39       1.0  0.38818  0.92196  0.54078  1.0000
  Fe  Fe76      1.0  0.33401  0.83845  0.06585  1.0000
  C   C452      1.0  0.40392  0.92467  0.51345  1.0000
  H   H452      1.0  0.51066  0.75735  0.03511  1.0000
  H   H453      1.0  0.45160  0.77308  0.99758  1.0000
  C   C453      1.0  0.43518  0.76086  0.00163  1.0000
  H   H454      1.0  0.36860  0.92401  0.49018  1.0000
  C   C454      1.0  0.35354  0.88024  0.98446  1.0000
  C   C455      1.0  0.36907  0.90059  0.97593  1.0000
  H   H455      1.0  0.41359  0.92835  0.63777  1.0000
  C   C456      1.0  0.42721  0.93019  0.57509  1.0000
  Fe  Fe77      1.0  0.42357  0.99472  0.36332  1.0000
  C   C457      1.0  0.34690  0.87514  0.28594  1.0000
  H   H456      1.0  0.40358  0.76236  0.04331  1.0000
  C   C458      1.0  0.40947  0.75601  0.10856  1.0000
  H   H457      1.0  0.49399  0.99485  0.41483  1.0000
  H   H458      1.0  0.47493  0.99851  0.84272  1.0000
  C   C459      1.0  0.33695  0.86760  0.24502  1.0000
  H   H459      1.0  0.38980  0.00149  0.02647  1.0000
  H   H460      1.0  0.45712  0.75285  0.06187  1.0000
  C   C460      1.0  0.44359  0.75362  0.07470  1.0000
  S   S152      1.0  0.67182  0.11144  0.13981  1.0000
  Fe  Fe78      1.0  0.67328  0.14212  0.11876  1.0000
  S   S153      1.0  0.69717  0.17633  0.13735  1.0000
  H   H461      1.0  0.84611  0.22969  0.18372  1.0000
  C   C461      1.0  0.76550  0.22129  0.10024  1.0000
  C   C462      1.0  0.75397  0.22841  0.12536  1.0000
  C   C463      1.0  0.73318  0.21445  0.13623  1.0000
  C   C464      1.0  0.72345  0.19322  0.12194  1.0000
  C   C465      1.0  0.73493  0.18617  0.09657  1.0000
  C   C466      1.0  0.75579  0.20007  0.08605  1.0000
  C   C467      1.0  0.67028  0.05206  0.97571  1.0000
  H   H462      1.0  0.72453  0.22015  0.15584  1.0000
  H   H463      1.0  0.72782  0.16995  0.08532  1.0000
  H   H464      1.0  0.76446  0.19430  0.06667  1.0000
  S   S154      1.0  0.79222  0.23782  0.08712  1.0000
  C   C468      1.0  0.66961  0.04564  0.17515  1.0000
  H   H465      1.0  0.80985  0.21828  0.15482  1.0000
  H   H466      1.0  0.67680  0.06299  0.11581  1.0000
  H   H467      1.0  0.68571  0.04934  0.18261  1.0000
  C   C469      1.0  0.80554  0.24071  0.19494  1.0000
  H   H468      1.0  0.68699  0.05961  0.98238  1.0000
  H   H469      1.0  0.78979  0.23559  0.18207  1.0000
  H   H470      1.0  0.66580  0.18823  0.17433  1.0000
  C   C470      1.0  0.81679  0.23066  0.17974  1.0000
  H   H471      1.0  0.67150  0.03030  0.92881  1.0000
  C   C471      1.0  0.83711  0.23713  0.19584  1.0000
  S   S155      1.0  0.67078  0.08057  0.03448  1.0000
  H   H472      1.0  0.76107  0.24463  0.13647  1.0000
  H   H473      1.0  0.66729  0.18621  0.09443  1.0000
  C   C472      1.0  0.66465  0.05337  0.13782  1.0000
  Fe  Fe79      1.0  0.84853  0.45691  0.11349  1.0000
  S   S156      1.0  0.82829  0.45674  0.05718  1.0000
  S   S157      1.0  0.84864  0.42931  0.14736  1.0000
  N   N40       1.0  0.92889  0.48638  0.25947  1.0000
  Fe  Fe80      1.0  0.98715  0.37521  0.43453  1.0000
  S   S158      1.0  0.84073  0.47775  0.15606  1.0000
  S   S159      1.0  0.87773  0.48338  0.08897  1.0000
  Fe  Fe81      1.0  0.84472  0.30684  0.16300  1.0000
  S   S160      1.0  0.86091  0.33015  0.11197  1.0000
  S   S161      1.0  0.85475  0.31735  0.23307  1.0000
  Fe  Fe82      1.0  0.81621  0.27272  0.09712  1.0000
  S   S162      1.0  0.83117  0.29359  0.04010  1.0000
  Fe  Fe83      1.0  0.86198  0.30362  0.07534  1.0000
  S   S163      1.0  0.89485  0.31384  0.05266  1.0000
  Fe  Fe84      1.0  0.82930  0.31889  0.08073  1.0000
  S   S164      1.0  0.82290  0.34299  0.04667  1.0000
  S   S165      1.0  0.84771  0.28076  0.12889  1.0000
  S   S166      1.0  0.81232  0.29760  0.13536  1.0000
  Fe  Fe85      1.0  0.68192  0.48442  0.07688  1.0000
  H   H474      1.0  0.77991  0.37015  0.03605  1.0000
  H   H475      1.0  0.92504  0.34739  0.49989  1.0000
  C   C473      1.0  0.74909  0.49696  0.19207  1.0000
  S   S167      1.0  0.94869  0.37873  0.79900  1.0000
  H   H476      1.0  0.92452  0.36802  0.89057  1.0000
  H   H477      1.0  0.84275  0.33171  0.97057  1.0000
  H   H478      1.0  0.93503  0.33899  0.63491  1.0000
  Fe  Fe86      1.0  0.95041  0.35292  0.83526  1.0000
  S   S168      1.0  0.91879  0.32692  0.85372  1.0000
  H   H479      1.0  0.92494  0.39129  0.91431  1.0000
  Fe  Fe87      1.0  0.96734  0.39781  0.38575  1.0000
  H   H480      1.0  0.94714  0.33100  0.47970  1.0000
  Fe  Fe88      1.0  0.96341  0.35752  0.34735  1.0000
  H   H481      1.0  0.79215  0.36424  0.10788  1.0000
  S   S169      1.0  0.94292  0.32914  0.30422  1.0000
  S   S170      1.0  0.78693  0.46900  0.11108  1.0000
  H   H482      1.0  0.94322  0.37406  0.24242  1.0000
  S   S171      1.0  0.95403  0.36533  0.41156  1.0000
  S   S172      1.0  0.97408  0.38935  0.31982  1.0000
  C   C474      1.0  0.89621  0.45965  0.22925  1.0000
  H   H483      1.0  0.77475  0.40174  0.02598  1.0000
  C   C475      1.0  0.96644  0.44200  0.37159  1.0000
  C   C476      1.0  0.96080  0.45799  0.37686  1.0000
  H   H484      1.0  0.86169  0.25869  0.23975  1.0000
  C   C477      1.0  0.99348  0.48275  0.34581  1.0000
  H   H485      1.0  0.85168  0.32923  0.89357  1.0000
  H   H486      1.0  0.96641  0.46356  0.88254  1.0000
  C   C478      1.0  0.94965  0.34013  0.17452  1.0000
  H   H487      1.0  0.91228  0.37946  0.17676  1.0000
  H   H488      1.0  0.96126  0.46608  0.75504  1.0000
  C   C479      1.0  0.98972  0.37435  0.55275  1.0000
  N   N41       1.0  0.95296  0.32545  0.54527  1.0000
  H   H489      1.0  0.71510  0.46028  0.10752  1.0000
  N   N42       1.0  0.81443  0.25704  0.22464  1.0000
  C   C480      1.0  0.98077  0.46655  0.86684  1.0000
  C   C481      1.0  0.98520  0.44619  0.35176  1.0000
  C   C482      1.0  0.93701  0.33662  0.60068  1.0000
  H   H490      1.0  0.92834  0.32274  0.12119  1.0000
  C   C483      1.0  0.87920  0.32038  0.25261  1.0000
  C   C484      1.0  0.88881  0.30957  0.23299  1.0000
  C   C485      1.0  0.90809  0.31199  0.24980  1.0000
  C   C486      1.0  0.91825  0.32576  0.28534  1.0000
  C   C487      1.0  0.90880  0.33683  0.30446  1.0000
  C   C488      1.0  0.88917  0.33385  0.28862  1.0000
  H   H491      1.0  0.88135  0.29923  0.20512  1.0000
  H   H492      1.0  0.91536  0.30346  0.23474  1.0000
  H   H493      1.0  0.91648  0.34748  0.33185  1.0000
  H   H494      1.0  0.88183  0.34224  0.30402  1.0000
  C   C489      1.0  0.91239  0.32264  0.90912  1.0000
  C   C490      1.0  0.92769  0.33175  0.94230  1.0000
  C   C491      1.0  0.92205  0.32886  0.98610  1.0000
  C   C492      1.0  0.90105  0.31703  0.99715  1.0000
  C   C493      1.0  0.88570  0.30788  0.96406  1.0000
  C   C494      1.0  0.89142  0.31043  0.92019  1.0000
  H   H495      1.0  0.94391  0.34074  0.93427  1.0000
  H   H496      1.0  0.93403  0.33574  0.01154  1.0000
  H   H497      1.0  0.86951  0.29852  0.97225  1.0000
  H   H498      1.0  0.87952  0.30312  0.89471  1.0000
  H   H499      1.0  0.93285  0.37505  0.94595  1.0000
  C   C495      1.0  0.78271  0.38114  0.06301  1.0000
  C   C496      1.0  0.73101  0.47013  0.09805  1.0000
  H   H500      1.0  0.97261  0.38970  0.52750  1.0000
  H   H501      1.0  0.74254  0.44942  0.12273  1.0000
  C   C497      1.0  0.77994  0.39888  0.05733  1.0000
  C   C498      1.0  0.84344  0.40619  0.11764  1.0000
  C   C499      1.0  0.84323  0.38925  0.13989  1.0000
  C   C500      1.0  0.83758  0.37000  0.11804  1.0000
  C   C501      1.0  0.83194  0.36753  0.07379  1.0000
  C   C502      1.0  0.83251  0.38459  0.05129  1.0000
  C   C503      1.0  0.83833  0.40393  0.07311  1.0000
  H   H502      1.0  0.84713  0.39089  0.17436  1.0000
  H   H503      1.0  0.83707  0.35691  0.13571  1.0000
  H   H504      1.0  0.82819  0.38277  0.01701  1.0000
  H   H505      1.0  0.83844  0.41690  0.05568  1.0000
  C   C504      1.0  0.99186  0.48240  0.72894  1.0000
  Fe  Fe89      1.0  0.97401  0.40040  0.84500  1.0000
  H   H506      1.0  0.90955  0.45797  0.29119  1.0000
  H   H507      1.0  0.95808  0.29888  0.53750  1.0000
  H   H508      1.0  0.98968  0.43394  0.34743  1.0000
  H   H509      1.0  0.88692  0.46588  0.16664  1.0000
  H   H510      1.0  0.98106  0.32319  0.55370  1.0000
  H   H511      1.0  0.78194  0.42686  0.08758  1.0000
  S   S173      1.0  0.96923  0.38673  0.68685  1.0000
  H   H512      1.0  0.97229  0.44818  0.47595  1.0000
  C   C505      1.0  0.94400  0.33214  0.51373  1.0000
  C   C506      1.0  0.98542  0.46357  0.47126  1.0000
  H   H513      1.0  0.79112  0.26695  0.21430  1.0000
  H   H514      1.0  0.81282  0.28423  0.24840  1.0000
  Fe  Fe90      1.0  0.85713  0.48534  0.03600  1.0000
  C   C507      1.0  0.74666  0.46402  0.10666  1.0000
  C   C508      1.0  0.79395  0.39249  0.13743  1.0000
  H   H515      1.0  0.98883  0.49860  0.85307  1.0000
  H   H516      1.0  0.89164  0.35377  0.18946  1.0000
  C   C509      1.0  0.80237  0.26738  0.24000  1.0000
  H   H517      1.0  0.79657  0.43985  0.15717  1.0000
  H   H518      1.0  0.96267  0.39699  0.60030  1.0000
  C   C510      1.0  0.79582  0.42488  0.16799  1.0000
  N   N43       1.0  0.79139  0.40994  0.13148  1.0000
  S   S174      1.0  0.97429  0.35179  0.79046  1.0000
  C   C511      1.0  0.94939  0.32734  0.58825  1.0000
  H   H519      1.0  0.95740  0.42448  0.78911  1.0000
  C   C512      1.0  0.93150  0.34147  0.52498  1.0000
  H   H520      1.0  0.87072  0.35392  0.02397  1.0000
  S   S175      1.0  0.96979  0.42544  0.88068  1.0000
  C   C513      1.0  0.78416  0.41310  0.09228  1.0000
  N   N44       1.0  0.89998  0.36259  0.93444  1.0000
  C   C514      1.0  0.89519  0.36395  0.97683  1.0000
  C   C515      1.0  0.88456  0.35054  0.90457  1.0000
  C   C516      1.0  0.87456  0.35290  0.99037  1.0000
  C   C517      1.0  0.86378  0.33916  0.91708  1.0000
  C   C518      1.0  0.85879  0.34042  0.96027  1.0000
  C   C519      1.0  0.92159  0.37489  0.92067  1.0000
  H   H521      1.0  0.90738  0.37350  0.00051  1.0000
  H   H522      1.0  0.88840  0.34916  0.87110  1.0000
  H   H523      1.0  0.95998  0.33323  0.16953  1.0000
  Fe  Fe91      1.0  0.82169  0.47918  0.09812  1.0000
  S   S176      1.0  0.97400  0.37474  0.88431  1.0000
  C   C520      1.0  0.90811  0.36559  0.19719  1.0000
  H   H524      1.0  0.90865  0.37030  0.23200  1.0000
  H   H525      1.0  0.78344  0.41805  0.19232  1.0000
  C   C521      1.0  0.97429  0.46446  0.74207  1.0000
  N   N45       1.0  0.92242  0.35674  0.18953  1.0000
  H   H526      1.0  0.90457  0.33786  0.13481  1.0000
  C   C522      1.0  0.97829  0.38253  0.63604  1.0000
  C   C523      1.0  0.76759  0.47670  0.09527  1.0000
  H   H527      1.0  0.99049  0.42824  0.72446  1.0000
  C   C524      1.0  0.94007  0.36309  0.21532  1.0000
  C   C525      1.0  0.91843  0.34276  0.15558  1.0000
  C   C526      1.0  0.95536  0.42665  0.75401  1.0000
  H   H528      1.0  0.88234  0.44460  0.23170  1.0000
  C   C527      1.0  0.97438  0.47837  0.36418  1.0000
  H   H529      1.0  0.91895  0.35154  0.57808  1.0000
  H   H530      1.0  0.74035  0.48170  0.20619  1.0000
  C   C528      1.0  0.93189  0.33416  0.14768  1.0000
  C   C529      1.0  0.97216  0.38904  0.59791  1.0000
  H   H531      1.0  0.80005  0.39019  0.16825  1.0000
  C   C530      1.0  0.77255  0.49548  0.07433  1.0000
  C   C531      1.0  0.94504  0.49384  0.29425  1.0000
  C   C532      1.0  0.95389  0.35481  0.20835  1.0000
  H   H532      1.0  0.94088  0.42819  0.74915  1.0000
  S   S177      1.0  0.86739  0.49075  0.96584  1.0000
  Fe  Fe92      1.0  0.97437  0.37964  0.75729  1.0000
  H   H533      1.0  0.95679  0.32239  0.61329  1.0000
  H   H534      1.0  0.81125  0.42884  0.18368  1.0000
  C   C533      1.0  0.97780  0.38496  0.55652  1.0000
  S   S178      1.0  0.95099  0.41744  0.39346  1.0000
  H   H535      1.0  0.96739  0.35921  0.23012  1.0000
  H   H536      1.0  0.94629  0.45478  0.39212  1.0000
  C   C534      1.0  0.91157  0.46730  0.26264  1.0000
  C   C535      1.0  0.99061  0.37232  0.63237  1.0000
  H   H537      1.0  0.84111  0.27590  0.26551  1.0000
  C   C536      1.0  0.78953  0.37777  0.10342  1.0000
  C   C537      1.0  0.96641  0.31610  0.53330  1.0000
  C   C538      1.0  0.92807  0.34377  0.56878  1.0000
  C   C539      1.0  0.89878  0.47158  0.19250  1.0000
  H   H538      1.0  0.97025  0.48065  0.49797  1.0000
  H   H539      1.0  0.97008  0.49063  0.36895  1.0000
  H   H540      1.0  0.93790  0.48975  0.32671  1.0000
  H   H541      1.0  0.95309  0.41235  0.73532  1.0000
  N   N46       1.0  0.97375  0.44523  0.73942  1.0000
  C   C540      1.0  0.73611  0.48926  0.07843  1.0000
  H   H542      1.0  0.97140  0.31935  0.49904  1.0000
  C   C541      1.0  0.99070  0.44340  0.72544  1.0000
  S   S179      1.0  0.71782  0.49938  0.07267  1.0000
  C   C542      1.0  0.83416  0.26316  0.24143  1.0000
  C   C543      1.0  0.91659  0.49088  0.18928  1.0000
  C   C544      1.0  0.71643  0.49911  0.18368  1.0000
  H   H543      1.0  0.95579  0.48693  0.28959  1.0000
  C   C545      1.0  0.98647  0.45054  0.86250  1.0000
  H   H544      1.0  0.70831  0.48270  0.17048  1.0000
  H   H545      1.0  0.99245  0.49770  0.73190  1.0000
  C   C546      1.0  0.98423  0.48173  0.48328  1.0000
  C   C547      1.0  0.99342  0.48635  0.85004  1.0000
  H   H546      1.0  0.71296  0.49941  0.21860  1.0000
  C   C548      1.0  0.75695  0.50174  0.06627  1.0000
  H   H547      1.0  0.79361  0.25947  0.26916  1.0000
  H   H548      1.0  0.77834  0.49558  0.19569  1.0000
  H   H549      1.0  0.88777  0.49990  0.88338  1.0000
  C   C549      1.0  0.84585  0.25340  0.22712  1.0000
  C   C550      1.0  0.93167  0.49804  0.22318  1.0000
  S   S180      1.0  0.99577  0.36452  0.37180  1.0000
  S   S181      1.0  0.99527  0.36676  0.50122  1.0000
  H   H550      1.0  0.99557  0.36733  0.66135  1.0000
  H   H551      1.0  0.91847  0.50047  0.16117  1.0000
  C   C551      1.0  0.89416  0.50163  0.95251  1.0000
  C   C552      1.0  0.99634  0.36834  0.59095  1.0000
  C   C553      1.0  0.77058  0.50478  0.18648  1.0000
  H   H552      1.0  0.94535  0.51320  0.22076  1.0000
  S   S182      1.0  0.89618  0.53240  0.15937  1.0000
  H   H553      1.0  0.76114  0.51654  0.05101  1.0000
  H   H554      1.0  0.89211  0.55043  0.06664  1.0000
  C   C554      1.0  0.92974  0.56384  0.99521  1.0000
  C   C555      1.0  0.78182  0.52406  0.16697  1.0000
  S   S183      1.0  0.97771  0.52634  0.79772  1.0000
  S   S184      1.0  0.99220  0.57800  0.39793  1.0000
  H   H555      1.0  0.70972  0.50788  0.16532  1.0000
  H   H556      1.0  0.87925  0.50565  0.23416  1.0000
  Fe  Fe93      1.0  0.98177  0.54663  0.85755  1.0000
  S   S185      1.0  0.96336  0.54035  0.91978  1.0000
  C   C556      1.0  0.93105  0.51926  0.97392  1.0000
  H   H557      1.0  0.94918  0.57421  0.93904  1.0000
  S   S186      1.0  0.97941  0.52824  0.40738  1.0000
  C   C557      1.0  0.89305  0.54579  0.98107  1.0000
  H   H558      1.0  0.94306  0.56908  0.01770  1.0000
  C   C558      1.0  0.90626  0.54940  0.05623  1.0000
  H   H559      1.0  0.97637  0.56133  0.53570  1.0000
  Fe  Fe94      1.0  0.97031  0.54737  0.36289  1.0000
  S   S187      1.0  0.93540  0.53230  0.34666  1.0000
  H   H560      1.0  0.94307  0.52494  0.99943  1.0000
  H   H561      1.0  0.90404  0.53340  0.06290  1.0000
  N   N47       1.0  0.73904  0.50795  0.17815  1.0000
  S   S188      1.0  0.97759  0.56026  0.69571  1.0000
  S   S189      1.0  0.99291  0.55011  0.31144  1.0000
  H   H562      1.0  0.88278  0.54158  0.91364  1.0000
  H   H563      1.0  0.92526  0.51906  0.86397  1.0000
  H   H564      1.0  0.77995  0.55002  0.13702  1.0000
  H   H565      1.0  0.90583  0.50557  0.01860  1.0000
  C   C559      1.0  0.91635  0.55919  0.92120  1.0000
  H   H566      1.0  0.91898  0.56064  0.88653  1.0000
  H   H567      1.0  0.87728  0.53658  0.99239  1.0000
  C   C560      1.0  0.90703  0.53158  0.21103  1.0000
  C   C561      1.0  0.92785  0.54624  0.22165  1.0000
  C   C562      1.0  0.93690  0.54635  0.26270  1.0000
  C   C563      1.0  0.92501  0.53210  0.29393  1.0000
  C   C564      1.0  0.90422  0.51738  0.28325  1.0000
  C   C565      1.0  0.89531  0.51695  0.24183  1.0000
  H   H568      1.0  0.93699  0.55769  0.19814  1.0000
  H   H569      1.0  0.95287  0.55786  0.27067  1.0000
  C   C566      1.0  0.89606  0.54857  0.93638  1.0000
  C   C567      1.0  0.98419  0.55939  0.56430  1.0000
  S   S190      1.0  0.99252  0.57644  0.82017  1.0000
  H   H570      1.0  0.96258  0.56161  0.60909  1.0000
  H   H571      1.0  0.74190  0.53536  0.14688  1.0000
  C   C568      1.0  0.93676  0.52343  0.93037  1.0000
  C   C569      1.0  0.98667  0.55764  0.64374  1.0000
  C   C570      1.0  0.90991  0.50834  0.98493  1.0000
  C   C571      1.0  0.77150  0.53529  0.15331  1.0000
  Fe  Fe95      1.0  0.99095  0.55657  0.76099  1.0000
  C   C572      1.0  0.92109  0.51590  0.89762  1.0000
  N   N48       1.0  0.90978  0.55358  0.00985  1.0000
  H   H572      1.0  0.91959  0.56084  0.07699  1.0000
  C   C573      1.0  0.93332  0.56690  0.95073  1.0000
  C   C574      1.0  0.97642  0.55958  0.60601  1.0000
  S   S191      1.0  0.66591  0.50524  0.07568  1.0000
  H   H573      1.0  0.95430  0.51119  0.29478  1.0000
  H   H574      1.0  0.78850  0.50544  0.06525  1.0000
  C   C575      1.0  0.74996  0.52695  0.15917  1.0000
  S   S192      1.0  0.84918  0.50793  0.07262  1.0000
  H   H575      1.0  0.89490  0.50635  0.30726  1.0000
  H   H576      1.0  0.79836  0.52997  0.16131  1.0000
  Fe  Fe96      1.0  0.86853  0.50431  0.12730  1.0000
  C   C576      1.0  0.89985  0.50510  0.90873  1.0000
