data_image0
_chemical_formula_structural       SFeCSFeS2CFeHS2CSFeS2FeSFeSC4HCH5SHCHC6H3CHSCNHC7H2CHCHC2HC7H3CNH2SC2H2C2H4C2H5C4SH4C3H7NHSFeS2FeSFeCHFe2SFeS2HFeSCHFeS2HSFeSFeSCFeS2CSCFeSCSHSC4SCH2NHC6H3C7H4C5FeH2CHC5H2CHNHC2SH3CSHFeCHNC3H2S2HSCH5CH7CHCHSC2HFeS2HSFeSFeSFeS3FeSH2SFeSFeS2HCH2C6H3C7H3C7H4CH3SCHCNCHSFeC5HNHSHCH3C2NHC3HSHCH2CH4CHSH3C4H2CHC2HFeSHSFeSFeS3CSFeS2FeS2FeSHSH3CSC4HFeH2C6H4C3HC7H4C2HCHNHCHC2FeH3CH6CHC2HCH3C2HC2NC2HC3SCH3NC2H6C5H2SFeS2FeSFeSFeS5CFeS2FeS2FeSFeS3C2HC6H4C6H4CHC2HC6H4C2HC2H2C4HCH4CH3C3HCNH2CNC5HSHCH3CHCNC6H9CNHCH4CHC2HCHCHCH3NHC3HC2H2CHC4H2NH11CHC2NCH3C2H2SFeS2FeS2FeSFeS4HFeSFeS2FeSFeS2C4HCHC7HC3NH2C6H4CH2C2HC6H4C6H3C2FeCH3C3H3C2HC3HC2H2CHCNHCH3C4H4C4FeH4NHNHCH2CH4C7H3N2H2CH2CHNH4SC2H3C2HS2CH3C2H5SHSFeS2FeS2Fe2S3CSFeS2FeSFeHS2C2HCHCHC5H2C6H4C3HNH3C8H4SH3CSNHC2HC3H2SCH2FeNHC2H2CNC4HC2HC3H4C2HC2HCHCNH2CHCH2CH3CHCH2CH4FeH2C2NC2HFeHCHCSCHCHCH3CHFeS2FeS2FeSFeS3C2FeS2FeHFeSFeS2CHC15H4C6H4CH4CH3NSHNHCH5C3H2C2SHC2H3SH2C2H2CH2CH7NC2H2C2H2CHNCHCH2C2HC2H2CNCHC2H3SFeS2Fe2CFeHSHCSFeS2FeSFeS3FeS2FeS2Fe2S3FeS2FeHFe2S2CHC7H7C6H9C6H5CS2H2CH2CHCH4C3NCSNH3C2H3SHCH3NC5SH2CSHC4H2C2FeH3N2C2H2SFeS2FeSFeSFeS3FeS2FeS2FeSFeS4C6H4C4H2NH2C6H4CH2C6H3CHCHCHNH4C3HC2HNCHCH2CHC2H3C4H3CHC2H3CH4CN2C4HCHCNH2CHCH2C2HCH4C3H3
_chemical_formula_sum              "S192 Fe96 C576 H576 N48"
_cell_length_a       53.4808
_cell_length_b       53.7478
_cell_length_c       47.3124
_cell_angle_alpha    90.4549
_cell_angle_beta     89.8785
_cell_angle_gamma    119.868

_space_group_name_H-M_alt    "P 1"
_space_group_IT_number       1

loop_
  _space_group_symop_operation_xyz
  'x, y, z'

loop_
  _atom_site_type_symbol
  _atom_site_label
  _atom_site_symmetry_multiplicity
  _atom_site_fract_x
  _atom_site_fract_y
  _atom_site_fract_z
  _atom_site_occupancy
  S   S1        1.0  0.41221  0.09162  0.32979  1.0000
  Fe  Fe1       1.0  0.45911  0.09033  0.17121  1.0000
  C   C1        1.0  0.01829  0.33178  0.03875  1.0000
  S   S2        1.0  0.46586  0.07707  0.21485  1.0000
  Fe  Fe2       1.0  0.42544  0.06814  0.11452  1.0000
  S   S3        1.0  0.45280  0.11036  0.09295  1.0000
  S   S4        1.0  0.39173  0.02521  0.09529  1.0000
  C   C2        1.0  0.41532  0.41517  0.03534  1.0000
  Fe  Fe3       1.0  0.45026  0.13109  0.13398  1.0000
  H   H1        1.0  0.48003  0.38937  0.26628  1.0000
  S   S5        1.0  0.46265  0.06632  0.13384  1.0000
  S   S6        1.0  0.41926  0.08852  0.15397  1.0000
  C   C3        1.0  0.38627  0.18566  0.11007  1.0000
  S   S7        1.0  0.45832  0.37979  0.14916  1.0000
  Fe  Fe4       1.0  0.46161  0.31806  0.11024  1.0000
  S   S8        1.0  0.41989  0.31795  0.11756  1.0000
  S   S9        1.0  0.46451  0.28237  0.08708  1.0000
  Fe  Fe5       1.0  0.44448  0.36444  0.10416  1.0000
  S   S10       1.0  0.42989  0.39198  0.07987  1.0000
  Fe  Fe6       1.0  0.43767  0.33363  0.16151  1.0000
  S   S11       1.0  0.41245  0.31305  0.20156  1.0000
  C   C4        1.0  0.33709  0.37261  0.01654  1.0000
  C   C5        1.0  0.39178  0.25226  0.16317  1.0000
  C   C6        1.0  0.39086  0.21138  0.09845  1.0000
  C   C7        1.0  0.39208  0.23287  0.11625  1.0000
  H   H2        1.0  0.40697  0.10573  0.27222  1.0000
  C   C8        1.0  0.02156  0.37816  0.04182  1.0000
  H   H3        1.0  0.38662  0.16932  0.09672  1.0000
  H   H4        1.0  0.33757  0.40367  0.04588  1.0000
  H   H5        1.0  0.36558  0.03656  0.19237  1.0000
  H   H6        1.0  0.41501  0.26798  0.16647  1.0000
  H   H7        1.0  0.41422  0.05925  0.04373  1.0000
  S   S12       1.0  0.46150  0.37017  0.32267  1.0000
  H   H8        1.0  0.41908  0.35401  0.03053  1.0000
  C   C9        1.0  0.38283  0.18168  0.13921  1.0000
  H   H9        1.0  0.39483  0.21522  0.07597  1.0000
  C   C10       1.0  0.42693  0.32847  0.23522  1.0000
  C   C11       1.0  0.41352  0.31327  0.25998  1.0000
  C   C12       1.0  0.42417  0.32532  0.28697  1.0000
  C   C13       1.0  0.44811  0.35292  0.28943  1.0000
  C   C14       1.0  0.46158  0.36799  0.26465  1.0000
  C   C15       1.0  0.45124  0.35579  0.23772  1.0000
  H   H10       1.0  0.39465  0.29218  0.25830  1.0000
  H   H11       1.0  0.41345  0.31355  0.30582  1.0000
  H   H12       1.0  0.10875  0.41623  0.05078  1.0000
  C   C16       1.0  0.47375  0.05092  0.02488  1.0000
  H   H13       1.0  0.38266  0.20077  0.17913  1.0000
  S   S13       1.0  0.44059  0.16682  0.14550  1.0000
  C   C17       1.0  0.41990  0.39271  0.04401  1.0000
  N   N1        1.0  0.39257  0.02160  0.20946  1.0000
  H   H14       1.0  0.41836  0.43171  0.05040  1.0000
  C   C18       1.0  0.40316  0.01601  0.23342  1.0000
  C   C19       1.0  0.45302  0.20071  0.12959  1.0000
  C   C20       1.0  0.45835  0.20483  0.10056  1.0000
  C   C21       1.0  0.46295  0.23046  0.08795  1.0000
  C   C22       1.0  0.46241  0.25219  0.10423  1.0000
  C   C23       1.0  0.45860  0.24870  0.13345  1.0000
  C   C24       1.0  0.40120  0.01595  0.18177  1.0000
  H   H15       1.0  0.45762  0.18776  0.08765  1.0000
  H   H16       1.0  0.46600  0.23302  0.06532  1.0000
  C   C25       1.0  0.01078  0.35026  0.05252  1.0000
  H   H17       1.0  0.45832  0.26528  0.14627  1.0000
  C   C26       1.0  0.38847  0.01602  0.05862  1.0000
  H   H18       1.0  0.39694  0.25326  0.10716  1.0000
  C   C27       1.0  0.03987  0.38721  0.01764  1.0000
  C   C28       1.0  0.12443  0.41789  0.03518  1.0000
  H   H19       1.0  0.37019  0.03585  0.28298  1.0000
  C   C29       1.0  0.44880  0.01483  0.06027  1.0000
  C   C30       1.0  0.42999  0.09104  0.29828  1.0000
  C   C31       1.0  0.45011  0.08163  0.29828  1.0000
  C   C32       1.0  0.46163  0.07840  0.27261  1.0000
  C   C33       1.0  0.45352  0.08495  0.24670  1.0000
  C   C34       1.0  0.43429  0.09549  0.24674  1.0000
  C   C35       1.0  0.42244  0.09834  0.27244  1.0000
  H   H20       1.0  0.45621  0.07604  0.31802  1.0000
  H   H21       1.0  0.46177  0.36777  0.21892  1.0000
  H   H22       1.0  0.42792  0.10068  0.22695  1.0000
  C   C36       1.0  0.36513  0.03678  0.23778  1.0000
  N   N2        1.0  0.38857  0.22874  0.14482  1.0000
  H   H23       1.0  0.10135  0.37295  0.02507  1.0000
  H   H24       1.0  0.38065  0.16228  0.14851  1.0000
  S   S14       1.0  0.48520  0.36348  0.09381  1.0000
  C   C37       1.0  0.46643  0.04355  0.05309  1.0000
  C   C38       1.0  0.33071  0.39369  0.02518  1.0000
  H   H25       1.0  0.44960  0.21997  0.16847  1.0000
  H   H26       1.0  0.47505  0.43559  0.12017  1.0000
  C   C39       1.0  0.40190  0.03684  0.03774  1.0000
  C   C40       1.0  0.38422  0.20364  0.15641  1.0000
  H   H27       1.0  0.35078  0.04556  0.23926  1.0000
  H   H28       1.0  0.15149  0.46371  0.03974  1.0000
  H   H29       1.0  0.01595  0.39272  0.05219  1.0000
  H   H30       1.0  0.40425  0.01731  0.27913  1.0000
  C   C41       1.0  0.45375  0.22301  0.14600  1.0000
  C   C42       1.0  0.41574  0.37145  0.02427  1.0000
  H   H31       1.0  0.38127  0.26363  0.15375  1.0000
  H   H32       1.0  0.47653  0.07030  0.27285  1.0000
  H   H33       1.0  0.38177  0.24457  0.18425  1.0000
  H   H34       1.0  0.01020  0.31026  0.04662  1.0000
  H   H35       1.0  0.45375  0.15767  0.33514  1.0000
  C   C43       1.0  0.37582  0.03112  0.26231  1.0000
  C   C44       1.0  0.37374  0.03181  0.21134  1.0000
  C   C45       1.0  0.14827  0.44448  0.02887  1.0000
  C   C46       1.0  0.03606  0.34059  0.01484  1.0000
  S   S15       1.0  0.47749  0.33069  0.15458  1.0000
  H   H36       1.0  0.44216  0.00909  0.08206  1.0000
  H   H37       1.0  0.47387  0.06013  0.06929  1.0000
  H   H38       1.0  0.34920  0.36633  0.03031  1.0000
  H   H39       1.0  0.39174  0.99250  0.17837  1.0000
  C   C47       1.0  0.39495  0.02067  0.26017  1.0000
  C   C48       1.0  0.43862  0.99379  0.03899  1.0000
  C   C49       1.0  0.12039  0.39341  0.02062  1.0000
  H   H40       1.0  0.41883  0.00885  0.23192  1.0000
  H   H41       1.0  0.39402  0.02445  0.16408  1.0000
  H   H42       1.0  0.42509  0.02644  0.18058  1.0000
  H   H43       1.0  0.42282  0.20275  0.33740  1.0000
  H   H44       1.0  0.31111  0.41878  0.01323  1.0000
  H   H45       1.0  0.42052  0.15798  0.33341  1.0000
  H   H46       1.0  0.48717  0.07331  0.01923  1.0000
  N   N3        1.0  0.44563  0.00122  0.01131  1.0000
  H   H47       1.0  0.00629  0.32573  0.42573  1.0000
  S   S16       1.0  0.44644  0.06201  0.38752  1.0000
  Fe  Fe7       1.0  0.46117  0.13351  0.42196  1.0000
  S   S17       1.0  0.41623  0.09629  0.41519  1.0000
  S   S18       1.0  0.16458  0.47085  0.66149  1.0000
  Fe  Fe8       1.0  0.43426  0.06869  0.43165  1.0000
  S   S19       1.0  0.41569  0.02738  0.45820  1.0000
  Fe  Fe9       1.0  0.43310  0.09296  0.37215  1.0000
  C   C50       1.0  0.25834  0.40144  0.55850  1.0000
  H   H48       1.0  0.19370  0.37918  0.59007  1.0000
  Fe  Fe10      1.0  0.14658  0.48279  0.62453  1.0000
  Fe  Fe11      1.0  0.11872  0.44408  0.67583  1.0000
  S   S20       1.0  0.40554  0.44857  0.65010  1.0000
  Fe  Fe12      1.0  0.34639  0.45678  0.61198  1.0000
  S   S21       1.0  0.34230  0.41360  0.61983  1.0000
  S   S22       1.0  0.31280  0.46384  0.58996  1.0000
  H   H49       1.0  0.47207  0.26813  0.43721  1.0000
  Fe  Fe13      1.0  0.38885  0.43461  0.60546  1.0000
  S   S23       1.0  0.41373  0.41776  0.57918  1.0000
  C   C51       1.0  0.00946  0.38011  0.51597  1.0000
  H   H50       1.0  0.47773  0.05607  0.47943  1.0000
  Fe  Fe14      1.0  0.44050  0.30323  0.40899  1.0000
  S   S24       1.0  0.41345  0.32159  0.39277  1.0000
  S   S25       1.0  0.41787  0.25438  0.40905  1.0000
  H   H51       1.0  0.29234  0.39567  0.57563  1.0000
  S   S26       1.0  0.46881  0.38476  0.40182  1.0000
  Fe  Fe15      1.0  0.43256  0.35322  0.42915  1.0000
  S   S27       1.0  0.40225  0.36325  0.45520  1.0000
  Fe  Fe16      1.0  0.45240  0.35137  0.36711  1.0000
  S   S28       1.0  0.45748  0.33313  0.44659  1.0000
  C   C52       1.0  0.39356  0.00165  0.55216  1.0000
  Fe  Fe17      1.0  0.15620  0.43256  0.63506  1.0000
  S   S29       1.0  0.11069  0.40466  0.65134  1.0000
  S   S30       1.0  0.18705  0.41505  0.63878  1.0000
  C   C53       1.0  0.41557  0.31510  0.51847  1.0000
  S   S31       1.0  0.10134  0.45856  0.64034  1.0000
  C   C54       1.0  0.39534  0.30734  0.49668  1.0000
  Fe  Fe18      1.0  0.09740  0.42179  0.61414  1.0000
  S   S32       1.0  0.05444  0.39826  0.59003  1.0000
  C   C55       1.0  0.21080  0.35741  0.63131  1.0000
  S   S33       1.0  0.14229  0.44691  0.59627  1.0000
  H   H52       1.0  0.39742  0.04328  0.55778  1.0000
  S   S34       1.0  0.47667  0.13144  0.37840  1.0000
  C   C56       1.0  0.04594  0.39359  0.55329  1.0000
  C   C57       1.0  0.06646  0.39819  0.53252  1.0000
  C   C58       1.0  0.05835  0.39326  0.50373  1.0000
  C   C59       1.0  0.02982  0.38414  0.49526  1.0000
  S   S35       1.0  0.47799  0.33092  0.38111  1.0000
  C   C60       1.0  0.01744  0.38457  0.54478  1.0000
  H   H53       1.0  0.08841  0.40495  0.53868  1.0000
  H   H54       1.0  0.07427  0.39633  0.48791  1.0000
  N   N4        1.0  0.39142  0.28652  0.47748  1.0000
  H   H55       1.0  0.38315  0.31844  0.49493  1.0000
  C   C61       1.0  0.27989  0.45505  0.60689  1.0000
  C   C62       1.0  0.27174  0.43954  0.63206  1.0000
  C   C63       1.0  0.24374  0.42918  0.64282  1.0000
  C   C64       1.0  0.22376  0.43447  0.62871  1.0000
  C   C65       1.0  0.23248  0.45143  0.60445  1.0000
  C   C66       1.0  0.26041  0.46156  0.59353  1.0000
  H   H56       1.0  0.28661  0.43453  0.64261  1.0000
  H   H57       1.0  0.37622  0.27002  0.43594  1.0000
  H   H58       1.0  0.21725  0.45549  0.59329  1.0000
  C   C67       1.0  0.99148  0.31088  0.48544  1.0000
  C   C68       1.0  0.41043  0.40356  0.54419  1.0000
  C   C69       1.0  0.43225  0.39850  0.53383  1.0000
  C   C70       1.0  0.43050  0.38686  0.50651  1.0000
  C   C71       1.0  0.40665  0.37978  0.48918  1.0000
  C   C72       1.0  0.38481  0.38480  0.49954  1.0000
  C   C73       1.0  0.38672  0.39676  0.52674  1.0000
  H   H59       1.0  0.45074  0.40371  0.54704  1.0000
  H   H60       1.0  0.44754  0.38325  0.49893  1.0000
  H   H61       1.0  0.36623  0.37942  0.48640  1.0000
  H   H62       1.0  0.36973  0.40045  0.53429  1.0000
  C   C74       1.0  0.45775  0.19858  0.43225  1.0000
  C   C75       1.0  0.43063  0.18647  0.41938  1.0000
  C   C76       1.0  0.41846  0.20377  0.41304  1.0000
  C   C77       1.0  0.43344  0.23337  0.41906  1.0000
  C   C78       1.0  0.46036  0.24542  0.43233  1.0000
  Fe  Fe19      1.0  0.40529  0.48915  0.64025  1.0000
  H   H63       1.0  0.41898  0.16377  0.41448  1.0000
  H   H64       1.0  0.39749  0.19422  0.40303  1.0000
  C   C79       1.0  0.44404  0.21197  0.34692  1.0000
  H   H65       1.0  0.43869  0.26788  0.50338  1.0000
  C   C80       1.0  0.40862  0.01886  0.49486  1.0000
  C   C81       1.0  0.40687  0.03748  0.51458  1.0000
  C   C82       1.0  0.39922  0.02884  0.54294  1.0000
  C   C83       1.0  0.48566  0.25321  0.36691  1.0000
  C   C84       1.0  0.08261  0.46652  0.56064  1.0000
  H   H66       1.0  0.41079  0.05832  0.50786  1.0000
  H   H67       1.0  0.40244  0.25480  0.46555  1.0000
  C   C85       1.0  0.47232  0.22802  0.43909  1.0000
  H   H68       1.0  0.23722  0.41623  0.66169  1.0000
  N   N5        1.0  0.45578  0.19509  0.35309  1.0000
  H   H69       1.0  0.41913  0.33223  0.53313  1.0000
  C   C86       1.0  0.27030  0.39115  0.57819  1.0000
  C   C87       1.0  0.40607  0.27183  0.48029  1.0000
  S   S36       1.0  0.47825  0.10631  0.44099  1.0000
  H   H70       1.0  0.01458  0.32377  0.48883  1.0000
  H   H71       1.0  0.02094  0.30616  0.44317  1.0000
  H   H72       1.0  0.43257  0.15186  0.36670  1.0000
  C   C88       1.0  0.37063  0.27929  0.45439  1.0000
  S   S37       1.0  0.36037  0.47306  0.65601  1.0000
  H   H73       1.0  0.99094  0.28771  0.41942  1.0000
  Fe  Fe20      1.0  0.35971  0.43165  0.66344  1.0000
  C   C89       1.0  0.42651  0.27903  0.50182  1.0000
  H   H74       1.0  0.26662  0.47366  0.57411  1.0000
  N   N6        1.0  0.22715  0.37248  0.60609  1.0000
  C   C90       1.0  0.21497  0.38187  0.58652  1.0000
  C   C91       1.0  0.25428  0.37653  0.60197  1.0000
  C   C92       1.0  0.23043  0.39661  0.56253  1.0000
  H   H75       1.0  0.22540  0.36223  0.64977  1.0000
  H   H76       1.0  0.19879  0.33393  0.62729  1.0000
  S   S38       1.0  0.39189  0.47687  0.59504  1.0000
  S   S39       1.0  0.02028  0.37618  0.45891  1.0000
  H   H77       1.0  0.22128  0.40531  0.54782  1.0000
  S   S40       1.0  0.47464  0.17809  0.43945  1.0000
  C   C93       1.0  0.43142  0.30099  0.52086  1.0000
  H   H78       1.0  0.27118  0.41410  0.54079  1.0000
  H   H79       1.0  0.34863  0.26361  0.46175  1.0000
  H   H80       1.0  0.37072  0.29887  0.44668  1.0000
  H   H81       1.0  0.45405  0.47161  0.60553  1.0000
  H   H82       1.0  0.06901  0.46099  0.57995  1.0000
  C   C94       1.0  0.00066  0.30494  0.43573  1.0000
  H   H83       1.0  0.44751  0.30712  0.53740  1.0000
  H   H84       1.0  0.00140  0.38099  0.56064  1.0000
  H   H85       1.0  0.06861  0.45521  0.54217  1.0000
  H   H86       1.0  0.26411  0.36938  0.61758  1.0000
  H   H87       1.0  0.19523  0.36458  0.63739  1.0000
  H   H88       1.0  0.47080  0.03867  0.42988  1.0000
  H   H89       1.0  0.09753  0.45799  0.56382  1.0000
  C   C95       1.0  0.48199  0.20659  0.36630  1.0000
  H   H90       1.0  0.45640  0.47897  0.55377  1.0000
  C   C96       1.0  0.45881  0.24127  0.35367  1.0000
  H   H91       1.0  0.44900  0.25440  0.34973  1.0000
  S   S41       1.0  0.38163  0.99102  0.58765  1.0000
  C   C97       1.0  0.40326  0.99177  0.50416  1.0000
  C   C98       1.0  0.43985  0.16425  0.34676  1.0000
  H   H92       1.0  0.40953  0.04509  0.99307  1.0000
  Fe  Fe21      1.0  0.33200  0.43796  0.91121  1.0000
  S   S42       1.0  0.34924  0.41059  0.89270  1.0000
  S   S43       1.0  0.28293  0.41626  0.91375  1.0000
  H   H93       1.0  0.29905  0.47407  0.93414  1.0000
  S   S44       1.0  0.41364  0.46357  0.90492  1.0000
  Fe  Fe22      1.0  0.38100  0.45031  0.86961  1.0000
  S   S45       1.0  0.39972  0.45680  0.82500  1.0000
  Fe  Fe23      1.0  0.38028  0.42618  0.92964  1.0000
  S   S46       1.0  0.38937  0.39414  0.95277  1.0000
  Fe  Fe24      1.0  0.11327  0.47083  0.91784  1.0000
  S   S47       1.0  0.36100  0.45089  0.94940  1.0000
  S   S48       1.0  0.33894  0.40972  0.70498  1.0000
  S   S49       1.0  0.10504  0.45181  0.71932  1.0000
  Fe  Fe25      1.0  0.16124  0.45746  0.93064  1.0000
  S   S50       1.0  0.13301  0.41119  0.91969  1.0000
  H   H94       1.0  0.17742  0.42318  0.97697  1.0000
  H   H95       1.0  0.29057  0.33379  0.94432  1.0000
  S   S51       1.0  0.08206  0.42515  0.90503  1.0000
  Fe  Fe26      1.0  0.09801  0.41387  0.94413  1.0000
  S   S52       1.0  0.07007  0.37687  0.97385  1.0000
  Fe  Fe27      1.0  0.11987  0.42731  0.88191  1.0000
  S   S53       1.0  0.12282  0.40911  0.83925  1.0000
  S   S54       1.0  0.12750  0.45938  0.95803  1.0000
  H   H96       1.0  0.04131  0.32567  0.00464  1.0000
  C   C99       1.0  0.21522  0.40933  0.84184  1.0000
  H   H97       1.0  0.22209  0.39522  0.91339  1.0000
  H   H98       1.0  0.26868  0.47120  0.87008  1.0000
  C   C100      1.0  0.11142  0.44057  0.75242  1.0000
  C   C101      1.0  0.12189  0.42143  0.75446  1.0000
  C   C102      1.0  0.12542  0.41215  0.78120  1.0000
  C   C103      1.0  0.11888  0.42214  0.80615  1.0000
  C   C104      1.0  0.10902  0.44177  0.80414  1.0000
  C   C105      1.0  0.10513  0.45076  0.77740  1.0000
  H   H99       1.0  0.12670  0.41332  0.73542  1.0000
  H   H100      1.0  0.13295  0.39687  0.78250  1.0000
  H   H101      1.0  0.10375  0.44949  0.82315  1.0000
  C   C106      1.0  0.04708  0.36823  0.00398  1.0000
  C   C107      1.0  0.26268  0.43309  0.92297  1.0000
  C   C108      1.0  0.23246  0.41734  0.92048  1.0000
  C   C109      1.0  0.21556  0.43017  0.92635  1.0000
  C   C110      1.0  0.22867  0.45874  0.93555  1.0000
  C   C111      1.0  0.25884  0.47433  0.93856  1.0000
  C   C112      1.0  0.27582  0.46170  0.93204  1.0000
  H   H102      1.0  0.21086  0.38832  0.83466  1.0000
  H   H103      1.0  0.19243  0.41790  0.92374  1.0000
  H   H104      1.0  0.25935  0.42362  0.85357  1.0000
  C   C113      1.0  0.13361  0.36970  0.98390  1.0000
  C   C114      1.0  0.38229  0.44198  0.79216  1.0000
  C   C115      1.0  0.39893  0.45016  0.76731  1.0000
  C   C116      1.0  0.38596  0.44060  0.74054  1.0000
  C   C117      1.0  0.35619  0.42211  0.73833  1.0000
  C   C118      1.0  0.33958  0.41354  0.76319  1.0000
  C   C119      1.0  0.35248  0.42362  0.78997  1.0000
  H   H105      1.0  0.09690  0.46545  0.77603  1.0000
  H   H106      1.0  0.39904  0.44727  0.72164  1.0000
  H   H107      1.0  0.31655  0.39914  0.76171  1.0000
  H   H108      1.0  0.33941  0.41707  0.80887  1.0000
  C   C120      1.0  0.40233  0.39500  0.98772  1.0000
  H   H109      1.0  0.40350  0.35582  0.98145  1.0000
  H   H110      1.0  0.04821  0.40867  0.00954  1.0000
  H   H111      1.0  0.21254  0.48946  0.88187  1.0000
  S   S55       1.0  0.36177  0.47669  0.88555  1.0000
  C   C121      1.0  0.38343  0.99970  0.00059  1.0000
  H   H112      1.0  0.46836  0.03528  0.98213  1.0000
  C   C122      1.0  0.24757  0.45608  0.86165  1.0000
  N   N7        1.0  0.31498  0.36941  0.97146  1.0000
  C   C123      1.0  0.40689  0.37256  0.99640  1.0000
  H   H113      1.0  0.18240  0.44905  0.84981  1.0000
  S   S56       1.0  0.38211  0.99106  0.96392  1.0000
  Fe  Fe28      1.0  0.39237  0.48734  0.92206  1.0000
  C   C124      1.0  0.16268  0.42140  0.99364  1.0000
  C   C125      1.0  0.34545  0.47959  0.73387  1.0000
  C   C126      1.0  0.19356  0.41659  0.84090  1.0000
  C   C127      1.0  0.30802  0.38960  0.97998  1.0000
  C   C128      1.0  0.31595  0.40219  0.00688  1.0000
  H   H114      1.0  0.34487  0.46627  0.71553  1.0000
  N   N8        1.0  0.13938  0.39538  0.00013  1.0000
  H   H115      1.0  0.42200  0.46428  0.76873  1.0000
  S   S57       1.0  0.20826  0.47576  0.94343  1.0000
  H   H116      1.0  0.39415  0.00445  0.78807  1.0000
  C   C129      1.0  0.24246  0.42920  0.85219  1.0000
  H   H117      1.0  0.11752  0.36566  0.96704  1.0000
  H   H118      1.0  0.40318  0.43375  0.00117  1.0000
  H   H119      1.0  0.18599  0.46690  0.00252  1.0000
  C   C130      1.0  0.32904  0.36065  0.98943  1.0000
  C   C131      1.0  0.30731  0.35678  0.94303  1.0000
  N   N9        1.0  0.22600  0.46277  0.86122  1.0000
  H   H120      1.0  0.29687  0.39660  0.96576  1.0000
  C   C132      1.0  0.40533  0.99270  0.79243  1.0000
  C   C133      1.0  0.19939  0.44360  0.85064  1.0000
  C   C134      1.0  0.40676  0.41644  0.00738  1.0000
  H   H121      1.0  0.17227  0.40140  0.83278  1.0000
  S   S58       1.0  0.14988  0.47378  0.89183  1.0000
  H   H122      1.0  0.36191  0.48805  0.78819  1.0000
  C   C135      1.0  0.46310  0.02934  0.00410  1.0000
  H   H123      1.0  0.32673  0.35863  0.93233  1.0000
  H   H124      1.0  0.29889  0.36789  0.92956  1.0000
  C   C136      1.0  0.39920  0.02872  0.00897  1.0000
  H   H125      1.0  0.15350  0.37213  0.97384  1.0000
  H   H126      1.0  0.33521  0.34519  0.98240  1.0000
  H   H127      1.0  0.12472  0.35057  0.99775  1.0000
  H   H128      1.0  0.33048  0.46427  0.74977  1.0000
  C   C137      1.0  0.16763  0.44628  0.00805  1.0000
  H   H129      1.0  0.39901  0.99215  0.83748  1.0000
  S   S59       1.0  0.99992  0.63065  0.08264  1.0000
  H   H130      1.0  0.99104  0.60334  0.26858  1.0000
  H   H131      1.0  0.02108  0.70103  0.04941  1.0000
  H   H132      1.0  0.05510  0.66518  0.05619  1.0000
  C   C138      1.0  0.01170  0.63163  0.04708  1.0000
  C   C139      1.0  0.04037  0.65165  0.03983  1.0000
  C   C140      1.0  0.37237  0.98698  0.05025  1.0000
  C   C141      1.0  0.37006  0.97881  0.02145  1.0000
  H   H133      1.0  0.35767  0.95642  0.01540  1.0000
  H   H134      1.0  0.36171  0.97067  0.06614  1.0000
  C   C142      1.0  0.00306  0.68743  0.03571  1.0000
  H   H135      1.0  0.42430  0.97159  0.04465  1.0000
  C   C143      1.0  0.05001  0.65489  0.01153  1.0000
  C   C144      1.0  0.99293  0.61437  0.02563  1.0000
  H   H136      1.0  0.08573  0.53127  0.01119  1.0000
  Fe  Fe29      1.0  0.37098  0.94923  0.61026  1.0000
  S   S60       1.0  0.35304  0.90710  0.58736  1.0000
  H   H137      1.0  0.32802  0.98472  0.55357  1.0000
  S   S61       1.0  0.35032  0.87737  0.64910  1.0000
  Fe  Fe30      1.0  0.38313  0.90004  0.61507  1.0000
  S   S62       1.0  0.41227  0.88472  0.59719  1.0000
  Fe  Fe31      1.0  0.32197  0.88858  0.62366  1.0000
  S   S63       1.0  0.27316  0.86190  0.61887  1.0000
  S   S64       1.0  0.40305  0.94332  0.63588  1.0000
  S   S65       1.0  0.33791  0.93139  0.64544  1.0000
  C   C145      1.0  0.02736  0.68586  0.61924  1.0000
  S   S66       1.0  0.16681  0.52912  0.61065  1.0000
  Fe  Fe32      1.0  0.15448  0.69750  0.61384  1.0000
  S   S67       1.0  0.12344  0.71341  0.62147  1.0000
  S   S68       1.0  0.20223  0.72579  0.60400  1.0000
  Fe  Fe33      1.0  0.10907  0.63606  0.62786  1.0000
  S   S69       1.0  0.07528  0.64819  0.63736  1.0000
  S   S70       1.0  0.09245  0.58881  0.63339  1.0000
  Fe  Fe34      1.0  0.09090  0.67374  0.59733  1.0000
  S   S71       1.0  0.05996  0.67586  0.56503  1.0000
  H   H138      1.0  0.34132  0.97942  0.50473  1.0000
  S   S72       1.0  0.12314  0.65984  0.58684  1.0000
  H   H139      1.0  0.46499  0.58633  0.57293  1.0000
  H   H140      1.0  0.06716  0.73377  0.57579  1.0000
  H   H141      1.0  0.07989  0.75399  0.62985  1.0000
  C   C146      1.0  0.06482  0.73163  0.63426  1.0000
  S   S73       1.0  0.14340  0.67177  0.65389  1.0000
  C   C147      1.0  0.02166  0.65701  0.52012  1.0000
  C   C148      1.0  0.03844  0.65048  0.53828  1.0000
  C   C149      1.0  0.03733  0.62406  0.53487  1.0000
  C   C150      1.0  0.01975  0.60456  0.51360  1.0000
  H   H142      1.0  0.31848  0.96079  0.60223  1.0000
  Fe  Fe35      1.0  0.36832  0.92125  0.66884  1.0000
  H   H143      1.0  0.05008  0.61866  0.54856  1.0000
  H   H144      1.0  0.40447  0.97711  0.48916  1.0000
  C   C151      1.0  0.14605  0.54603  0.61513  1.0000
  C   C152      1.0  0.15900  0.57597  0.61292  1.0000
  C   C153      1.0  0.14264  0.58963  0.61742  1.0000
  C   C154      1.0  0.11333  0.57322  0.62402  1.0000
  C   C155      1.0  0.10030  0.54335  0.62517  1.0000
  C   C156      1.0  0.11657  0.52987  0.62065  1.0000
  H   H145      1.0  0.18177  0.58864  0.60825  1.0000
  H   H146      1.0  0.15281  0.61277  0.61644  1.0000
  H   H147      1.0  0.08592  0.55367  0.55504  1.0000
  H   H148      1.0  0.10606  0.50693  0.62107  1.0000
  C   C157      1.0  0.46155  0.55979  0.63893  1.0000
  C   C158      1.0  0.45372  0.56106  0.61099  1.0000
  C   C159      1.0  0.46846  0.91214  0.66276  1.0000
  H   H149      1.0  0.43436  0.54335  0.60208  1.0000
  C   C160      1.0  0.47106  0.58540  0.59453  1.0000
  C   C161      1.0  0.25377  0.82418  0.61361  1.0000
  C   C162      1.0  0.22363  0.80937  0.61673  1.0000
  C   C163      1.0  0.20750  0.77930  0.61359  1.0000
  C   C164      1.0  0.22137  0.76376  0.60693  1.0000
  C   C165      1.0  0.25149  0.77864  0.60350  1.0000
  C   C166      1.0  0.26766  0.80868  0.60694  1.0000
  H   H150      1.0  0.21269  0.82118  0.62179  1.0000
  H   H151      1.0  0.18437  0.76815  0.61626  1.0000
  H   H152      1.0  0.26240  0.76682  0.59826  1.0000
  H   H153      1.0  0.29083  0.81982  0.60429  1.0000
  C   C167      1.0  0.44137  0.89169  0.61948  1.0000
  C   C168      1.0  0.44352  0.90340  0.64647  1.0000
  H   H154      1.0  0.29101  0.92370  0.60361  1.0000
  C   C169      1.0  0.46374  0.88757  0.60939  1.0000
  H   H155      1.0  0.42615  0.90613  0.65466  1.0000
  N   N10       1.0  0.04583  0.71430  0.61394  1.0000
  H   H156      1.0  0.46204  0.87827  0.58863  1.0000
  C   C170      1.0  0.12700  0.55652  0.54743  1.0000
  H   H157      1.0  0.28227  0.94977  0.59028  1.0000
  C   C171      1.0  0.48659  0.58290  0.65033  1.0000
  C   C172      1.0  0.00303  0.61110  0.49538  1.0000
  Fe  Fe36      1.0  0.11087  0.68588  0.66048  1.0000
  H   H158      1.0  0.25939  0.76384  0.66667  1.0000
  H   H159      1.0  0.13848  0.57967  0.54506  1.0000
  H   H160      1.0  0.20954  0.72304  0.66879  1.0000
  C   C173      1.0  0.02754  0.67417  0.64550  1.0000
  H   H161      1.0  0.04205  0.74479  0.58859  1.0000
  H   H162      1.0  0.39166  0.96228  0.53921  1.0000
  H   H163      1.0  0.32882  0.93113  0.48640  1.0000
  H   H164      1.0  0.30200  0.88834  0.51717  1.0000
  H   H165      1.0  0.01305  0.67182  0.60279  1.0000
  H   H166      1.0  0.28820  0.89440  0.56553  1.0000
  C   C174      1.0  0.32917  0.96055  0.51775  1.0000
  H   H167      1.0  0.47758  0.93774  0.56069  1.0000
  C   C175      1.0  0.30734  0.90952  0.52479  1.0000
  C   C176      1.0  0.47763  0.96461  0.60838  1.0000
  H   H168      1.0  0.13896  0.50028  0.54990  1.0000
  C   C177      1.0  0.46876  0.49255  0.59686  1.0000
  H   H169      1.0  0.16499  0.55258  0.54241  1.0000
  H   H170      1.0  0.02928  0.71030  0.57185  1.0000
  H   H171      1.0  0.06039  0.50099  0.56196  1.0000
  C   C178      1.0  0.12698  0.51168  0.55020  1.0000
  C   C179      1.0  0.32227  0.93346  0.50753  1.0000
  H   H172      1.0  0.02233  0.67736  0.52239  1.0000
  C   C180      1.0  0.08325  0.51220  0.55719  1.0000
  C   C181      1.0  0.47012  0.49676  0.56774  1.0000
  N   N11       1.0  0.30712  0.93990  0.56224  1.0000
  C   C182      1.0  0.29967  0.91312  0.55219  1.0000
  C   C183      1.0  0.32152  0.96341  0.54537  1.0000
  H   H173      1.0  0.07756  0.53055  0.62992  1.0000
  C   C184      1.0  0.04600  0.72647  0.58625  1.0000
  C   C185      1.0  0.14186  0.54134  0.54582  1.0000
  C   C186      1.0  0.29925  0.94366  0.59100  1.0000
  S   S74       1.0  0.44146  0.52935  0.65999  1.0000
  C   C187      1.0  0.39602  0.98329  0.53260  1.0000
  H   H174      1.0  0.45622  0.94800  0.60011  1.0000
  H   H175      1.0  0.47621  0.96319  0.63181  1.0000
  H   H176      1.0  0.01930  0.58432  0.51116  1.0000
  N   N12       1.0  0.09810  0.49757  0.55606  1.0000
  C   C188      1.0  0.09749  0.54191  0.55308  1.0000
  C   C189      1.0  0.00411  0.63752  0.49880  1.0000
  H   H177      1.0  0.48464  0.51250  0.63751  1.0000
  H   H178      1.0  0.01345  0.65147  0.64935  1.0000
  H   H179      1.0  0.48153  0.98603  0.60181  1.0000
  H   H180      1.0  0.99145  0.64295  0.48504  1.0000
  H   H181      1.0  0.29058  0.81518  0.66323  1.0000
  H   H182      1.0  0.27828  0.83914  0.67364  1.0000
  C   C190      1.0  0.21409  0.74437  0.67504  1.0000
  C   C191      1.0  0.24224  0.76761  0.67371  1.0000
  C   C192      1.0  0.04674  0.69174  0.66638  1.0000
  C   C193      1.0  0.06547  0.72067  0.66079  1.0000
  C   C194      1.0  0.48619  0.51542  0.61478  1.0000
  H   H183      1.0  0.08086  0.73430  0.67677  1.0000
  H   H184      1.0  0.17886  0.59447  0.67704  1.0000
  S   S75       1.0  0.38139  0.92399  0.71535  1.0000
  Fe  Fe37      1.0  0.34666  0.92833  0.87538  1.0000
  S   S76       1.0  0.35522  0.89196  0.88010  1.0000
  S   S77       1.0  0.33082  0.93572  0.83322  1.0000
  Fe  Fe38      1.0  0.36634  0.94992  0.93728  1.0000
  S   S78       1.0  0.37636  0.91450  0.94552  1.0000
  Fe  Fe39      1.0  0.39602  0.92361  0.90213  1.0000
  S   S79       1.0  0.43876  0.93097  0.88516  1.0000
  Fe  Fe40      1.0  0.33415  0.88586  0.92261  1.0000
  S   S80       1.0  0.30414  0.83929  0.93481  1.0000
  S   S81       1.0  0.38861  0.96054  0.89499  1.0000
  S   S82       1.0  0.32288  0.92073  0.91683  1.0000
  S   S83       1.0  0.41945  0.53199  0.93999  1.0000
  S   S84       1.0  0.10946  0.70617  0.70262  1.0000
  C   C195      1.0  0.13366  0.56968  0.68771  1.0000
  Fe  Fe41      1.0  0.14184  0.71683  0.91150  1.0000
  S   S85       1.0  0.09638  0.69693  0.89397  1.0000
  S   S86       1.0  0.16874  0.76566  0.91253  1.0000
  Fe  Fe42      1.0  0.13713  0.65857  0.91894  1.0000
  S   S87       1.0  0.09215  0.63555  0.90215  1.0000
  S   S88       1.0  0.16060  0.63463  0.93025  1.0000
  Fe  Fe43      1.0  0.10838  0.66896  0.86812  1.0000
  S   S89       1.0  0.09905  0.64928  0.82359  1.0000
  Fe  Fe44      1.0  0.08440  0.66524  0.92982  1.0000
  S   S90       1.0  0.04098  0.64282  0.95353  1.0000
  S   S91       1.0  0.15412  0.69058  0.88373  1.0000
  S   S92       1.0  0.12908  0.68681  0.94869  1.0000
  C   C196      1.0  0.03101  0.63815  0.98999  1.0000
  C   C197      1.0  0.42112  0.96927  0.82534  1.0000
  H   H185      1.0  0.33997  0.94292  0.72971  1.0000
  C   C198      1.0  0.11308  0.53686  0.92029  1.0000
  C   C199      1.0  0.14285  0.55191  0.92505  1.0000
  C   C200      1.0  0.15738  0.58200  0.92802  1.0000
  C   C201      1.0  0.14221  0.59703  0.92605  1.0000
  C   C202      1.0  0.11247  0.58177  0.92148  1.0000
  C   C203      1.0  0.09799  0.55188  0.91863  1.0000
  H   H186      1.0  0.15463  0.54041  0.92641  1.0000
  H   H187      1.0  0.18041  0.59366  0.93180  1.0000
  H   H188      1.0  0.10037  0.59279  0.92089  1.0000
  H   H189      1.0  0.07492  0.54031  0.91511  1.0000
  C   C204      1.0  0.10765  0.69047  0.73611  1.0000
  C   C205      1.0  0.11078  0.70639  0.76094  1.0000
  C   C206      1.0  0.10878  0.69440  0.78790  1.0000
  C   C207      1.0  0.10322  0.66616  0.79030  1.0000
  C   C208      1.0  0.10020  0.65030  0.76544  1.0000
  C   C209      1.0  0.10257  0.66240  0.73852  1.0000
  H   H190      1.0  0.11460  0.72808  0.75938  1.0000
  H   H191      1.0  0.11098  0.70682  0.80679  1.0000
  H   H192      1.0  0.09579  0.62842  0.76701  1.0000
  H   H193      1.0  0.09999  0.64984  0.71965  1.0000
  C   C210      1.0  0.45021  0.55470  0.92002  1.0000
  H   H194      1.0  0.41299  0.98766  0.74852  1.0000
  C   C211      1.0  0.45591  0.54513  0.89455  1.0000
  C   C212      1.0  0.16563  0.55016  0.68481  1.0000
  H   H195      1.0  0.44029  0.52450  0.88584  1.0000
  C   C213      1.0  0.26609  0.81956  0.93089  1.0000
  C   C214      1.0  0.25017  0.83272  0.92336  1.0000
  C   C215      1.0  0.22019  0.81598  0.91883  1.0000
  C   C216      1.0  0.20587  0.78593  0.92144  1.0000
  C   C217      1.0  0.22169  0.77283  0.92952  1.0000
  C   C218      1.0  0.25161  0.78962  0.93438  1.0000
  H   H196      1.0  0.26093  0.85577  0.92109  1.0000
  H   H197      1.0  0.20807  0.82631  0.91285  1.0000
  H   H198      1.0  0.21094  0.74977  0.93176  1.0000
  H   H199      1.0  0.26372  0.77928  0.94041  1.0000
  C   C219      1.0  0.46150  0.92344  0.90601  1.0000
  C   C220      1.0  0.00734  0.68604  0.00677  1.0000
  H   H200      1.0  0.42542  0.92054  0.81931  1.0000
  C   C221      1.0  0.45423  0.91319  0.93363  1.0000
  C   C222      1.0  0.39746  0.50983  0.72657  1.0000
  H   H201      1.0  0.18662  0.55257  0.68022  1.0000
  H   H202      1.0  0.43406  0.90945  0.94266  1.0000
  C   C223      1.0  0.36207  0.92209  0.74663  1.0000
  C   C224      1.0  0.36803  0.91163  0.77138  1.0000
  C   C225      1.0  0.35788  0.91485  0.79790  1.0000
  C   C226      1.0  0.34146  0.92848  0.79996  1.0000
  H   H203      1.0  0.14584  0.50502  0.69367  1.0000
  C   C227      1.0  0.34450  0.93449  0.74849  1.0000
  H   H204      1.0  0.38161  0.90201  0.77018  1.0000
  H   H205      1.0  0.36351  0.90756  0.81681  1.0000
  H   H206      1.0  0.04388  0.54401  0.98169  1.0000
  H   H207      1.0  0.48682  0.55404  0.86137  1.0000
  C   C228      1.0  0.23171  0.49110  0.87091  1.0000
  H   H208      1.0  0.16278  0.62679  0.86592  1.0000
  H   H209      1.0  0.07190  0.67091  0.00635  1.0000
  H   H210      1.0  0.18021  0.78046  0.69627  1.0000
  C   C229      1.0  0.47304  0.90749  0.94953  1.0000
  C   C230      1.0  0.09086  0.53953  0.98927  1.0000
  C   C231      1.0  0.48224  0.56195  0.88066  1.0000
  H   H211      1.0  0.41139  0.51592  0.80697  1.0000
  C   C232      1.0  0.19168  0.74902  0.68326  1.0000
  N   N13       1.0  0.11101  0.54301  0.69354  1.0000
  H   H212      1.0  0.12517  0.52752  0.85558  1.0000
  H   H213      1.0  0.16970  0.73123  0.68407  1.0000
  C   C233      1.0  0.11532  0.52009  0.69622  1.0000
  N   N14       1.0  0.12418  0.58991  0.85128  1.0000
  C   C234      1.0  0.13505  0.57173  0.85374  1.0000
  C   C235      1.0  0.09533  0.57926  0.84682  1.0000
  C   C236      1.0  0.11674  0.54198  0.85248  1.0000
  C   C237      1.0  0.07637  0.54961  0.84572  1.0000
  C   C238      1.0  0.00254  0.61766  0.99733  1.0000
  H   H214      1.0  0.11254  0.54303  0.98346  1.0000
  S   S93       1.0  0.09355  0.49947  0.91583  1.0000
  H   H215      1.0  0.08680  0.59373  0.84447  1.0000
  C   C239      1.0  0.33422  0.93761  0.77505  1.0000
  H   H216      1.0  0.15787  0.58016  0.85752  1.0000
  H   H217      1.0  0.45048  0.93495  0.79040  1.0000
  H   H218      1.0  0.07867  0.54133  0.72070  1.0000
  C   C240      1.0  0.11334  0.61761  0.98758  1.0000
  H   H219      1.0  0.28799  0.82161  0.70042  1.0000
  C   C241      1.0  0.43084  0.52820  0.76570  1.0000
  N   N15       1.0  0.26336  0.83441  0.85383  1.0000
  C   C242      1.0  0.23428  0.82159  0.84917  1.0000
  C   C243      1.0  0.27555  0.81841  0.86183  1.0000
  C   C244      1.0  0.21668  0.79187  0.85190  1.0000
  C   C245      1.0  0.25861  0.78864  0.86466  1.0000
  C   C246      1.0  0.22899  0.77534  0.85965  1.0000
  C   C247      1.0  0.28147  0.86565  0.85212  1.0000
  H   H220      1.0  0.22436  0.83438  0.84421  1.0000
  H   H221      1.0  0.29831  0.82879  0.86720  1.0000
  H   H222      1.0  0.19345  0.78186  0.84954  1.0000
  H   H223      1.0  0.21533  0.75250  0.86317  1.0000
  H   H224      1.0  0.27078  0.87566  0.84040  1.0000
  H   H225      1.0  0.28666  0.87509  0.87373  1.0000
  H   H226      1.0  0.30194  0.87160  0.84086  1.0000
  H   H227      1.0  0.26921  0.49642  0.94576  1.0000
  H   H228      1.0  0.05342  0.54125  0.84288  1.0000
  C   C248      1.0  0.44255  0.94072  0.80967  1.0000
  N   N16       1.0  0.24786  0.79480  0.68011  1.0000
  H   H229      1.0  0.13024  0.58785  0.68546  1.0000
  C   C249      1.0  0.08691  0.61630  0.98349  1.0000
  H   H230      1.0  0.15073  0.62939  0.83064  1.0000
  H   H231      1.0  0.33745  0.49409  0.72701  1.0000
  H   H232      1.0  0.07272  0.50783  0.84885  1.0000
  H   H233      1.0  0.26819  0.77623  0.87213  1.0000
  C   C250      1.0  0.40767  0.51493  0.78432  1.0000
  H   H234      1.0  0.08587  0.63586  0.98178  1.0000
  C   C251      1.0  0.42575  0.52580  0.73662  1.0000
  C   C252      1.0  0.16125  0.57361  0.68302  1.0000
  H   H235      1.0  0.13268  0.63198  0.86161  1.0000
  C   C253      1.0  0.11429  0.59214  0.98955  1.0000
  H   H236      1.0  0.45269  0.53999  0.77381  1.0000
  C   C254      1.0  0.48552  0.54053  0.97313  1.0000
  H   H237      1.0  0.24961  0.50059  0.88659  1.0000
  C   C255      1.0  0.06179  0.58971  0.98139  1.0000
  H   H238      1.0  0.42269  0.96340  0.84687  1.0000
  H   H239      1.0  0.46595  0.58936  0.95039  1.0000
  H   H240      1.0  0.43514  0.98741  0.96819  1.0000
  N   N17       1.0  0.08960  0.56609  0.98703  1.0000
  H   H241      1.0  0.44352  0.53589  0.72180  1.0000
  C   C256      1.0  0.19762  0.77674  0.69004  1.0000
  C   C257      1.0  0.08213  0.53912  0.69790  1.0000
  C   C258      1.0  0.06351  0.56463  0.98335  1.0000
  H   H242      1.0  0.32142  0.94807  0.77639  1.0000
  C   C259      1.0  0.08719  0.53090  0.84876  1.0000
  C   C260      1.0  0.47038  0.58179  0.93079  1.0000
  H   H243      1.0  0.02873  0.69865  0.99776  1.0000
  H   H244      1.0  0.04766  0.68287  0.68667  1.0000
  C   C261      1.0  0.14265  0.52334  0.69188  1.0000
  H   H245      1.0  0.13310  0.63823  0.98858  1.0000
  C   C262      1.0  0.14369  0.62100  0.85231  1.0000
  C   C263      1.0  0.37964  0.49909  0.77353  1.0000
  C   C264      1.0  0.42881  0.96679  0.77620  1.0000
  C   C265      1.0  0.48300  0.52379  0.94937  1.0000
  H   H246      1.0  0.46057  0.95115  0.82516  1.0000
  H   H247      1.0  0.43551  0.95837  0.75864  1.0000
  N   N18       1.0  0.43096  0.95972  0.80348  1.0000
  H   H248      1.0  0.46750  0.53365  0.98758  1.0000
  H   H249      1.0  0.07924  0.55519  0.68579  1.0000
  H   H250      1.0  0.47019  0.92171  0.68338  1.0000
  H   H251      1.0  0.04118  0.58867  0.97813  1.0000
  H   H252      1.0  0.13506  0.59345  0.99216  1.0000
  H   H253      1.0  0.07534  0.52284  0.97439  1.0000
  H   H254      1.0  0.46296  0.50384  0.94595  1.0000
  H   H255      1.0  0.41222  0.96219  0.99362  1.0000
  H   H256      1.0  0.46725  0.89938  0.97081  1.0000
  H   H257      1.0  0.47898  0.50373  0.89767  1.0000
  H   H258      1.0  0.23047  0.82110  0.69337  1.0000
  C   C266      1.0  0.40802  0.98575  0.82018  1.0000
  H   H259      1.0  0.09754  0.49898  0.70134  1.0000
  C   C267      1.0  0.48760  0.92795  0.89444  1.0000
  C   C268      1.0  0.41601  0.98341  0.77028  1.0000
  N   N19       1.0  0.37489  0.49636  0.74496  1.0000
  C   C269      1.0  0.22603  0.79953  0.68839  1.0000
  H   H260      1.0  0.39381  0.50796  0.70393  1.0000
  H   H261      1.0  0.44850  0.96829  0.98886  1.0000
  H   H262      1.0  0.23721  0.50575  0.85265  1.0000
  C   C270      1.0  0.27762  0.81879  0.67944  1.0000
  C   C271      1.0  0.43504  0.97869  0.98948  1.0000
  H   H263      1.0  0.06529  0.51763  0.69019  1.0000
  H   H264      1.0  0.93999  0.32716  0.32377  1.0000
  S   S94       1.0  0.52583  0.10954  0.08838  1.0000
  Fe  Fe45      1.0  0.67711  0.08516  0.11916  1.0000
  S   S95       1.0  0.69702  0.13159  0.10650  1.0000
  S   S96       1.0  0.65672  0.04402  0.09197  1.0000
  Fe  Fe46      1.0  0.68635  0.10068  0.18360  1.0000
  S   S97       1.0  0.70745  0.14784  0.17534  1.0000
  S   S98       1.0  0.67262  0.07929  0.22670  1.0000
  Fe  Fe47      1.0  0.67215  0.13551  0.14323  1.0000
  S   S99       1.0  0.64788  0.15960  0.14732  1.0000
  Fe  Fe48      1.0  0.73067  0.14007  0.13972  1.0000
  S   S100      1.0  0.77930  0.16555  0.13292  1.0000
  S   S101      1.0  0.64968  0.08880  0.15333  1.0000
  S   S102      1.0  0.71220  0.09322  0.15037  1.0000
  S   S103      1.0  0.53956  0.40912  0.15819  1.0000
  H   H265      1.0  0.86032  0.31726  0.05862  1.0000
  Fe  Fe49      1.0  0.96223  0.34717  0.11441  1.0000
  S   S104      1.0  0.93301  0.36403  0.10177  1.0000
  Fe  Fe50      1.0  0.94193  0.34029  0.17724  1.0000
  S   S105      1.0  0.91263  0.35792  0.16825  1.0000
  S   S106      1.0  0.93804  0.31933  0.21993  1.0000
  Fe  Fe51      1.0  0.89960  0.32947  0.12966  1.0000
  S   S107      1.0  0.85179  0.30164  0.11958  1.0000
  Fe  Fe52      1.0  0.94897  0.39020  0.14173  1.0000
  S   S108      1.0  0.96663  0.43799  0.14422  1.0000
  S   S109      1.0  0.92739  0.31056  0.13945  1.0000
  C   C272      1.0  0.94624  0.45207  0.12945  1.0000
  C   C273      1.0  0.91745  0.43423  0.12156  1.0000
  C   C274      1.0  0.93895  0.32392  0.27805  1.0000
  C   C275      1.0  0.54595  0.34173  0.16966  1.0000
  H   H266      1.0  0.90787  0.41118  0.12292  1.0000
  C   C276      1.0  0.84507  0.21499  0.20530  1.0000
  H   H267      1.0  0.62830  0.09546  0.21551  1.0000
  C   C277      1.0  0.54243  0.48553  0.10603  1.0000
  C   C278      1.0  0.95188  0.36773  0.30460  1.0000
  C   C279      1.0  0.94327  0.33839  0.25226  1.0000
  C   C280      1.0  0.95166  0.36754  0.25278  1.0000
  C   C281      1.0  0.95602  0.38212  0.27881  1.0000
  C   C282      1.0  0.61388  0.47892  0.10740  1.0000
  C   C283      1.0  0.72855  0.04614  0.02873  1.0000
  H   H268      1.0  0.58347  0.39026  0.14495  1.0000
  C   C284      1.0  0.59124  0.45808  0.15214  1.0000
  C   C285      1.0  0.56740  0.43603  0.13800  1.0000
  C   C286      1.0  0.56666  0.43552  0.10845  1.0000
  N   N20       1.0  0.59793  0.10986  0.21205  1.0000
  H   H269      1.0  0.59189  0.45857  0.17502  1.0000
  H   H270      1.0  0.54835  0.41855  0.09739  1.0000
  C   C287      1.0  0.79903  0.20333  0.12866  1.0000
  C   C288      1.0  0.78530  0.21950  0.12539  1.0000
  C   C289      1.0  0.80176  0.24955  0.12252  1.0000
  C   C290      1.0  0.83206  0.26380  0.12338  1.0000
  C   C291      1.0  0.84580  0.24766  0.12688  1.0000
  C   C292      1.0  0.82935  0.21757  0.12924  1.0000
  H   H271      1.0  0.76199  0.20886  0.12490  1.0000
  H   H272      1.0  0.79091  0.26182  0.11972  1.0000
  H   H273      1.0  0.86906  0.25826  0.12757  1.0000
  H   H274      1.0  0.84017  0.20526  0.13188  1.0000
  C   C293      1.0  0.65726  0.03564  0.05559  1.0000
  H   H275      1.0  0.86814  0.30078  0.21869  1.0000
  H   H276      1.0  0.88436  0.29819  0.18631  1.0000
  C   C294      1.0  0.67089  0.05673  0.03498  1.0000
  C   C295      1.0  0.62695  0.11524  0.21900  1.0000
  H   H277      1.0  0.68187  0.07915  0.04107  1.0000
  C   C296      1.0  0.55961  0.12345  0.10501  1.0000
  C   C297      1.0  0.57830  0.11345  0.09675  1.0000
  C   C298      1.0  0.60539  0.12423  0.10976  1.0000
  C   C299      1.0  0.61419  0.14565  0.13050  1.0000
  C   C300      1.0  0.59557  0.15576  0.13862  1.0000
  C   C301      1.0  0.56818  0.14442  0.12618  1.0000
  H   H278      1.0  0.57175  0.09727  0.08033  1.0000
  H   H279      1.0  0.61967  0.11636  0.10342  1.0000
  H   H280      1.0  0.60229  0.17229  0.15472  1.0000
  H   H281      1.0  0.55396  0.15236  0.13253  1.0000
  C   C302      1.0  0.70539  0.11728  0.31583  1.0000
  C   C303      1.0  0.71880  0.13364  0.29161  1.0000
  C   C304      1.0  0.70880  0.12257  0.26422  1.0000
  C   C305      1.0  0.68540  0.09481  0.26072  1.0000
  C   C306      1.0  0.67186  0.07853  0.28493  1.0000
  C   C307      1.0  0.68168  0.08971  0.31234  1.0000
  H   H282      1.0  0.73714  0.15498  0.29404  1.0000
  H   H283      1.0  0.71944  0.13533  0.24585  1.0000
  H   H284      1.0  0.65379  0.05701  0.28248  1.0000
  C   C308      1.0  0.93333  0.32567  0.03545  1.0000
  C   C309      1.0  0.90082  0.44635  0.11262  1.0000
  Fe  Fe53      1.0  0.48995  0.10910  0.11401  1.0000
  C   C310      1.0  0.64211  0.99865  0.01854  1.0000
  H   H285      1.0  0.85218  0.30031  0.18464  1.0000
  H   H286      1.0  0.94126  0.28325  0.04797  1.0000
  H   H287      1.0  0.77828  0.20492  0.19166  1.0000
  C   C311      1.0  0.81748  0.24603  0.19455  1.0000
  C   C312      1.0  0.58147  0.11361  0.23199  1.0000
  C   C313      1.0  0.59014  0.45670  0.09317  1.0000
  H   H288      1.0  0.80658  0.25794  0.18969  1.0000
  H   H289      1.0  0.87845  0.43254  0.10684  1.0000
  H   H290      1.0  0.80305  0.17719  0.20079  1.0000
  C   C314      1.0  0.86054  0.24500  0.20421  1.0000
  C   C315      1.0  0.58756  0.10115  0.18524  1.0000
  H   H291      1.0  0.49082  0.44964  0.08669  1.0000
  C   C316      1.0  0.86349  0.29136  0.19704  1.0000
  C   C317      1.0  0.89973  0.34332  0.03563  1.0000
  C   C318      1.0  0.57587  0.37866  0.10097  1.0000
  H   H292      1.0  0.94160  0.36517  0.01582  1.0000
  C   C319      1.0  0.92628  0.34646  0.02756  1.0000
  C   C320      1.0  0.60256  0.04592  0.02790  1.0000
  H   H293      1.0  0.73634  0.11197  0.08331  1.0000
  H   H294      1.0  0.58985  0.45605  0.07030  1.0000
  C   C321      1.0  0.92779  0.46482  0.19062  1.0000
  H   H295      1.0  0.88374  0.25629  0.20766  1.0000
  C   C322      1.0  0.61419  0.47974  0.13692  1.0000
  N   N21       1.0  0.73959  0.07588  0.07030  1.0000
  H   H296      1.0  0.52591  0.38960  0.33108  1.0000
  C   C323      1.0  0.81530  0.20049  0.20085  1.0000
  H   H297      1.0  0.70217  0.00063  0.03524  1.0000
  H   H298      1.0  0.52744  0.32015  0.17443  1.0000
  H   H299      1.0  0.85616  0.20308  0.20924  1.0000
  C   C324      1.0  0.94315  0.33848  0.30411  1.0000
  C   C325      1.0  0.56012  0.09608  0.17772  1.0000
  C   C326      1.0  0.55392  0.10882  0.22513  1.0000
  C   C327      1.0  0.54333  0.10016  0.19775  1.0000
  H   H300      1.0  0.67120  0.07683  0.33071  1.0000
  H   H301      1.0  0.55221  0.08966  0.15628  1.0000
  H   H302      1.0  0.54082  0.11189  0.24084  1.0000
  H   H303      1.0  0.52222  0.09681  0.19200  1.0000
  C   C328      1.0  0.57846  0.99696  0.04658  1.0000
  C   C329      1.0  0.92237  0.28116  0.05991  1.0000
  C   C330      1.0  0.88850  0.29924  0.05908  1.0000
  C   C331      1.0  0.88068  0.31956  0.05147  1.0000
  Fe  Fe54      1.0  0.49720  0.37596  0.13919  1.0000
  H   H304      1.0  0.49747  0.42345  0.10332  1.0000
  H   H305      1.0  0.95515  0.37897  0.23313  1.0000
  H   H306      1.0  0.93258  0.30141  0.27788  1.0000
  H   H307      1.0  0.58233  0.00582  0.06787  1.0000
  N   N22       1.0  0.58833  0.01475  0.02371  1.0000
  H   H308      1.0  0.77190  0.12037  0.07190  1.0000
  N   N23       1.0  0.91444  0.30235  0.05087  1.0000
  H   H309      1.0  0.54109  0.48533  0.08316  1.0000
  C   C332      1.0  0.71096  0.02460  0.07427  1.0000
  H   H310      1.0  0.90414  0.25900  0.05672  1.0000
  H   H311      1.0  0.58958  0.12047  0.25329  1.0000
  C   C333      1.0  0.95848  0.48192  0.12778  1.0000
  H   H312      1.0  0.87385  0.28124  0.07204  1.0000
  H   H313      1.0  0.51782  0.30427  0.12735  1.0000
  H   H314      1.0  0.95425  0.32861  0.02957  1.0000
  H   H315      1.0  0.75281  0.09217  0.02865  1.0000
  C   C334      1.0  0.53433  0.32524  0.12019  1.0000
  C   C335      1.0  0.49477  0.44234  0.10726  1.0000
  C   C336      1.0  0.55939  0.35700  0.08149  1.0000
  C   C337      1.0  0.91290  0.47625  0.11167  1.0000
  C   C338      1.0  0.80133  0.21608  0.19577  1.0000
  C   C339      1.0  0.75229  0.10448  0.08334  1.0000
  C   C340      1.0  0.74158  0.07325  0.04170  1.0000
  H   H316      1.0  0.88371  0.44914  0.17873  1.0000
  H   H317      1.0  0.92648  0.44409  0.18817  1.0000
  H   H318      1.0  0.63292  0.12192  0.24139  1.0000
  N   N24       1.0  0.55039  0.34672  0.13916  1.0000
  N   N25       1.0  0.84673  0.26002  0.19838  1.0000
  H   H319      1.0  0.59199  0.39979  0.09377  1.0000
  H   H320      1.0  0.64317  0.13252  0.20532  1.0000
  C   C341      1.0  0.64307  0.00661  0.04717  1.0000
  H   H321      1.0  0.60078  0.09862  0.16935  1.0000
  H   H322      1.0  0.82950  0.21975  0.33580  1.0000
  C   C342      1.0  0.53858  0.33008  0.09111  1.0000
  H   H323      1.0  0.96286  0.40474  0.27894  1.0000
  N   N26       1.0  0.52037  0.46492  0.12161  1.0000
  H   H324      1.0  0.92847  0.28456  0.08264  1.0000
  H   H325      1.0  0.56260  0.36109  0.05897  1.0000
  H   H326      1.0  0.61938  0.05728  0.01157  1.0000
  H   H327      1.0  0.54130  0.35789  0.17949  1.0000
  S   S110      1.0  0.49001  0.13331  0.15302  1.0000
  C   C343      1.0  0.52277  0.46431  0.15036  1.0000
  C   C344      1.0  0.57104  0.37312  0.12990  1.0000
  H   H328      1.0  0.52550  0.31307  0.07616  1.0000
  H   H329      1.0  0.56558  0.34356  0.17962  1.0000
  H   H330      1.0  0.72133  0.05408  0.10897  1.0000
  C   C345      1.0  0.90370  0.46782  0.18534  1.0000
  C   C346      1.0  0.54732  0.48546  0.16435  1.0000
  H   H331      1.0  0.75898  0.10434  0.10556  1.0000
  S   S111      1.0  0.97979  0.37478  0.15347  1.0000
  S   S112      1.0  0.95817  0.38734  0.33675  1.0000
  C   C347      1.0  0.95407  0.48902  0.19738  1.0000
  H   H332      1.0  0.50594  0.44706  0.16257  1.0000
  H   H333      1.0  0.89422  0.35958  0.03021  1.0000
  H   H334      1.0  0.58643  0.05316  0.02679  1.0000
  C   C348      1.0  0.72420  0.05202  0.08653  1.0000
  C   C349      1.0  0.71319  0.02170  0.04518  1.0000
  H   H335      1.0  0.61365  0.05240  0.04878  1.0000
  H   H336      1.0  0.86081  0.47941  0.19295  1.0000
  H   H337      1.0  0.54939  0.48469  0.18709  1.0000
  H   H338      1.0  0.97313  0.48700  0.20028  1.0000
  H   H339      1.0  0.69806  0.00584  0.08712  1.0000
  S   S113      1.0  0.98729  0.33600  0.08223  1.0000
  H   H340      1.0  0.77881  0.18073  0.34365  1.0000
  S   S114      1.0  0.52728  0.09906  0.37840  1.0000
  Fe  Fe55      1.0  0.66557  0.11773  0.44291  1.0000
  S   S115      1.0  0.66330  0.08217  0.41566  1.0000
  S   S116      1.0  0.62845  0.12141  0.46069  1.0000
  Fe  Fe56      1.0  0.73100  0.14689  0.45076  1.0000
  S   S117      1.0  0.73366  0.11286  0.42540  1.0000
  S   S118      1.0  0.76714  0.18621  0.47263  1.0000
  Fe  Fe57      1.0  0.70363  0.11711  0.39469  1.0000
  Fe  Fe58      1.0  0.69324  0.08098  0.44867  1.0000
  S   S119      1.0  0.68738  0.03964  0.46853  1.0000
  S   S120      1.0  0.70285  0.15261  0.41971  1.0000
  S   S121      1.0  0.69348  0.11489  0.47644  1.0000
  C   C350      1.0  0.86788  0.43197  0.41634  1.0000
  S   S122      1.0  0.54061  0.38733  0.42573  1.0000
  Fe  Fe59      1.0  0.91624  0.31807  0.42063  1.0000
  S   S123      1.0  0.95987  0.33606  0.39988  1.0000
  S   S124      1.0  0.88823  0.26957  0.41550  1.0000
  Fe  Fe60      1.0  0.92793  0.37754  0.43726  1.0000
  S   S125      1.0  0.91529  0.40641  0.46031  1.0000
  Fe  Fe61      1.0  0.95016  0.36856  0.38107  1.0000
  H   H341      1.0  0.74808  0.23705  0.40270  1.0000
  S   S126      1.0  0.90573  0.34924  0.39969  1.0000
  S   S127      1.0  0.93439  0.34461  0.46033  1.0000
  C   C351      1.0  0.90580  0.42668  0.43853  1.0000
  C   C352      1.0  0.92453  0.45630  0.43600  1.0000
  H   H342      1.0  0.72564  0.11865  0.56355  1.0000
  C   C353      1.0  0.87767  0.41448  0.42809  1.0000
  H   H343      1.0  0.93013  0.46131  0.50686  1.0000
  C   C354      1.0  0.75199  0.07348  0.50066  1.0000
  H   H344      1.0  0.86297  0.39172  0.43045  1.0000
  C   C355      1.0  0.81602  0.22256  0.35118  1.0000
  C   C356      1.0  0.58829  0.44082  0.41870  1.0000
  C   C357      1.0  0.55821  0.42499  0.42205  1.0000
  C   C358      1.0  0.54243  0.43929  0.42161  1.0000
  C   C359      1.0  0.49071  0.04422  0.44088  1.0000
  H   H345      1.0  0.60070  0.42994  0.41926  1.0000
  H   H346      1.0  0.51953  0.42767  0.42529  1.0000
  C   C360      1.0  0.80058  0.20925  0.45633  1.0000
  C   C361      1.0  0.81132  0.19959  0.43448  1.0000
  C   C362      1.0  0.83850  0.21821  0.42270  1.0000
  C   C363      1.0  0.85476  0.24687  0.43195  1.0000
  C   C364      1.0  0.84387  0.25665  0.45356  1.0000
  C   C365      1.0  0.81705  0.23776  0.46594  1.0000
  H   H347      1.0  0.79889  0.17768  0.42693  1.0000
  H   H348      1.0  0.84678  0.21046  0.40600  1.0000
  H   H349      1.0  0.85618  0.27865  0.46091  1.0000
  H   H350      1.0  0.80891  0.24535  0.48294  1.0000
  C   C366      1.0  0.66878  0.02438  0.50074  1.0000
  C   C367      1.0  0.65653  0.03744  0.51695  1.0000
  C   C368      1.0  0.64343  0.02566  0.54313  1.0000
  H   H351      1.0  0.58928  0.44460  0.34831  1.0000
  N   N27       1.0  0.78202  0.22917  0.39175  1.0000
  H   H352      1.0  0.95163  0.44395  0.38948  1.0000
  H   H353      1.0  0.65712  0.05663  0.50930  1.0000
  H   H354      1.0  0.63411  0.03606  0.55544  1.0000
  C   C369      1.0  0.58624  0.48470  0.41302  1.0000
  C   C370      1.0  0.76997  0.09841  0.48577  1.0000
  C   C371      1.0  0.55743  0.10994  0.40029  1.0000
  C   C372      1.0  0.58127  0.10852  0.38993  1.0000
  C   C373      1.0  0.60415  0.11366  0.40801  1.0000
  C   C374      1.0  0.60311  0.12017  0.43648  1.0000
  C   C375      1.0  0.58001  0.12308  0.44648  1.0000
  C   C376      1.0  0.55713  0.11791  0.42841  1.0000
  H   H355      1.0  0.58162  0.10257  0.36809  1.0000
  H   H356      1.0  0.62204  0.11156  0.40017  1.0000
  H   H357      1.0  0.57934  0.12841  0.46846  1.0000
  H   H358      1.0  0.53896  0.11934  0.43644  1.0000
  S   S128      1.0  0.97155  0.39940  0.41735  1.0000
  H   H359      1.0  0.69633  0.09988  0.53867  1.0000
  H   H360      1.0  0.81852  0.27059  0.39957  1.0000
  H   H361      1.0  0.78306  0.09783  0.46851  1.0000
  C   C377      1.0  0.94314  0.29165  0.50343  1.0000
  S   S129      1.0  0.71980  0.13216  0.34969  1.0000
  N   N28       1.0  0.54446  0.43142  0.34887  1.0000
  H   H362      1.0  0.70537  0.08010  0.56308  1.0000
  C   C378      1.0  0.51272  0.04199  0.42716  1.0000
  C   C379      1.0  0.82699  0.24799  0.36683  1.0000
  H   H363      1.0  0.89717  0.43780  0.35962  1.0000
  C   C380      1.0  0.88797  0.45256  0.49455  1.0000
  C   C381      1.0  0.80953  0.25101  0.38706  1.0000
  C   C382      1.0  0.87155  0.46408  0.48414  1.0000
  H   H364      1.0  0.93106  0.42042  0.36071  1.0000
  H   H365      1.0  0.77698  0.24985  0.42848  1.0000
  S   S130      1.0  0.87194  0.48315  0.40332  1.0000
  C   C383      1.0  0.91470  0.47382  0.42430  1.0000
  H   H366      1.0  0.75062  0.05327  0.49480  1.0000
  H   H367      1.0  0.87844  0.42952  0.49695  1.0000
  Fe  Fe62      1.0  0.97720  0.36515  0.43826  1.0000
  N   N29       1.0  0.94277  0.46451  0.35597  1.0000
  H   H368      1.0  0.74896  0.18727  0.37935  1.0000
  C   C384      1.0  0.64212  0.00053  0.55347  1.0000
  C   C385      1.0  0.88609  0.46174  0.41513  1.0000
  H   H369      1.0  0.90930  0.26853  0.47282  1.0000
  H   H370      1.0  0.51767  0.24456  0.38462  1.0000
  C   C386      1.0  0.95163  0.28452  0.45470  1.0000
  N   N30       1.0  0.73459  0.09931  0.52845  1.0000
  C   C387      1.0  0.78774  0.20067  0.35567  1.0000
  C   C388      1.0  0.73439  0.07433  0.52211  1.0000
  C   C389      1.0  0.54190  0.05857  0.46842  1.0000
  C   C390      1.0  0.57319  0.45120  0.34697  1.0000
  H   H371      1.0  0.84918  0.26495  0.36401  1.0000
  C   C391      1.0  0.71454  0.09950  0.54954  1.0000
  C   C392      1.0  0.52047  0.06145  0.48264  1.0000
  H   H372      1.0  0.71982  0.05459  0.53291  1.0000
  C   C393      1.0  0.66754  0.99927  0.51107  1.0000
  C   C394      1.0  0.77037  0.12388  0.49265  1.0000
  C   C395      1.0  0.75229  0.12392  0.51406  1.0000
  H   H373      1.0  0.84907  0.45011  0.47855  1.0000
  H   H374      1.0  0.58171  0.05910  0.43601  1.0000
  H   H375      1.0  0.51652  0.47562  0.34602  1.0000
  H   H376      1.0  0.75198  0.14362  0.51854  1.0000
  C   C396      1.0  0.55633  0.46893  0.41693  1.0000
  C   C397      1.0  0.60234  0.47068  0.41420  1.0000
  H   H377      1.0  0.78396  0.14333  0.48094  1.0000
  C   C398      1.0  0.90872  0.47991  0.34505  1.0000
  C   C399      1.0  0.49464  0.05400  0.46877  1.0000
  H   H378      1.0  0.50974  0.03511  0.40520  1.0000
  C   C400      1.0  0.93239  0.28015  0.47672  1.0000
  H   H379      1.0  0.54380  0.47968  0.41623  1.0000
  C   C401      1.0  0.91732  0.47075  0.50011  1.0000
  N   N31       1.0  0.53787  0.04906  0.44099  1.0000
  H   H380      1.0  0.56135  0.05048  0.40401  1.0000
  H   H381      1.0  0.92846  0.28900  0.52051  1.0000
  C   C402      1.0  0.76391  0.23244  0.41308  1.0000
  H   H382      1.0  0.94307  0.27618  0.43380  1.0000
  C   C403      1.0  0.77091  0.20443  0.37605  1.0000
  H   H383      1.0  0.49684  0.27568  0.37314  1.0000
  H   H384      1.0  0.52398  0.06970  0.50412  1.0000
  C   C404      1.0  0.94882  0.44234  0.36617  1.0000
  H   H385      1.0  0.84574  0.42252  0.40924  1.0000
  H   H386      1.0  0.75205  0.21248  0.42562  1.0000
  H   H387      1.0  0.62544  0.48270  0.41113  1.0000
  C   C405      1.0  0.55995  0.04493  0.42676  1.0000
  H   H388      1.0  0.56214  0.06483  0.47916  1.0000
  C   C406      1.0  0.91487  0.45873  0.35388  1.0000
  H   H389      1.0  0.94619  0.46587  0.44444  1.0000
  H   H390      1.0  0.55473  0.02229  0.42870  1.0000
  C   C407      1.0  0.49737  0.23580  0.37329  1.0000
  H   H391      1.0  0.96863  0.44436  0.35625  1.0000
  H   H392      1.0  0.49073  0.19300  0.37238  1.0000
  H   H393      1.0  0.50144  0.42412  0.34920  1.0000
  H   H394      1.0  0.55288  0.39731  0.35833  1.0000
  Fe  Fe63      1.0  0.49263  0.36289  0.41689  1.0000
  H   H395      1.0  0.51818  0.39116  0.36793  1.0000
  H   H396      1.0  0.49325  0.23751  0.44920  1.0000
  C   C408      1.0  0.52422  0.43988  0.34787  1.0000
  C   C409      1.0  0.53260  0.46895  0.34583  1.0000
  N   N32       1.0  0.98077  0.29950  0.45930  1.0000
  C   C410      1.0  0.97288  0.30713  0.50788  1.0000
  C   C411      1.0  0.53505  0.40088  0.35147  1.0000
  H   H397      1.0  0.98744  0.37311  0.50985  1.0000
  Fe  Fe64      1.0  0.48919  0.10088  0.39637  1.0000
  H   H398      1.0  0.98158  0.31682  0.52837  1.0000
  C   C412      1.0  0.56187  0.48931  0.34435  1.0000
  H   H399      1.0  0.88657  0.47542  0.34410  1.0000
  C   C413      1.0  0.58231  0.48041  0.34456  1.0000
  S   S131      1.0  0.65513  0.01079  0.96149  1.0000
  C   C414      1.0  0.65556  0.01968  0.99788  1.0000
  H   H400      1.0  0.68064  0.06520  0.99051  1.0000
  C   C415      1.0  0.58377  0.00358  0.99689  1.0000
  H   H401      1.0  0.62442  0.01718  0.72916  1.0000
  C   C416      1.0  0.67008  0.04874  0.00632  1.0000
  H   H402      1.0  0.72946  0.04408  0.00594  1.0000
  H   H403      1.0  0.59177  0.01758  0.97870  1.0000
  H   H404      1.0  0.63795  0.99868  0.75080  1.0000
  C   C417      1.0  0.62059  0.99587  0.73598  1.0000
  H   H405      1.0  0.60783  0.99697  0.79038  1.0000
  Fe  Fe65      1.0  0.67264  0.60835  0.10197  1.0000
  S   S132      1.0  0.69781  0.58771  0.08557  1.0000
  S   S133      1.0  0.64970  0.62856  0.07834  1.0000
  Fe  Fe66      1.0  0.66708  0.58259  0.16214  1.0000
  S   S134      1.0  0.69059  0.55960  0.14954  1.0000
  S   S135      1.0  0.64480  0.57554  0.20475  1.0000
  Fe  Fe67      1.0  0.72126  0.60057  0.12749  1.0000
  S   S136      1.0  0.76797  0.61674  0.13982  1.0000
  Fe  Fe68      1.0  0.66541  0.54869  0.10917  1.0000
  S   S137      1.0  0.64331  0.50507  0.08816  1.0000
  S   S138      1.0  0.69876  0.62455  0.14246  1.0000
  S   S139      1.0  0.63924  0.56824  0.12335  1.0000
  C   C418      1.0  0.74691  0.52607  0.06233  1.0000
  C   C419      1.0  0.67662  0.65032  0.02654  1.0000
  Fe  Fe69      1.0  0.89239  0.58457  0.10185  1.0000
  S   S140      1.0  0.93076  0.61711  0.12676  1.0000
  S   S141      1.0  0.85981  0.59234  0.07831  1.0000
  Fe  Fe70      1.0  0.90920  0.53826  0.11008  1.0000
  H   H406      1.0  0.78881  0.54145  0.12076  1.0000
  Fe  Fe71      1.0  0.92044  0.58129  0.15771  1.0000
  S   S142      1.0  0.90849  0.57806  0.20467  1.0000
  Fe  Fe72      1.0  0.95576  0.60019  0.10216  1.0000
  S   S143      1.0  0.88041  0.55015  0.13382  1.0000
  S   S144      1.0  0.91795  0.56994  0.07556  1.0000
  C   C420      1.0  0.94183  0.49399  0.11899  1.0000
  H   H407      1.0  0.84845  0.59652  0.29222  1.0000
  C   C421      1.0  0.69032  0.65075  0.21903  1.0000
  C   C422      1.0  0.95060  0.58318  0.29100  1.0000
  C   C423      1.0  0.92065  0.56997  0.28811  1.0000
  C   C424      1.0  0.90822  0.56762  0.26130  1.0000
  C   C425      1.0  0.92546  0.57848  0.23704  1.0000
  C   C426      1.0  0.95537  0.59083  0.23973  1.0000
  C   C427      1.0  0.77096  0.53245  0.07891  1.0000
  C   C428      1.0  0.55932  0.95557  0.01561  1.0000
  C   C429      1.0  0.56726  0.50692  0.11930  1.0000
  C   C430      1.0  0.79260  0.60892  0.12233  1.0000
  C   C431      1.0  0.81421  0.60785  0.13824  1.0000
  C   C432      1.0  0.83481  0.60258  0.12511  1.0000
  C   C433      1.0  0.83443  0.59910  0.09577  1.0000
  C   C434      1.0  0.81304  0.60055  0.07979  1.0000
  C   C435      1.0  0.79190  0.60494  0.09303  1.0000
  H   H408      1.0  0.81509  0.61122  0.16088  1.0000
  H   H409      1.0  0.85124  0.60168  0.13764  1.0000
  H   H410      1.0  0.81270  0.59807  0.05705  1.0000
  H   H411      1.0  0.77561  0.60612  0.08051  1.0000
  C   C436      1.0  0.66359  0.58057  0.23703  1.0000
  C   C437      1.0  0.69352  0.59237  0.23769  1.0000
  C   C438      1.0  0.70833  0.60008  0.26372  1.0000
  C   C439      1.0  0.69337  0.59563  0.28934  1.0000
  C   C440      1.0  0.66325  0.58216  0.28879  1.0000
  C   C441      1.0  0.64847  0.57493  0.26271  1.0000
  H   H412      1.0  0.70542  0.59672  0.21811  1.0000
  H   H413      1.0  0.73162  0.61042  0.26395  1.0000
  H   H414      1.0  0.65149  0.57865  0.30836  1.0000
  H   H415      1.0  0.62528  0.56567  0.26240  1.0000
  C   C442      1.0  0.95587  0.51580  0.19929  1.0000
  H   H416      1.0  0.92690  0.52398  0.33214  1.0000
  H   H417      1.0  0.63100  0.97622  0.01245  1.0000
  H   H418      1.0  0.55662  0.95304  0.06103  1.0000
  H   H419      1.0  0.93281  0.53886  0.19574  1.0000
  C   C443      1.0  0.65149  0.63990  0.04271  1.0000
  H   H420      1.0  0.70142  0.52204  0.11430  1.0000
  H   H421      1.0  0.91064  0.64350  0.03835  1.0000
  H   H422      1.0  0.63239  0.49679  0.14806  1.0000
  N   N33       1.0  0.92927  0.63454  0.31229  1.0000
  S   S145      1.0  0.94869  0.56720  0.13555  1.0000
  H   H423      1.0  0.67860  0.64400  0.19915  1.0000
  N   N34       1.0  0.95315  0.65156  0.03024  1.0000
  H   H424      1.0  0.96896  0.59943  0.22130  1.0000
  C   C444      1.0  0.93132  0.50719  0.33857  1.0000
  H   H425      1.0  0.62627  0.69698  0.03707  1.0000
  H   H426      1.0  0.91370  0.61175  0.03316  1.0000
  H   H427      1.0  0.58904  0.52325  0.15926  1.0000
  H   H428      1.0  0.88603  0.61388  0.25457  1.0000
  H   H429      1.0  0.88275  0.51749  0.18922  1.0000
  C   C445      1.0  0.62760  0.64064  0.03113  1.0000
  C   C446      1.0  0.72175  0.52228  0.07522  1.0000
  C   C447      1.0  0.92133  0.63109  0.28442  1.0000
  H   H430      1.0  0.73178  0.66449  0.20001  1.0000
  H   H431      1.0  0.96337  0.64087  0.34005  1.0000
  C   C448      1.0  0.71912  0.66516  0.27046  1.0000
  C   C449      1.0  0.76962  0.53534  0.10820  1.0000
  S   S146      1.0  0.96734  0.58859  0.32465  1.0000
  H   H432      1.0  0.75985  0.53166  0.16261  1.0000
  C   C450      1.0  0.90881  0.62540  0.33307  1.0000
  C   C451      1.0  0.89218  0.61735  0.27674  1.0000
  H   H433      1.0  0.74789  0.52445  0.03953  1.0000
  H   H434      1.0  0.67195  0.66861  0.30105  1.0000
  H   H435      1.0  0.95145  0.51700  0.11782  1.0000
  S   S147      1.0  0.71326  0.61156  0.32070  1.0000
  H   H436      1.0  0.97280  0.67049  0.06984  1.0000
  H   H437      1.0  0.97288  0.64583  0.30370  1.0000
  C   C452      1.0  0.72109  0.52501  0.10458  1.0000
  C   C453      1.0  0.62703  0.71080  0.02008  1.0000
  H   H438      1.0  0.92535  0.63138  0.06556  1.0000
  H   H439      1.0  0.97085  0.59884  0.03075  1.0000
  C   C454      1.0  0.96784  0.59316  0.26661  1.0000
  H   H440      1.0  0.58476  0.52290  0.10670  1.0000
  H   H441      1.0  0.69526  0.65018  0.03518  1.0000
  C   C455      1.0  0.97565  0.66995  0.04717  1.0000
  H   H442      1.0  0.70288  0.51754  0.06265  1.0000
  H   H443      1.0  0.68479  0.64544  0.31416  1.0000
  H   H444      1.0  0.65214  0.63694  0.24386  1.0000
  H   H445      1.0  0.93751  0.63819  0.26789  1.0000
  H   H446      1.0  0.79096  0.53622  0.06914  1.0000
  H   H447      1.0  0.97738  0.53446  0.33666  1.0000
  H   H448      1.0  0.73044  0.67001  0.29056  1.0000
  N   N35       1.0  0.74482  0.53145  0.12068  1.0000
  C   C456      1.0  0.87115  0.60744  0.29781  1.0000
  C   C457      1.0  0.67542  0.64669  0.24447  1.0000
  H   H449      1.0  0.90704  0.56208  0.30657  1.0000
  H   H450      1.0  0.88504  0.55792  0.25945  1.0000
  C   C458      1.0  0.73470  0.66950  0.24541  1.0000
  C   C459      1.0  0.72013  0.66211  0.21955  1.0000
  H   H451      1.0  0.72246  0.52144  0.16009  1.0000
  H   H452      1.0  0.97629  0.53485  0.20410  1.0000
  C   C460      1.0  0.87993  0.49652  0.18193  1.0000
  H   H453      1.0  0.60810  0.63275  0.04349  1.0000
  N   N36       1.0  0.68981  0.65356  0.26976  1.0000
  C   C461      1.0  0.67383  0.64938  0.29618  1.0000
  H   H454      1.0  0.75778  0.67771  0.24613  1.0000
  C   C462      1.0  0.74421  0.53590  0.15124  1.0000
  H   H455      1.0  0.74988  0.55847  0.15558  1.0000
  H   H456      1.0  0.65195  0.63018  0.29472  1.0000
  C   C463      1.0  0.93120  0.51794  0.19442  1.0000
  C   C464      1.0  0.92438  0.63377  0.04235  1.0000
  H   H457      1.0  0.98077  0.49577  0.13381  1.0000
  C   C465      1.0  0.95990  0.64937  0.31997  1.0000
  C   C466      1.0  0.87947  0.61157  0.32616  1.0000
  H   H458      1.0  0.96807  0.67272  0.32248  1.0000
  H   H459      1.0  0.87558  0.49450  0.15884  1.0000
  C   C467      1.0  0.56401  0.96712  0.04289  1.0000
  N   N37       1.0  0.90552  0.49406  0.18770  1.0000
  C   C468      1.0  0.56963  0.50701  0.14869  1.0000
  H   H460      1.0  0.63259  0.99009  0.06292  1.0000
  C   C469      1.0  0.60288  0.71324  0.01367  1.0000
  C   C470      1.0  0.95973  0.51305  0.34115  1.0000
  H   H461      1.0  0.54809  0.93247  0.01229  1.0000
  H   H462      1.0  0.58317  0.70145  0.02574  1.0000
  H   H463      1.0  0.86333  0.60407  0.34280  1.0000
  S   S148      1.0  0.89108  0.49085  0.10235  1.0000
  Fe  Fe73      1.0  0.58788  0.88475  0.63182  1.0000
  S   S149      1.0  0.63286  0.92332  0.63388  1.0000
  S   S150      1.0  0.57155  0.83795  0.61954  1.0000
  Fe  Fe74      1.0  0.56010  0.91838  0.65480  1.0000
  Fe  Fe75      1.0  0.59850  0.67451  0.65793  1.0000
  C   C471      1.0  0.73140  0.56871  0.49811  1.0000
  Fe  Fe76      1.0  0.61258  0.94814  0.61549  1.0000
  H   H464      1.0  0.56870  0.97549  0.61441  1.0000
  S   S151      1.0  0.56854  0.90899  0.61074  1.0000
  H   H465      1.0  0.91507  0.62863  0.35518  1.0000
  C   C472      1.0  0.50499  0.54229  0.60324  1.0000
  S   S152      1.0  0.57648  0.69588  0.63716  1.0000
  Fe  Fe77      1.0  0.62263  0.66679  0.60035  1.0000
  S   S153      1.0  0.60278  0.68854  0.57645  1.0000
  S   S154      1.0  0.64197  0.64182  0.57888  1.0000
  Fe  Fe78      1.0  0.61741  0.72018  0.61279  1.0000
  S   S155      1.0  0.63886  0.76867  0.60894  1.0000
  Fe  Fe79      1.0  0.56381  0.66236  0.60337  1.0000
  S   S156      1.0  0.51928  0.63772  0.58461  1.0000
  S   S157      1.0  0.64070  0.70059  0.63519  1.0000
  S   S158      1.0  0.58250  0.63888  0.62556  1.0000
  Fe  Fe80      1.0  0.71287  0.57083  0.41496  1.0000
  S   S159      1.0  0.72759  0.61605  0.40185  1.0000
  S   S160      1.0  0.74256  0.55457  0.43014  1.0000
  Fe  Fe81      1.0  0.64979  0.55201  0.40365  1.0000
  S   S161      1.0  0.66048  0.59584  0.38861  1.0000
  S   S162      1.0  0.60182  0.52120  0.40412  1.0000
  Fe  Fe82      1.0  0.69683  0.59546  0.36518  1.0000
  Fe  Fe83      1.0  0.68949  0.61185  0.42675  1.0000
  S   S163      1.0  0.69123  0.64817  0.45400  1.0000
  S   S164      1.0  0.68391  0.55032  0.37725  1.0000
  S   S165      1.0  0.67713  0.56809  0.44283  1.0000
  Fe  Fe84      1.0  0.90218  0.58800  0.40464  1.0000
  S   S166      1.0  0.95083  0.61307  0.40014  1.0000
  S   S167      1.0  0.87695  0.61176  0.40282  1.0000
  Fe  Fe85      1.0  0.90098  0.53109  0.40364  1.0000
  H   H466      1.0  0.51760  0.93211  0.54130  1.0000
  Fe  Fe86      1.0  0.95131  0.58263  0.43269  1.0000
  Fe  Fe87      1.0  0.94378  0.57977  0.36690  1.0000
  S   S168      1.0  0.90307  0.55996  0.43922  1.0000
  S   S169      1.0  0.89570  0.55694  0.36960  1.0000
  C   C473      1.0  0.72461  0.60843  0.51438  1.0000
  H   H467      1.0  0.92887  0.49673  0.42354  1.0000
  C   C474      1.0  0.72950  0.63644  0.51211  1.0000
  C   C475      1.0  0.77957  0.57021  0.42094  1.0000
  C   C476      1.0  0.79447  0.55560  0.42754  1.0000
  C   C477      1.0  0.82412  0.56777  0.42159  1.0000
  C   C478      1.0  0.83931  0.59498  0.40946  1.0000
  C   C479      1.0  0.82442  0.60962  0.40286  1.0000
  C   C480      1.0  0.79466  0.59723  0.40836  1.0000
  H   H468      1.0  0.78300  0.53471  0.43728  1.0000
  H   H469      1.0  0.83527  0.55626  0.42680  1.0000
  H   H470      1.0  0.83597  0.63068  0.39348  1.0000
  H   H471      1.0  0.78350  0.60872  0.40311  1.0000
  H   H472      1.0  0.71299  0.55446  0.48414  1.0000
  H   H473      1.0  0.56372  0.95164  0.56811  1.0000
  H   H474      1.0  0.67700  0.98899  0.49879  1.0000
  C   C481      1.0  0.65252  0.64303  0.54285  1.0000
  C   C482      1.0  0.65196  0.61874  0.53069  1.0000
  C   C483      1.0  0.66226  0.61945  0.50299  1.0000
  C   C484      1.0  0.67426  0.64486  0.48740  1.0000
  C   C485      1.0  0.67465  0.66908  0.49948  1.0000
  C   C486      1.0  0.66354  0.66811  0.52685  1.0000
  H   H475      1.0  0.64357  0.59923  0.54283  1.0000
  H   H476      1.0  0.66167  0.60059  0.49403  1.0000
  H   H477      1.0  0.68391  0.68887  0.48771  1.0000
  H   H478      1.0  0.66445  0.68707  0.53592  1.0000
  H   H479      1.0  0.71912  0.64430  0.52652  1.0000
  H   H480      1.0  0.65399  0.75816  0.66753  1.0000
  H   H481      1.0  0.65219  0.80332  0.67588  1.0000
  H   H482      1.0  0.92405  0.53401  0.48162  1.0000
  H   H483      1.0  0.52334  0.62465  0.64287  1.0000
  C   C487      1.0  0.59122  0.81952  0.61972  1.0000
  C   C488      1.0  0.62114  0.83376  0.61624  1.0000
  C   C489      1.0  0.63548  0.81789  0.61317  1.0000
  C   C490      1.0  0.62013  0.78775  0.61399  1.0000
  C   C491      1.0  0.59033  0.77357  0.61836  1.0000
  C   C492      1.0  0.57594  0.78940  0.62093  1.0000
  H   H484      1.0  0.63310  0.85694  0.61498  1.0000
  H   H485      1.0  0.65856  0.82904  0.60982  1.0000
  H   H486      1.0  0.57825  0.75041  0.61908  1.0000
  H   H487      1.0  0.55276  0.77823  0.62352  1.0000
  H   H488      1.0  0.55320  0.69764  0.56013  1.0000
  C   C493      1.0  0.52587  0.97025  0.61292  1.0000
  S   S170      1.0  0.98098  0.58518  0.46923  1.0000
  S   S171      1.0  0.94866  0.55167  0.39866  1.0000
  H   H489      1.0  0.51812  0.56004  0.61740  1.0000
  H   H490      1.0  0.65349  0.96806  0.54482  1.0000
  C   C494      1.0  0.50406  0.60697  0.63381  1.0000
  H   H491      1.0  0.74922  0.67496  0.48730  1.0000
  H   H492      1.0  0.75041  0.56698  0.49130  1.0000
  C   C495      1.0  0.65422  0.98734  0.53721  1.0000
  H   H493      1.0  0.53917  0.59053  0.57915  1.0000
  C   C496      1.0  0.75408  0.61522  0.47429  1.0000
  H   H494      1.0  0.72623  0.56079  0.52014  1.0000
  H   H495      1.0  0.76352  0.60704  0.45916  1.0000
  H   H496      1.0  0.77153  0.65612  0.45341  1.0000
  H   H497      1.0  0.57133  0.80920  0.52758  1.0000
  C   C497      1.0  0.74660  0.65377  0.49017  1.0000
  C   C498      1.0  0.55745  0.71954  0.55805  1.0000
  C   C499      1.0  0.52018  0.94310  0.56133  1.0000
  N   N38       1.0  0.50623  0.54628  0.57463  1.0000
  C   C500      1.0  0.88450  0.49356  0.47970  1.0000
  S   S172      1.0  0.57534  0.89105  0.67562  1.0000
  N   N39       1.0  0.73726  0.59833  0.49587  1.0000
  H   H498      1.0  0.71030  0.59474  0.53079  1.0000
  H   H499      1.0  0.52815  0.98043  0.63336  1.0000
  H   H500      1.0  0.54044  0.57321  0.54704  1.0000
  C   C501      1.0  0.49770  0.94644  0.57236  1.0000
  C   C502      1.0  0.52564  0.57461  0.56267  1.0000
  H   H501      1.0  0.49272  0.58208  0.67193  1.0000
  H   H502      1.0  0.55884  0.80900  0.56323  1.0000
  H   H503      1.0  0.61168  0.78678  0.54404  1.0000
  S   S173      1.0  0.60268  0.95852  0.65886  1.0000
  H   H504      1.0  0.51386  0.70859  0.56782  1.0000
  C   C503      1.0  0.75894  0.64313  0.47106  1.0000
  H   H505      1.0  0.87207  0.50254  0.47075  1.0000
  H   H506      1.0  0.59594  0.82087  0.55735  1.0000
  H   H507      1.0  0.51292  0.58317  0.55222  1.0000
  N   N40       1.0  0.56823  0.77560  0.55329  1.0000
  C   C504      1.0  0.59003  0.76969  0.54880  1.0000
  C   C505      1.0  0.54105  0.75402  0.55972  1.0000
  C   C506      1.0  0.58502  0.74165  0.55122  1.0000
  C   C507      1.0  0.53530  0.72571  0.56236  1.0000
  C   C508      1.0  0.49127  0.90901  0.65228  1.0000
  S   S174      1.0  0.62554  0.98719  0.58695  1.0000
  H   H508      1.0  0.60260  0.73729  0.54825  1.0000
  H   H509      1.0  0.52374  0.75869  0.56321  1.0000
  C   C509      1.0  0.91388  0.51115  0.48564  1.0000
  S   S175      1.0  0.52324  0.92289  0.67219  1.0000
  H   H510      1.0  0.50611  0.89355  0.61762  1.0000
  C   C510      1.0  0.96511  0.49135  0.35008  1.0000
  C   C511      1.0  0.96090  0.51849  0.50013  1.0000
  C   C512      1.0  0.54596  0.95387  0.57641  1.0000
  C   C513      1.0  0.54882  0.96740  0.60243  1.0000
  H   H511      1.0  0.97057  0.50788  0.51244  1.0000
  H   H512      1.0  0.96511  0.53826  0.51183  1.0000
  C   C514      1.0  0.57381  0.80506  0.55005  1.0000
  C   C515      1.0  0.49645  0.60825  0.60584  1.0000
  Fe  Fe88      1.0  0.61867  0.93066  0.67685  1.0000
  H   H513      1.0  0.48988  0.52717  0.53423  1.0000
  H   H514      1.0  0.98725  0.49614  0.35239  1.0000
  H   H515      1.0  0.97197  0.52511  0.47934  1.0000
  N   N41       1.0  0.92986  0.49967  0.49571  1.0000
  N   N42       1.0  0.50075  0.95986  0.59787  1.0000
  C   C516      1.0  0.48906  0.52398  0.55690  1.0000
  C   C517      1.0  0.48871  0.89628  0.62574  1.0000
  H   H516      1.0  0.60513  0.49622  0.34448  1.0000
  H   H517      1.0  0.56885  0.51204  0.34401  1.0000
  S   S176      1.0  0.64547  0.94432  0.71733  1.0000
  Fe  Fe89      1.0  0.59917  0.93713  0.88258  1.0000
  S   S177      1.0  0.57365  0.89411  0.90319  1.0000
  S   S178      1.0  0.58643  0.93579  0.83631  1.0000
  Fe  Fe90      1.0  0.62712  0.96688  0.94010  1.0000
  S   S179      1.0  0.60413  0.92531  0.96363  1.0000
  Fe  Fe91      1.0  0.61458  0.90552  0.92628  1.0000
  S   S180      1.0  0.63546  0.87743  0.92446  1.0000
  Fe  Fe92      1.0  0.56558  0.91796  0.93783  1.0000
  S   S181      1.0  0.52261  0.90498  0.95819  1.0000
  S   S182      1.0  0.64079  0.94800  0.90425  1.0000
  S   S183      1.0  0.58803  0.96021  0.91588  1.0000
  Fe  Fe93      1.0  0.62608  0.68383  0.92610  1.0000
  S   S184      1.0  0.58006  0.67160  0.93506  1.0000
  S   S185      1.0  0.65860  0.68124  0.95556  1.0000
  Fe  Fe94      1.0  0.62223  0.70045  0.86407  1.0000
  S   S186      1.0  0.57634  0.68986  0.86902  1.0000
  S   S187      1.0  0.64697  0.71501  0.82262  1.0000
  Fe  Fe95      1.0  0.59049  0.71214  0.91133  1.0000
  S   S188      1.0  0.57328  0.74075  0.92764  1.0000
  Fe  Fe96      1.0  0.57029  0.65081  0.89189  1.0000
  S   S189      1.0  0.53729  0.60653  0.87638  1.0000
  S   S190      1.0  0.63716  0.72569  0.90491  1.0000
  S   S191      1.0  0.61561  0.66018  0.88460  1.0000
  S   S192      1.0  0.58556  0.66472  0.70426  1.0000
  C   C518      1.0  0.62969  0.70364  0.78929  1.0000
  C   C519      1.0  0.59966  0.68823  0.78691  1.0000
  C   C520      1.0  0.58659  0.67775  0.76039  1.0000
  C   C521      1.0  0.60332  0.68233  0.73599  1.0000
  C   C522      1.0  0.63338  0.69833  0.73818  1.0000
  C   C523      1.0  0.64647  0.70906  0.76473  1.0000
  H   H518      1.0  0.58647  0.68397  0.80557  1.0000
  H   H519      1.0  0.56333  0.66534  0.75893  1.0000
  H   H520      1.0  0.64657  0.70154  0.71970  1.0000
  H   H521      1.0  0.66975  0.72093  0.76640  1.0000
  C   C524      1.0  0.65435  0.66322  0.98822  1.0000
  C   C525      1.0  0.54138  0.94599  0.74555  1.0000
  C   C526      1.0  0.60857  0.84235  0.85774  1.0000
  C   C527      1.0  0.60413  0.73071  0.99143  1.0000
  H   H522      1.0  0.57337  0.60862  0.73082  1.0000
  H   H523      1.0  0.63806  0.89631  0.82549  1.0000
  N   N43       1.0  0.60681  0.63071  0.79423  1.0000
  H   H524      1.0  0.93928  0.63564  0.98840  1.0000
  H   H525      1.0  0.57377  0.87697  0.83799  1.0000
  C   C528      1.0  0.61770  0.83943  0.92583  1.0000
  C   C529      1.0  0.63337  0.82552  0.91909  1.0000
  C   C530      1.0  0.61998  0.79534  0.91896  1.0000
  C   C531      1.0  0.59089  0.77875  0.92629  1.0000
  C   C532      1.0  0.57526  0.79265  0.93315  1.0000
  C   C533      1.0  0.58849  0.82283  0.93265  1.0000
  H   H526      1.0  0.65596  0.83819  0.91368  1.0000
  H   H527      1.0  0.63222  0.78498  0.91334  1.0000
  H   H528      1.0  0.55274  0.78001  0.93885  1.0000
  H   H529      1.0  0.57616  0.83323  0.93782  1.0000
  C   C534      1.0  0.50632  0.92220  0.91027  1.0000
  H   H530      1.0  0.67869  0.77321  0.95029  1.0000
  H   H531      1.0  0.52613  0.92535  0.90093  1.0000
  C   C535      1.0  0.62908  0.93849  0.75112  1.0000
  C   C536      1.0  0.59913  0.92286  0.75424  1.0000
  C   C537      1.0  0.64047  0.75019  0.68688  1.0000
  C   C538      1.0  0.60372  0.93443  0.80477  1.0000
  C   C539      1.0  0.63374  0.94915  0.80196  1.0000
  C   C540      1.0  0.64634  0.95110  0.77522  1.0000
  H   H532      1.0  0.64723  0.96006  0.82006  1.0000
  H   H533      1.0  0.66955  0.96322  0.77302  1.0000
  H   H534      1.0  0.55089  0.73994  0.70432  1.0000
  C   C541      1.0  0.59245  0.74365  0.69670  1.0000
  H   H535      1.0  0.58481  0.72128  0.70163  1.0000
  C   C542      1.0  0.58657  0.92082  0.78091  1.0000
  H   H536      1.0  0.69799  0.67100  0.98776  1.0000
  C   C543      1.0  0.50172  0.51527  0.90521  1.0000
  H   H537      1.0  0.56333  0.90936  0.78284  1.0000
  N   N44       1.0  0.60431  0.86447  0.85020  1.0000
  H   H538      1.0  0.58556  0.91291  0.73597  1.0000
  H   H539      1.0  0.53044  0.59366  0.76138  1.0000
  H   H540      1.0  0.57085  0.95901  0.71076  1.0000
  H   H541      1.0  0.51260  0.61915  0.92571  1.0000
  C   C544      1.0  0.56916  0.97387  0.99247  1.0000
  C   C545      1.0  0.60339  0.62536  0.76576  1.0000
  C   C546      1.0  0.49677  0.59866  0.91686  1.0000
  H   H542      1.0  0.56807  0.79119  0.69289  1.0000
  C   C547      1.0  0.58515  0.81460  0.86093  1.0000
  C   C548      1.0  0.62882  0.65176  0.00388  1.0000
  H   H543      1.0  0.53891  0.78833  0.85956  1.0000
  N   N45       1.0  0.65319  0.74301  0.98229  1.0000
  C   C549      1.0  0.57713  0.85953  0.84448  1.0000
  H   H544      1.0  0.52299  0.93120  0.73279  1.0000
  C   C550      1.0  0.63583  0.64471  0.80656  1.0000
  H   H545      1.0  0.58856  0.79727  0.86773  1.0000
  H   H546      1.0  0.62203  0.63243  0.75214  1.0000
  C   C551      1.0  0.50298  0.58841  0.89210  1.0000
  H   H547      1.0  0.53160  0.82857  0.84424  1.0000
  C   C552      1.0  0.57318  0.75410  0.69840  1.0000
  C   C553      1.0  0.62914  0.89340  0.84720  1.0000
  H   H548      1.0  0.63672  0.65605  0.82661  1.0000
  H   H549      1.0  0.58580  0.62612  0.83387  1.0000
  H   H550      1.0  0.65459  0.75706  0.70587  1.0000
  C   C554      1.0  0.55180  0.60354  0.77072  1.0000
  C   C555      1.0  0.58325  0.62214  0.81128  1.0000
  C   C556      1.0  0.55544  0.60865  0.79980  1.0000
  C   C557      1.0  0.57588  0.61175  0.75357  1.0000
  H   H551      1.0  0.65167  0.66145  0.79219  1.0000
  H   H552      1.0  0.49331  0.93576  0.87308  1.0000
  H   H553      1.0  0.98761  0.60452  0.98093  1.0000
  C   C558      1.0  0.95708  0.65032  0.00178  1.0000
  H   H554      1.0  0.62292  0.90997  0.85129  1.0000
  C   C559      1.0  0.55727  0.80960  0.85633  1.0000
  C   C560      1.0  0.55317  0.83214  0.84784  1.0000
  H   H555      1.0  0.62882  0.72639  0.68571  1.0000
  H   H556      1.0  0.53695  0.60257  0.81344  1.0000
  H   H557      1.0  0.63014  0.84627  0.86222  1.0000
  C   C561      1.0  0.58283  0.78283  0.69219  1.0000
  H   H558      1.0  0.64253  0.62860  0.81081  1.0000
  H   H559      1.0  0.56022  0.96970  0.81319  1.0000
  H   H560      1.0  0.51279  0.58015  0.99535  1.0000
  H   H561      1.0  0.62242  0.98415  0.71733  1.0000
  C   C562      1.0  0.49915  0.91200  0.93790  1.0000
  N   N46       1.0  0.50486  0.53310  0.93005  1.0000
  N   N47       1.0  0.59215  0.97967  0.74923  1.0000
  C   C563      1.0  0.53327  0.57571  0.95786  1.0000
  C   C564      1.0  0.62961  0.74557  0.97590  1.0000
  C   C565      1.0  0.67811  0.66220  0.99964  1.0000
  C   C566      1.0  0.67981  0.75838  0.96582  1.0000
  H   H562      1.0  0.64621  0.89733  0.86292  1.0000
  C   C567      1.0  0.53825  0.94897  0.77446  1.0000
  H   H563      1.0  0.55287  0.59623  0.96062  1.0000
  C   C568      1.0  0.52992  0.55851  0.93422  1.0000
  N   N48       1.0  0.62039  0.76123  0.68849  1.0000
  H   H564      1.0  0.58541  0.73259  0.98599  1.0000
  H   H565      1.0  0.51744  0.93629  0.78450  1.0000
  C   C569      1.0  0.56220  0.96785  0.79052  1.0000
  H   H566      1.0  0.51494  0.52863  0.88728  1.0000
  C   C570      1.0  0.56861  0.96176  0.73317  1.0000
  H   H567      1.0  0.61035  0.65232  0.99541  1.0000
  H   H568      1.0  0.54715  0.56612  0.91876  1.0000
  C   C571      1.0  0.58915  0.98317  0.77749  1.0000
  C   C572      1.0  0.51082  0.56668  0.97734  1.0000
  H   H569      1.0  0.56548  0.96500  0.97123  1.0000
  C   C573      1.0  0.65207  0.72575  0.00392  1.0000
  H   H570      1.0  0.68378  0.74273  0.95393  1.0000
  H   H571      1.0  0.69843  0.77120  0.98006  1.0000
  H   H572      1.0  0.50835  0.49931  0.91056  1.0000
  H   H573      1.0  0.63018  0.75891  0.95856  1.0000
  C   C574      1.0  0.98424  0.66743  0.98963  1.0000
  C   C575      1.0  0.61154  0.80074  0.68455  1.0000
  C   C576      1.0  0.63012  0.78949  0.68271  1.0000
  H   H574      1.0  0.98767  0.66562  0.96725  1.0000
  H   H575      1.0  0.61913  0.82300  0.67922  1.0000
  H   H576      1.0  0.67045  0.72296  0.00838  1.0000
