data_image0
_chemical_formula_structural       SHCFeS2FeS2FeHFeS3C2HSHCSC8H5CHC2H3CHCH4C2HCH2CNCHC2NH3C3SC4HC3H3CH2FeS2FeSHFeSFeS3CHSC3FeCHC7H4C2NHCHC2HC2HNH5C3HCNSHC2HCHNC2HCH2SHCSH2SCH4CH2C2HCH2CHC2H3CHCSFeS2FeS2FeSFeS3CFeC5HC2H3C2H3SC6H6CHCNC4HC2H5CH4CNHC3H4CHCHC2HNH4SC2HC2HCHFeS2FeS2FeSFeS3HSCHC7H4C2H3CHC2HCHC3H2CH3CH2SNHC2H3NHC3HSC4H2C2H2C3FeHC2H4CHFeHSHFeS2HFeS2H2CHSHC2SHC3HC6H4SCHCHC3H2NFeC2HFeCHCNHCHCSCH2FeH6CH2FeSHSFeS2HCS2CFeCHCHC6H4CHCSCHNC2HCHCH2CHNSC2H2C2H2FeCFeCFeSH3FeS2C2SHSFeSHSC6H9FeHCNC7FeCSH2SCNC3H2C3HNH3CHC2Fe2SHCSHFeS3HCS2HNH2C6H4CHC2HSCH2FeCH3SFeH2NCH3C2SCHCSFeS2FeSCFeSFeS3HC2HC2H5C3H2C6H5C2H5CH2C2NCHC2FeH5NC4NH2CSHNCHC2HCHCH2C2SH3CFeHCHCNCHSCHFeS2FeS2FeSFeS3HSHCHC3H3CHC6H4C2HC3HFeHC3NC3HC2HSNSHCHCHCH3SH4CHC2HCH3C2H3FeC2HCS2FeS2FeS2FeSFeS3H2NCHCHC2HC4H2CSHC6H5SH2C3Fe2HCH2CH3CH2CNC2HCH3CHC2H5CH2CHSFeS2FeS2FeSFeS4C2SC6H5C4H5C3H4C2H5CFeHC2HC5H2CN2CSHCHNCHC2HCH2CFeC3
_chemical_formula_sum              "S128 H384 C384 Fe64 N32"
_cell_length_a       37.9164
_cell_length_b       36.0048
_cell_length_c       37.1009
_cell_angle_alpha    90.1455
_cell_angle_beta     92.1967
_cell_angle_gamma    92.1989

_space_group_name_H-M_alt    "P 1"
_space_group_IT_number       1

loop_
  _space_group_symop_operation_xyz
  'x, y, z'

loop_
  _atom_site_type_symbol
  _atom_site_label
  _atom_site_symmetry_multiplicity
  _atom_site_fract_x
  _atom_site_fract_y
  _atom_site_fract_z
  _atom_site_occupancy
  S   S1        1.0  0.31937  0.35696  0.33577  1.0000
  H   H1        1.0  0.25632  0.12053  0.04941  1.0000
  C   C1        1.0  0.23452  0.27610  0.13639  1.0000
  Fe  Fe1       1.0  0.17416  0.18944  0.16897  1.0000
  S   S2        1.0  0.15056  0.20683  0.11577  1.0000
  S   S3        1.0  0.18370  0.23716  0.20817  1.0000
  Fe  Fe2       1.0  0.16488  0.10725  0.15109  1.0000
  S   S4        1.0  0.13981  0.11888  0.09619  1.0000
  S   S5        1.0  0.16901  0.04588  0.16558  1.0000
  Fe  Fe3       1.0  0.18321  0.16281  0.09147  1.0000
  H   H2        1.0  0.19147  0.07424  0.23729  1.0000
  Fe  Fe4       1.0  0.10950  0.16207  0.12455  1.0000
  S   S6        1.0  0.05039  0.16925  0.11663  1.0000
  S   S7        1.0  0.21054  0.14895  0.14456  1.0000
  S   S8        1.0  0.13099  0.14691  0.17954  1.0000
  C   C2        1.0  0.03169  0.21330  0.11895  1.0000
  C   C3        1.0  0.05228  0.24627  0.11715  1.0000
  H   H3        1.0  0.08047  0.24514  0.11423  1.0000
  S   S9        1.0  0.20796  0.18195  0.03903  1.0000
  H   H4        1.0  0.09084  0.29055  0.20580  1.0000
  C   C4        1.0  0.28224  0.22432  0.33856  1.0000
  S   S10       1.0  0.33819  0.26493  0.27491  1.0000
  C   C5        1.0  0.24417  0.24841  0.11259  1.0000
  C   C6        1.0  0.29269  0.33644  0.50291  1.0000
  C   C7        1.0  0.22644  0.24423  0.22734  1.0000
  C   C8        1.0  0.23468  0.27656  0.24763  1.0000
  C   C9        1.0  0.26910  0.28360  0.26202  1.0000
  C   C10       1.0  0.29517  0.25802  0.25649  1.0000
  C   C11       1.0  0.28682  0.22557  0.23649  1.0000
  C   C12       1.0  0.25254  0.21871  0.22182  1.0000
  H   H5        1.0  0.21452  0.29643  0.25184  1.0000
  H   H6        1.0  0.27540  0.30866  0.27748  1.0000
  H   H7        1.0  0.30696  0.20566  0.23228  1.0000
  H   H8        1.0  0.24633  0.19371  0.20630  1.0000
  H   H9        1.0  0.05240  0.30624  0.11744  1.0000
  C   C13       1.0  0.29616  0.34754  0.46682  1.0000
  H   H10       1.0  0.19795  0.04174  0.29617  1.0000
  C   C14       1.0  0.23839  0.37472  0.46892  1.0000
  C   C15       1.0  0.26884  0.36691  0.44993  1.0000
  H   H11       1.0  0.22998  0.23697  0.31811  1.0000
  H   H12       1.0  0.21734  0.38950  0.45552  1.0000
  H   H13       1.0  0.27108  0.37567  0.42222  1.0000
  C   C16       1.0  0.25019  0.24229  0.33921  1.0000
  H   H14       1.0  0.26753  0.29447  0.41472  1.0000
  C   C17       1.0  0.16706  0.02680  0.20957  1.0000
  H   H15       1.0  0.28661  0.20525  0.31662  1.0000
  H   H16       1.0  0.27080  0.18133  0.09300  1.0000
  H   H17       1.0  0.22032  0.28231  0.36731  1.0000
  H   H18       1.0  0.32349  0.26208  0.41249  1.0000
  C   C18       1.0  0.24483  0.26776  0.36668  1.0000
  C   C19       1.0  0.18181  0.04575  0.23984  1.0000
  H   H19       1.0  0.25249  0.31279  0.17984  1.0000
  C   C20       1.0  0.28703  0.20709  0.08819  1.0000
  H   H20       1.0  0.31362  0.29017  0.18152  1.0000
  H   H21       1.0  0.22444  0.23652  0.09351  1.0000
  C   C21       1.0  0.30299  0.25615  0.39182  1.0000
  N   N1        1.0  0.30814  0.23140  0.36462  1.0000
  C   C22       1.0  0.26145  0.13378  0.02391  1.0000
  H   H22       1.0  0.20744  0.28486  0.13636  1.0000
  C   C23       1.0  0.25978  0.29167  0.16086  1.0000
  C   C24       1.0  0.01638  0.21478  0.20979  1.0000
  N   N2        1.0  0.27794  0.23627  0.11345  1.0000
  H   H23       1.0  0.28145  0.21612  0.05995  1.0000
  H   H24       1.0  0.01941  0.23769  0.03795  1.0000
  H   H25       1.0  0.10563  0.22407  0.20412  1.0000
  C   C25       1.0  0.07003  0.26913  0.20730  1.0000
  C   C26       1.0  0.03629  0.28085  0.11889  1.0000
  C   C27       1.0  0.27131  0.27467  0.39324  1.0000
  S   S11       1.0  0.33448  0.33521  0.44390  1.0000
  C   C28       1.0  0.29410  0.27899  0.16176  1.0000
  C   C29       1.0  0.18569  0.02716  0.27313  1.0000
  C   C30       1.0  0.03466  0.27860  0.20923  1.0000
  C   C31       1.0  0.07837  0.23176  0.20637  1.0000
  H   H26       1.0  0.31532  0.20022  0.09074  1.0000
  C   C32       1.0  0.30276  0.25096  0.13781  1.0000
  C   C33       1.0  0.23487  0.36342  0.50497  1.0000
  C   C34       1.0  0.05143  0.20435  0.20761  1.0000
  H   H27       1.0  0.32939  0.24096  0.13905  1.0000
  H   H28       1.0  0.05757  0.17520  0.20578  1.0000
  H   H29       1.0  0.02827  0.30773  0.20904  1.0000
  C   C35       1.0  0.34148  0.21224  0.36290  1.0000
  H   H30       1.0  0.33642  0.18167  0.36351  1.0000
  H   H31       1.0  0.31358  0.32137  0.51625  1.0000
  Fe  Fe5       1.0  0.12110  0.34772  0.63645  1.0000
  S   S12       1.0  0.15673  0.34844  0.68645  1.0000
  S   S13       1.0  0.06213  0.33963  0.64511  1.0000
  Fe  Fe6       1.0  0.18350  0.36211  0.58652  1.0000
  S   S14       1.0  0.22325  0.36320  0.63302  1.0000
  H   H32       1.0  0.14742  0.26983  0.70752  1.0000
  Fe  Fe7       1.0  0.19170  0.31392  0.65346  1.0000
  S   S15       1.0  0.21065  0.25787  0.67150  1.0000
  Fe  Fe8       1.0  0.18460  0.39799  0.66209  1.0000
  S   S16       1.0  0.20706  0.44962  0.69262  1.0000
  S   S17       1.0  0.15435  0.31029  0.60486  1.0000
  S   S18       1.0  0.14663  0.40004  0.61416  1.0000
  C   C36       1.0  0.25244  0.44344  0.56371  1.0000
  H   H33       1.0  0.27639  0.45835  0.57542  1.0000
  S   S19       1.0  0.30733  0.14024  0.83903  1.0000
  C   C37       1.0  0.09214  0.27585  0.71673  1.0000
  C   C38       1.0  0.29611  0.13870  0.96946  1.0000
  C   C39       1.0  0.27545  0.16795  0.95766  1.0000
  Fe  Fe9       1.0  0.33964  0.19008  0.82125  1.0000
  C   C40       1.0  0.02749  0.24079  0.59950  1.0000
  H   H34       1.0  0.28070  0.18142  0.93228  1.0000
  C   C41       1.0  0.32424  0.01968  0.93134  1.0000
  C   C42       1.0  0.24151  0.25519  0.70806  1.0000
  C   C43       1.0  0.25442  0.28708  0.72652  1.0000
  C   C44       1.0  0.27889  0.28397  0.75572  1.0000
  C   C45       1.0  0.29048  0.24901  0.76661  1.0000
  C   C46       1.0  0.27759  0.21713  0.74815  1.0000
  C   C47       1.0  0.25313  0.22025  0.71895  1.0000
  H   H35       1.0  0.24557  0.31410  0.71831  1.0000
  H   H36       1.0  0.28872  0.30871  0.76999  1.0000
  H   H37       1.0  0.28642  0.19011  0.75635  1.0000
  H   H38       1.0  0.24323  0.19551  0.70472  1.0000
  C   C48       1.0  0.18300  0.48304  0.71589  1.0000
  C   C49       1.0  0.14675  0.47832  0.72089  1.0000
  N   N3        1.0  0.16195  0.50800  0.84456  1.0000
  H   H39       1.0  0.13250  0.45389  0.71007  1.0000
  C   C50       1.0  0.29469  0.04181  0.93077  1.0000
  H   H40       1.0  0.30398  0.03694  0.67724  1.0000
  C   C51       1.0  0.12075  0.25862  0.70228  1.0000
  C   C52       1.0  0.26232  0.34440  0.52194  1.0000
  H   H41       1.0  0.25563  0.44081  0.53414  1.0000
  C   C53       1.0  0.03601  0.29980  0.63141  1.0000
  C   C54       1.0  0.04879  0.27257  0.60887  1.0000
  H   H42       1.0  0.23474  0.07538  0.92282  1.0000
  N   N4        1.0  0.28015  0.05388  0.89877  1.0000
  H   H43       1.0  0.07500  0.27610  0.59858  1.0000
  H   H44       1.0  0.19331  0.48302  0.80521  1.0000
  H   H45       1.0  0.08599  0.15529  0.66414  1.0000
  H   H46       1.0  0.04722  0.17462  0.64286  1.0000
  H   H47       1.0  0.09632  0.30121  0.73243  1.0000
  C   C55       1.0  0.07570  0.18014  0.65024  1.0000
  C   C56       1.0  0.24829  0.18034  0.97911  1.0000
  C   C57       1.0  0.12980  0.48584  0.83449  1.0000
  H   H48       1.0  0.23360  0.07615  0.87436  1.0000
  C   C58       1.0  0.18637  0.49536  0.61436  1.0000
  N   N5        1.0  0.22043  0.46296  0.57184  1.0000
  S   S20       1.0  0.32354  0.05653  0.77717  1.0000
  H   H49       1.0  0.03556  0.27436  0.72069  1.0000
  C   C59       1.0  0.16186  0.48145  0.55474  1.0000
  C   C60       1.0  0.05808  0.26071  0.71025  1.0000
  H   H50       1.0  0.03756  0.22000  0.58192  1.0000
  C   C61       1.0  0.19325  0.46458  0.54659  1.0000
  H   H51       1.0  0.23283  0.20340  0.96995  1.0000
  N   N6        1.0  0.08122  0.21294  0.67357  1.0000
  C   C62       1.0  0.05309  0.22875  0.68886  1.0000
  C   C63       1.0  0.11479  0.22725  0.68032  1.0000
  H   H52       1.0  0.26223  0.10875  0.89981  1.0000
  C   C64       1.0  0.25116  0.07970  0.89889  1.0000
  H   H53       1.0  0.02642  0.21754  0.68352  1.0000
  H   H54       1.0  0.26005  0.33546  0.54961  1.0000
  S   S21       1.0  0.33101  0.12227  0.94380  1.0000
  H   H55       1.0  0.13728  0.21477  0.66841  1.0000
  C   C65       1.0  0.29424  0.04420  0.86682  1.0000
  S   S22       1.0  0.32135  0.24627  0.80315  1.0000
  H   H56       1.0  0.08951  0.18457  0.62461  1.0000
  H   H57       1.0  0.13303  0.46903  0.80974  1.0000
  S   S23       1.0  0.19598  0.37422  0.52764  1.0000
  C   C66       1.0  0.28891  0.12166  0.00264  1.0000
  H   H58       1.0  0.28332  0.05445  0.84145  1.0000
  H   H59       1.0  0.28460  0.05093  0.95615  1.0000
  H   H60       1.0  0.14008  0.48170  0.53494  1.0000
  H   H61       1.0  0.25078  0.41488  0.57497  1.0000
  C   C67       1.0  0.19260  0.50296  0.82715  1.0000
  H   H62       1.0  0.19538  0.45199  0.52020  1.0000
  H   H63       1.0  0.23818  0.47542  0.62599  1.0000
  C   C68       1.0  0.21718  0.47777  0.60549  1.0000
  C   C69       1.0  0.15849  0.49696  0.58887  1.0000
  H   H64       1.0  0.12268  0.46683  0.85678  1.0000
  C   C70       1.0  0.31505  0.01674  0.65949  1.0000
  H   H65       1.0  0.10762  0.50452  0.82849  1.0000
  H   H66       1.0  0.30483  0.09911  0.01210  1.0000
  C   C71       1.0  0.12891  0.50505  0.74036  1.0000
  H   H67       1.0  0.10092  0.50085  0.74443  1.0000
  C   C72       1.0  0.32350  0.02169  0.86638  1.0000
  C   C73       1.0  0.24111  0.16342  0.01233  1.0000
  H   H68       1.0  0.18378  0.50665  0.64124  1.0000
  H   H69       1.0  0.13410  0.50953  0.59589  1.0000
  H   H70       1.0  0.33491  0.01452  0.84101  1.0000
  C   C74       1.0  0.03515  0.78720  0.33656  1.0000
  H   H71       1.0  0.21174  0.67770  0.03160  1.0000
  C   C75       1.0  0.15496  0.98965  0.21335  1.0000
  S   S24       1.0  0.32261  0.63424  0.16232  1.0000
  Fe  Fe10      1.0  0.18458  0.82916  0.29017  1.0000
  S   S25       1.0  0.22003  0.86606  0.32576  1.0000
  S   S26       1.0  0.20254  0.80763  0.23687  1.0000
  Fe  Fe11      1.0  0.12006  0.83883  0.33554  1.0000
  S   S27       1.0  0.15072  0.87767  0.37425  1.0000
  S   S28       1.0  0.06157  0.82818  0.34611  1.0000
  Fe  Fe12      1.0  0.17388  0.90373  0.32466  1.0000
  S   S29       1.0  0.18431  0.96600  0.31760  1.0000
  Fe  Fe13      1.0  0.19417  0.83708  0.37205  1.0000
  S   S30       1.0  0.22245  0.81053  0.42054  1.0000
  S   S31       1.0  0.13991  0.86840  0.28647  1.0000
  S   S32       1.0  0.16207  0.79651  0.33610  1.0000
  C   C76       1.0  0.20508  0.94761  0.14715  1.0000
  Fe  Fe14      1.0  0.32683  0.66185  0.10796  1.0000
  C   C77       1.0  0.25968  0.81046  0.48558  1.0000
  C   C78       1.0  0.24536  0.83263  0.45790  1.0000
  C   C79       1.0  0.25107  0.87120  0.45990  1.0000
  C   C80       1.0  0.27141  0.88726  0.48898  1.0000
  C   C81       1.0  0.07433  0.74831  0.41157  1.0000
  H   H72       1.0  0.24028  0.88863  0.43880  1.0000
  C   C82       1.0  0.24799  0.93913  0.25406  1.0000
  C   C83       1.0  0.04905  0.75555  0.32145  1.0000
  H   H73       1.0  0.25542  0.78059  0.48432  1.0000
  H   H74       1.0  0.07645  0.75602  0.31430  1.0000
  H   H75       1.0  0.03996  0.79313  0.42046  1.0000
  C   C84       1.0  0.15893  0.97107  0.24656  1.0000
  C   C85       1.0  0.17495  0.98952  0.27649  1.0000
  H   H76       1.0  0.11536  0.70990  0.40271  1.0000
  H   H77       1.0  0.25714  0.93734  0.28207  1.0000
  H   H78       1.0  0.15026  0.94226  0.24876  1.0000
  S   S33       1.0  0.27487  0.66657  0.07481  1.0000
  C   C86       1.0  0.30196  0.73979  0.23681  1.0000
  C   C87       1.0  0.28670  0.75234  0.20440  1.0000
  C   C88       1.0  0.25702  0.77450  0.20481  1.0000
  C   C89       1.0  0.24217  0.78374  0.23755  1.0000
  C   C90       1.0  0.25779  0.77180  0.27000  1.0000
  C   C91       1.0  0.28770  0.74995  0.26960  1.0000
  H   H79       1.0  0.29753  0.74468  0.17902  1.0000
  H   H80       1.0  0.24507  0.78373  0.17961  1.0000
  H   H81       1.0  0.24644  0.77877  0.29536  1.0000
  H   H82       1.0  0.29945  0.74026  0.29473  1.0000
  H   H83       1.0  0.14963  0.81863  0.44008  1.0000
  H   H84       1.0  0.22373  0.93742  0.12738  1.0000
  C   C92       1.0  0.28621  0.86503  0.51635  1.0000
  H   H85       1.0  0.30401  0.80750  0.40138  1.0000
  C   C93       1.0  0.23316  0.90780  0.23626  1.0000
  N   N7        1.0  0.22502  0.68549  0.19561  1.0000
  C   C94       1.0  0.23095  0.68309  0.15954  1.0000
  C   C95       1.0  0.19896  0.70716  0.20760  1.0000
  C   C96       1.0  0.24994  0.97305  0.23602  1.0000
  C   C97       1.0  0.17880  0.72808  0.18332  1.0000
  H   H86       1.0  0.21654  0.70197  0.10600  1.0000
  C   C98       1.0  0.24608  0.66384  0.22134  1.0000
  C   C99       1.0  0.21123  0.70355  0.13452  1.0000
  H   H87       1.0  0.23169  0.88123  0.24985  1.0000
  H   H88       1.0  0.15923  0.74645  0.19319  1.0000
  H   H89       1.0  0.16382  0.75512  0.42208  1.0000
  H   H90       1.0  0.19452  0.70962  0.23620  1.0000
  H   H91       1.0  0.24624  0.67593  0.24896  1.0000
  C   C100      1.0  0.10929  0.73757  0.41162  1.0000
  H   H92       1.0  0.27415  0.66417  0.21373  1.0000
  H   H93       1.0  0.10802  0.86253  0.45574  1.0000
  H   H94       1.0  0.17966  0.93122  0.14446  1.0000
  H   H95       1.0  0.23569  0.63462  0.22188  1.0000
  C   C101      1.0  0.23631  0.97526  0.20054  1.0000
  N   N8        1.0  0.22043  0.94468  0.18386  1.0000
  H   H96       1.0  0.19886  0.97685  0.14049  1.0000
  C   C102      1.0  0.08559  0.84759  0.44111  1.0000
  C   C103      1.0  0.21934  0.91106  0.20101  1.0000
  C   C104      1.0  0.33489  0.77818  0.44139  1.0000
  H   H97       1.0  0.20711  0.88660  0.18783  1.0000
  H   H98       1.0  0.07956  0.86287  0.41570  1.0000
  H   H99       1.0  0.03831  0.69903  0.30347  1.0000
  H   H100      1.0  0.25135  0.66569  0.14986  1.0000
  C   C105      1.0  0.13645  0.76289  0.42242  1.0000
  H   H101      1.0  0.14328  0.97483  0.19020  1.0000
  C   C106      1.0  0.12823  0.79888  0.43263  1.0000
  H   H102      1.0  0.17004  0.74277  0.12749  1.0000
  C   C107      1.0  0.18511  0.72630  0.14656  1.0000
  C   C108      1.0  0.06706  0.78443  0.42223  1.0000
  H   H103      1.0  0.27602  0.91710  0.49004  1.0000
  N   N9        1.0  0.09386  0.80920  0.43249  1.0000
  H   H104      1.0  0.26049  0.99780  0.24996  1.0000
  H   H105      1.0  0.06228  0.84820  0.45830  1.0000
  H   H106      1.0  0.32630  0.75087  0.43133  1.0000
  H   H107      1.0  0.23682  0.00205  0.18714  1.0000
  S   S34       1.0  0.33751  0.70976  0.23716  1.0000
  C   C109      1.0  0.28005  0.82650  0.51462  1.0000
  C   C110      1.0  0.26538  0.66067  0.02766  1.0000
  H   H108      1.0  0.05300  0.72932  0.40208  1.0000
  C   C111      1.0  0.32264  0.80996  0.42436  1.0000
  C   C112      1.0  0.02735  0.72325  0.31542  1.0000
  H   H109      1.0  0.32326  0.86980  0.42532  1.0000
  C   C113      1.0  0.33343  0.84497  0.43780  1.0000
  H   H110      1.0  0.33950  0.53273  0.28394  1.0000
  Fe  Fe15      1.0  0.11072  0.68192  0.85853  1.0000
  S   S35       1.0  0.13408  0.62618  0.87048  1.0000
  S   S36       1.0  0.06325  0.70441  0.88662  1.0000
  Fe  Fe16      1.0  0.16785  0.70304  0.80676  1.0000
  S   S37       1.0  0.19556  0.64925  0.81335  1.0000
  S   S38       1.0  0.18297  0.75513  0.77632  1.0000
  Fe  Fe17      1.0  0.14123  0.62206  0.81047  1.0000
  S   S39       1.0  0.12357  0.56755  0.78217  1.0000
  Fe  Fe18      1.0  0.18725  0.65651  0.87286  1.0000
  S   S40       1.0  0.23720  0.64331  0.90621  1.0000
  S   S41       1.0  0.11386  0.67564  0.79868  1.0000
  S   S42       1.0  0.16355  0.71236  0.86617  1.0000
  H   H111      1.0  0.03898  0.82649  0.90958  1.0000
  S   S43       1.0  0.32742  0.86299  0.65563  1.0000
  C   C114      1.0  0.04532  0.82755  0.88133  1.0000
  H   H112      1.0  0.28486  0.81404  0.78431  1.0000
  C   C115      1.0  0.02513  0.73504  0.82901  1.0000
  C   C116      1.0  0.21939  0.75363  0.74854  1.0000
  C   C117      1.0  0.23141  0.78619  0.73143  1.0000
  C   C118      1.0  0.26252  0.78651  0.71198  1.0000
  C   C119      1.0  0.28166  0.75422  0.70976  1.0000
  C   C120      1.0  0.26874  0.72131  0.72549  1.0000
  C   C121      1.0  0.23773  0.72101  0.74492  1.0000
  H   H113      1.0  0.21709  0.81143  0.73393  1.0000
  H   H114      1.0  0.27230  0.81195  0.69979  1.0000
  H   H115      1.0  0.28335  0.69619  0.72353  1.0000
  H   H116      1.0  0.22843  0.69572  0.75761  1.0000
  C   C122      1.0  0.24727  0.65085  0.95305  1.0000
  C   C123      1.0  0.22234  0.66349  0.97659  1.0000
  H   H117      1.0  0.29120  0.80903  0.53547  1.0000
  H   H118      1.0  0.24586  0.56754  0.87184  1.0000
  H   H119      1.0  0.25694  0.77884  0.83288  1.0000
  C   C124      1.0  0.31419  0.69676  0.80879  1.0000
  H   H120      1.0  0.19604  0.66932  0.96635  1.0000
  C   C125      1.0  0.28130  0.64331  0.96703  1.0000
  C   C126      1.0  0.23135  0.66822  0.01365  1.0000
  H   H121      1.0  0.10437  0.75440  0.83164  1.0000
  C   C127      1.0  0.27348  0.75603  0.82636  1.0000
  H   H122      1.0  0.04424  0.72360  0.81162  1.0000
  C   C128      1.0  0.07269  0.80672  0.86860  1.0000
  C   C129      1.0  0.16106  0.53344  0.87192  1.0000
  C   C130      1.0  0.18306  0.54204  0.74925  1.0000
  H   H123      1.0  0.01513  0.86175  0.80123  1.0000
  H   H124      1.0  0.19727  0.56641  0.76019  1.0000
  C   C131      1.0  0.28656  0.69123  0.83223  1.0000
  H   H125      1.0  0.06443  0.82530  0.78002  1.0000
  H   H126      1.0  0.19060  0.57517  0.90400  1.0000
  H   H127      1.0  0.32997  0.67370  0.80126  1.0000
  C   C132      1.0  0.19135  0.55481  0.88240  1.0000
  H   H128      1.0  0.33117  0.93708  0.71384  1.0000
  H   H129      1.0  0.32651  0.81431  0.81000  1.0000
  S   S44       1.0  0.31372  0.88647  0.55091  1.0000
  N   N10       1.0  0.30074  0.76128  0.80353  1.0000
  H   H130      1.0  0.08746  0.78957  0.88739  1.0000
  C   C133      1.0  0.03206  0.84741  0.82044  1.0000
  C   C134      1.0  0.32114  0.73226  0.79481  1.0000
  H   H131      1.0  0.30081  0.63346  0.94916  1.0000
  H   H132      1.0  0.13666  0.53774  0.88543  1.0000
  H   H133      1.0  0.26484  0.98977  0.64455  1.0000
  N   N11       1.0  0.07925  0.80598  0.83260  1.0000
  H   H134      1.0  0.29132  0.94311  0.60494  1.0000
  C   C135      1.0  0.29318  0.99016  0.64138  1.0000
  C   C136      1.0  0.22249  0.55045  0.86433  1.0000
  C   C137      1.0  0.10717  0.78269  0.81996  1.0000
  H   H135      1.0  0.28083  0.66393  0.84345  1.0000
  S   S45       1.0  0.32379  0.75473  0.69165  1.0000
  C   C138      1.0  0.02731  0.72808  0.86610  1.0000
  C   C139      1.0  0.22322  0.52434  0.83651  1.0000
  C   C140      1.0  0.05970  0.82637  0.80863  1.0000
  C   C141      1.0  0.20099  0.51515  0.72998  1.0000
  H   H136      1.0  0.13359  0.79500  0.82808  1.0000
  H   H137      1.0  0.29996  0.98722  0.74433  1.0000
  C   C142      1.0  0.32842  0.98913  0.74292  1.0000
  C   C143      1.0  0.14694  0.53686  0.75496  1.0000
  H   H138      1.0  0.24447  0.71680  0.85924  1.0000
  H   H139      1.0  0.10592  0.77917  0.79014  1.0000
  C   C144      1.0  0.26606  0.72100  0.84112  1.0000
  C   C145      1.0  0.30797  0.96394  0.61931  1.0000
  C   C146      1.0  0.29038  0.64831  0.00405  1.0000
  Fe  Fe19      1.0  0.34194  0.85692  0.59744  1.0000
  H   H140      1.0  0.34233  0.73628  0.77614  1.0000
  C   C147      1.0  0.33871  0.00963  0.89888  1.0000
  C   C148      1.0  0.02477  0.84779  0.85700  1.0000
  H   H141      1.0  0.24717  0.52092  0.82198  1.0000
  H   H142      1.0  0.32319  0.79738  0.76407  1.0000
  H   H143      1.0  0.31661  0.64230  0.01438  1.0000
  H   H144      1.0  0.22900  0.51919  0.72608  1.0000
  C   C149      1.0  0.30930  0.79863  0.78994  1.0000
  H   H145      1.0  0.33648  0.01149  0.95683  1.0000
  Fe  Fe20      1.0  0.61538  0.17453  0.34776  1.0000
  H   H146      1.0  0.54122  0.20989  0.43577  1.0000
  S   S46       1.0  0.55746  0.18431  0.35779  1.0000
  H   H147      1.0  0.48716  0.43682  0.27344  1.0000
  Fe  Fe21      1.0  0.36347  0.39806  0.32149  1.0000
  S   S47       1.0  0.64593  0.13461  0.38273  1.0000
  S   S48       1.0  0.63285  0.14955  0.29602  1.0000
  H   H148      1.0  0.58416  0.26022  0.34321  1.0000
  Fe  Fe22      1.0  0.42178  0.34500  0.34545  1.0000
  S   S49       1.0  0.39418  0.39024  0.37410  1.0000
  S   S50       1.0  0.48169  0.33979  0.34910  1.0000
  H   H149      1.0  0.66625  0.25398  0.44526  1.0000
  H   H150      1.0  0.56377  0.15171  0.47002  1.0000
  C   C150      1.0  0.58485  0.15556  0.45027  1.0000
  H   H151      1.0  0.50923  0.40827  0.30627  1.0000
  S   S51       1.0  0.39438  0.35642  0.29197  1.0000
  H   H152      1.0  0.47286  0.45011  0.41794  1.0000
  C   C151      1.0  0.66640  0.02902  0.27834  1.0000
  C   C152      1.0  0.56858  0.21971  0.43918  1.0000
  S   S52       1.0  0.38235  0.30122  0.36174  1.0000
  H   H153      1.0  0.62151  0.03747  0.19754  1.0000
  C   C153      1.0  0.38061  0.46710  0.23687  1.0000
  C   C154      1.0  0.57703  0.25743  0.43406  1.0000
  C   C155      1.0  0.36259  0.48282  0.26502  1.0000
  H   H154      1.0  0.36013  0.22007  0.38575  1.0000
  C   C156      1.0  0.53676  0.22759  0.35290  1.0000
  C   C157      1.0  0.50017  0.22889  0.35741  1.0000
  C   C158      1.0  0.48289  0.26287  0.35559  1.0000
  C   C159      1.0  0.50212  0.29611  0.34976  1.0000
  C   C160      1.0  0.53877  0.29486  0.34540  1.0000
  C   C161      1.0  0.55598  0.26077  0.34664  1.0000
  H   H155      1.0  0.48505  0.20343  0.36229  1.0000
  H   H156      1.0  0.45473  0.26334  0.35907  1.0000
  H   H157      1.0  0.55393  0.32036  0.34087  1.0000
  H   H158      1.0  0.38772  0.43832  0.23841  1.0000
  S   S53       1.0  0.35207  0.45765  0.30470  1.0000
  C   C162      1.0  0.62923  0.20720  0.44887  1.0000
  H   H159      1.0  0.42726  0.49632  0.40328  1.0000
  C   C163      1.0  0.47955  0.43573  0.36212  1.0000
  H   H160      1.0  0.63437  0.07157  0.25519  1.0000
  C   C164      1.0  0.63863  0.24474  0.44389  1.0000
  C   C165      1.0  0.61232  0.26993  0.43629  1.0000
  C   C166      1.0  0.42888  0.48725  0.34600  1.0000
  H   H161      1.0  0.43473  0.47088  0.29104  1.0000
  H   H162      1.0  0.55635  0.27652  0.42715  1.0000
  N   N12       1.0  0.59454  0.19514  0.44645  1.0000
  Fe  Fe23      1.0  0.35205  0.34687  0.38651  1.0000
  C   C167      1.0  0.38937  0.48870  0.20652  1.0000
  C   C168      1.0  0.44390  0.46690  0.31875  1.0000
  H   H163      1.0  0.46486  0.39587  0.29115  1.0000
  Fe  Fe24      1.0  0.35303  0.31484  0.31008  1.0000
  C   C169      1.0  0.43945  0.48141  0.38188  1.0000
  H   H164      1.0  0.49872  0.41497  0.36879  1.0000
  C   C170      1.0  0.64514  0.04457  0.25113  1.0000
  N   N13       1.0  0.46911  0.44177  0.32696  1.0000
  H   H165      1.0  0.40322  0.47628  0.18486  1.0000
  C   C171      1.0  0.48335  0.41974  0.29798  1.0000
  H   H166      1.0  0.61932  0.29896  0.43160  1.0000
  C   C172      1.0  0.46501  0.45553  0.39008  1.0000
  S   S54       1.0  0.65837  0.21892  0.35056  1.0000
  C   C173      1.0  0.63782  0.02510  0.21848  1.0000
  H   H167      1.0  0.35468  0.21974  0.33750  1.0000
  H   H168      1.0  0.60770  0.13919  0.45963  1.0000
  Fe  Fe25      1.0  0.66709  0.11363  0.33060  1.0000
  H   H169      1.0  0.57499  0.14406  0.42373  1.0000
  H   H170      1.0  0.67270  0.10828  0.15264  1.0000
  H   H171      1.0  0.64999  0.18776  0.45415  1.0000
  H   H172      1.0  0.40824  0.50646  0.33926  1.0000
  H   H173      1.0  0.45865  0.33444  0.78205  1.0000
  H   H174      1.0  0.50939  0.29842  0.76445  1.0000
  C   C174      1.0  0.61001  0.24805  0.93847  1.0000
  H   H175      1.0  0.39150  0.23694  0.77553  1.0000
  H   H176      1.0  0.50123  0.23051  0.75279  1.0000
  Fe  Fe26      1.0  0.40942  0.15571  0.83923  1.0000
  S   S55       1.0  0.46900  0.16406  0.83553  1.0000
  H   H177      1.0  0.53575  0.29545  0.91953  1.0000
  S   S56       1.0  0.38317  0.10246  0.85874  1.0000
  Fe  Fe27      1.0  0.61023  0.32971  0.83821  1.0000
  S   S57       1.0  0.63925  0.38135  0.85998  1.0000
  S   S58       1.0  0.55071  0.32199  0.84411  1.0000
  H   H178      1.0  0.39892  0.04611  0.76736  1.0000
  C   C175      1.0  0.58348  0.31827  0.94557  1.0000
  S   S59       1.0  0.63700  0.33289  0.78509  1.0000
  S   S60       1.0  0.64862  0.29145  0.86448  1.0000
  C   C176      1.0  0.63961  0.45661  0.73140  1.0000
  Fe  Fe28      1.0  0.66926  0.38142  0.80888  1.0000
  C   C177      1.0  0.48332  0.28494  0.76559  1.0000
  H   H179      1.0  0.62396  0.43226  0.73883  1.0000
  C   C178      1.0  0.44555  0.22948  0.76253  1.0000
  H   H180      1.0  0.39801  0.33920  0.79177  1.0000
  C   C179      1.0  0.49179  0.20780  0.84042  1.0000
  C   C180      1.0  0.52772  0.21089  0.83234  1.0000
  C   C181      1.0  0.54627  0.24557  0.83384  1.0000
  C   C182      1.0  0.52904  0.27750  0.84365  1.0000
  C   C183      1.0  0.49337  0.27429  0.85269  1.0000
  C   C184      1.0  0.47477  0.23964  0.85099  1.0000
  H   H181      1.0  0.54112  0.18639  0.82422  1.0000
  H   H182      1.0  0.57375  0.24763  0.82689  1.0000
  H   H183      1.0  0.47988  0.29882  0.86051  1.0000
  H   H184      1.0  0.44719  0.23763  0.85744  1.0000
  C   C185      1.0  0.56218  0.28981  0.92979  1.0000
  H   H185      1.0  0.62053  0.22082  0.93450  1.0000
  C   C186      1.0  0.34726  0.02032  0.75784  1.0000
  S   S61       1.0  0.37531  0.19189  0.87120  1.0000
  C   C187      1.0  0.57547  0.25447  0.92602  1.0000
  H   H186      1.0  0.44208  0.19962  0.75888  1.0000
  N   N14       1.0  0.63047  0.27593  0.95473  1.0000
  C   C188      1.0  0.39189  0.30882  0.79045  1.0000
  C   C189      1.0  0.47877  0.24684  0.75909  1.0000
  H   H187      1.0  0.38403  0.29920  0.81757  1.0000
  C   C190      1.0  0.61771  0.31078  0.95811  1.0000
  H   H188      1.0  0.55936  0.23252  0.91270  1.0000
  C   C191      1.0  0.41721  0.25059  0.77241  1.0000
  H   H189      1.0  0.63414  0.33322  0.97008  1.0000
  H   H190      1.0  0.60091  0.47528  0.69191  1.0000
  C   C192      1.0  0.38403  0.02237  0.75593  1.0000
  H   H191      1.0  0.57381  0.34616  0.94735  1.0000
  N   N15       1.0  0.42192  0.28789  0.77888  1.0000
  S   S62       1.0  0.37551  0.15682  0.78814  1.0000
  C   C193      1.0  0.45449  0.30513  0.77580  1.0000
  C   C194      1.0  0.62661  0.48109  0.70481  1.0000
  H   H192      1.0  0.36849  0.03648  0.67060  1.0000
  H   H193      1.0  0.36881  0.30397  0.77134  1.0000
  C   C195      1.0  0.64661  0.51288  0.69473  1.0000
  C   C196      1.0  0.66705  0.26898  0.96625  1.0000
  H   H194      1.0  0.66953  0.24046  0.97710  1.0000
  H   H195      1.0  0.67687  0.28880  0.98777  1.0000
  Fe  Fe29      1.0  0.34569  0.13934  0.88671  1.0000
  C   C197      1.0  0.67288  0.46367  0.74813  1.0000
  Fe  Fe30      1.0  0.34664  0.10643  0.80992  1.0000
  C   C198      1.0  0.35160  0.01635  0.65564  1.0000
  Fe  Fe31      1.0  0.37600  0.61191  0.15365  1.0000
  S   S63       1.0  0.40607  0.66084  0.17925  1.0000
  H   H196      1.0  0.36341  0.87497  0.47949  1.0000
  H   H197      1.0  0.43946  0.58362  0.11370  1.0000
  H   H198      1.0  0.57718  0.93853  0.15116  1.0000
  Fe  Fe32      1.0  0.40477  0.68637  0.12405  1.0000
  S   S64       1.0  0.45151  0.71559  0.09719  1.0000
  S   S65       1.0  0.37833  0.63551  0.09720  1.0000
  C   C199      1.0  0.46248  0.60128  0.12109  1.0000
  C   C200      1.0  0.35341  0.52024  0.26235  1.0000
  S   S66       1.0  0.64452  0.96825  0.16984  1.0000
  H   H199      1.0  0.49275  0.83082  0.13856  1.0000
  S   S67       1.0  0.66152  0.86402  0.19770  1.0000
  Fe  Fe33      1.0  0.63365  0.82843  0.15449  1.0000
  S   S68       1.0  0.58713  0.79405  0.17639  1.0000
  H   H200      1.0  0.59767  0.91608  0.20766  1.0000
  S   S69       1.0  0.63111  0.87555  0.11503  1.0000
  C   C201      1.0  0.48825  0.73873  0.11968  1.0000
  C   C202      1.0  0.49206  0.73986  0.15730  1.0000
  C   C203      1.0  0.52246  0.75707  0.17408  1.0000
  C   C204      1.0  0.54939  0.77328  0.15353  1.0000
  C   C205      1.0  0.54539  0.77259  0.11590  1.0000
  C   C206      1.0  0.51499  0.75532  0.09911  1.0000
  H   H201      1.0  0.47169  0.72727  0.17346  1.0000
  H   H202      1.0  0.52521  0.75760  0.20322  1.0000
  H   H203      1.0  0.56583  0.78509  0.09975  1.0000
  H   H204      1.0  0.51227  0.75461  0.06996  1.0000
  H   H205      1.0  0.57610  0.65304  0.15097  1.0000
  H   H206      1.0  0.51839  0.66588  0.08571  1.0000
  H   H207      1.0  0.55717  0.90963  0.23121  1.0000
  H   H208      1.0  0.46619  0.62578  0.06838  1.0000
  H   H209      1.0  0.55665  0.69336  0.13092  1.0000
  Fe  Fe34      1.0  0.35249  0.68492  0.18413  1.0000
  H   H210      1.0  0.54482  0.92702  0.09299  1.0000
  C   C207      1.0  0.55244  0.67027  0.15033  1.0000
  N   N16       1.0  0.55400  0.89107  0.17683  1.0000
  C   C208      1.0  0.53001  0.86177  0.17371  1.0000
  C   C209      1.0  0.55857  0.91496  0.14862  1.0000
  C   C210      1.0  0.51089  0.85485  0.14122  1.0000
  C   C211      1.0  0.54013  0.90870  0.11563  1.0000
  C   C212      1.0  0.51634  0.87826  0.11190  1.0000
  C   C213      1.0  0.57410  0.89719  0.21101  1.0000
  C   C214      1.0  0.47647  0.60135  0.15640  1.0000
  Fe  Fe35      1.0  0.66224  0.90982  0.15714  1.0000
  C   C215      1.0  0.38001  0.52611  0.20380  1.0000
  S   S70       1.0  0.35329  0.71435  0.13096  1.0000
  H   H211      1.0  0.50235  0.87260  0.08630  1.0000
  H   H212      1.0  0.46420  0.58378  0.17651  1.0000
  S   S71       1.0  0.39206  0.55234  0.16523  1.0000
  C   C216      1.0  0.36196  0.54175  0.23193  1.0000
  N   N17       1.0  0.52077  0.64730  0.14035  1.0000
  C   C217      1.0  0.50723  0.64730  0.10562  1.0000
  C   C218      1.0  0.50583  0.62467  0.16562  1.0000
  C   C219      1.0  0.47773  0.62455  0.09556  1.0000
  H   H213      1.0  0.51643  0.62473  0.19318  1.0000
  H   H214      1.0  0.54988  0.68339  0.17722  1.0000
  C   C220      1.0  0.35607  0.84769  0.46846  1.0000
  C   C221      1.0  0.67306  0.97453  0.23980  1.0000
  C   C222      1.0  0.65212  0.99024  0.21245  1.0000
  H   H215      1.0  0.52653  0.84270  0.19602  1.0000
  N   N18       1.0  0.36771  0.81637  0.48518  1.0000
  H   H216      1.0  0.58402  0.87042  0.22147  1.0000
  H   H217      1.0  0.41900  0.82783  0.50873  1.0000
  H   H218      1.0  0.35464  0.57047  0.23031  1.0000
  C   C223      1.0  0.35774  0.78191  0.47186  1.0000
  H   H219      1.0  0.36708  0.75709  0.48505  1.0000
  C   C224      1.0  0.56731  0.66649  0.71375  1.0000
  C   C225      1.0  0.38278  0.96305  0.72312  1.0000
  Fe  Fe36      1.0  0.63412  0.67943  0.62904  1.0000
  Fe  Fe37      1.0  0.38463  0.87960  0.66626  1.0000
  S   S72       1.0  0.59741  0.72285  0.65019  1.0000
  H   H220      1.0  0.52094  0.67003  0.66012  1.0000
  C   C226      1.0  0.57175  0.60374  0.69526  1.0000
  S   S73       1.0  0.62370  0.62671  0.59694  1.0000
  H   H221      1.0  0.59641  0.68300  0.76274  1.0000
  Fe  Fe38      1.0  0.41109  0.81735  0.61710  1.0000
  S   S74       1.0  0.39829  0.87715  0.60778  1.0000
  S   S75       1.0  0.45345  0.78832  0.58641  1.0000
  S   S76       1.0  0.62882  0.54291  0.66128  1.0000
  H   H222      1.0  0.56598  0.58162  0.67573  1.0000
  C   C227      1.0  0.60222  0.62510  0.75020  1.0000
  S   S77       1.0  0.66068  0.64967  0.67546  1.0000
  S   S78       1.0  0.40241  0.82127  0.67648  1.0000
  H   H223      1.0  0.55785  0.69418  0.70891  1.0000
  N   N19       1.0  0.55884  0.63832  0.68975  1.0000
  H   H224      1.0  0.51995  0.62137  0.64927  1.0000
  H   H225      1.0  0.39310  0.79378  0.53250  1.0000
  C   C228      1.0  0.55686  0.73951  0.63206  1.0000
  C   C229      1.0  0.53658  0.76169  0.65398  1.0000
  C   C230      1.0  0.50451  0.77609  0.64076  1.0000
  C   C231      1.0  0.49253  0.76888  0.60520  1.0000
  C   C232      1.0  0.51266  0.74637  0.58339  1.0000
  C   C233      1.0  0.54448  0.73150  0.59679  1.0000
  H   H226      1.0  0.54589  0.76821  0.68126  1.0000
  H   H227      1.0  0.48945  0.79346  0.65782  1.0000
  H   H228      1.0  0.50373  0.74068  0.55582  1.0000
  H   H229      1.0  0.55978  0.71458  0.57954  1.0000
  C   C234      1.0  0.59331  0.59653  0.72572  1.0000
  H   H230      1.0  0.61969  0.61998  0.77338  1.0000
  C   C235      1.0  0.40164  0.99388  0.73866  1.0000
  C   C236      1.0  0.58916  0.66037  0.74425  1.0000
  H   H231      1.0  0.55552  0.65176  0.63427  1.0000
  S   S79       1.0  0.40625  0.92947  0.69951  1.0000
  C   C237      1.0  0.34603  0.96063  0.72562  1.0000
  H   H232      1.0  0.65849  0.78335  0.72695  1.0000
  H   H233      1.0  0.36208  0.99317  0.89886  1.0000
  Fe  Fe39      1.0  0.65361  0.59778  0.64182  1.0000
  C   C238      1.0  0.53769  0.64565  0.65679  1.0000
  H   H234      1.0  0.41177  0.00937  0.60809  1.0000
  H   H235      1.0  0.41334  0.96215  0.62484  1.0000
  H   H236      1.0  0.60385  0.56914  0.72969  1.0000
  S   S80       1.0  0.35542  0.79705  0.60262  1.0000
  Fe  Fe40      1.0  0.34596  0.80437  0.66161  1.0000
  H   H237      1.0  0.67031  0.75240  0.66898  1.0000
  H   H238      1.0  0.43009  0.99593  0.73707  1.0000
  N   N20       1.0  0.36594  0.99010  0.63449  1.0000
  C   C239      1.0  0.40426  0.99055  0.63037  1.0000
  H   H239      1.0  0.41853  0.99973  0.65582  1.0000
  H   H240      1.0  0.38280  0.84169  0.53552  1.0000
  H   H241      1.0  0.35576  0.94416  0.59854  1.0000
  C   C240      1.0  0.34460  0.96452  0.61594  1.0000
  C   C241      1.0  0.39183  0.82009  0.51692  1.0000
  S   S81       1.0  0.71408  0.15398  0.33282  1.0000
  C   C242      1.0  0.76522  0.12340  0.49600  1.0000
  H   H242      1.0  0.97898  0.18980  0.12385  1.0000
  C   C243      1.0  0.97916  0.24975  0.12452  1.0000
  S   S82       1.0  0.72114  0.20257  0.43145  1.0000
  Fe  Fe41      1.0  0.85905  0.30180  0.17302  1.0000
  S   S83       1.0  0.89983  0.34720  0.18585  1.0000
  S   S84       1.0  0.85052  0.26201  0.21882  1.0000
  Fe  Fe42      1.0  0.84898  0.32505  0.09395  1.0000
  S   S85       1.0  0.88917  0.37238  0.10149  1.0000
  C   C244      1.0  0.74537  0.36753  0.22416  1.0000
  Fe  Fe43      1.0  0.92188  0.33168  0.13277  1.0000
  S   S86       1.0  0.98075  0.32669  0.12558  1.0000
  Fe  Fe44      1.0  0.86331  0.38337  0.15411  1.0000
  S   S87       1.0  0.84801  0.44157  0.17053  1.0000
  S   S88       1.0  0.88366  0.28388  0.12229  1.0000
  S   S89       1.0  0.82050  0.33863  0.14436  1.0000
  H   H243      1.0  0.73361  0.12391  0.44611  1.0000
  C   C245      1.0  0.99508  0.21521  0.12253  1.0000
  C   C246      1.0  0.85593  0.46481  0.21252  1.0000
  H   H244      1.0  0.72319  0.13845  0.25442  1.0000
  C   C247      1.0  0.88063  0.46862  0.27404  1.0000
  C   C248      1.0  0.87504  0.44900  0.24124  1.0000
  H   H245      1.0  0.68652  0.15529  0.20116  1.0000
  H   H246      1.0  0.89539  0.45616  0.29611  1.0000
  H   H247      1.0  0.88577  0.42184  0.23815  1.0000
  H   H248      1.0  0.74416  0.08876  0.29276  1.0000
  H   H249      1.0  0.84115  0.13201  0.47676  1.0000
  C   C249      1.0  0.71737  0.11777  0.23352  1.0000
  C   C250      1.0  0.76082  0.20044  0.49501  1.0000
  C   C251      1.0  0.93284  0.32402  0.03185  1.0000
  H   H250      1.0  0.95101  0.25070  0.12738  1.0000
  H   H251      1.0  0.95287  0.24054  0.20056  1.0000
  C   C252      1.0  0.73587  0.22984  0.24075  1.0000
  C   C253      1.0  0.76289  0.22050  0.26535  1.0000
  C   C254      1.0  0.79822  0.22938  0.25781  1.0000
  C   C255      1.0  0.80653  0.24796  0.22589  1.0000
  C   C256      1.0  0.77953  0.25670  0.20102  1.0000
  C   C257      1.0  0.74427  0.24749  0.20839  1.0000
  H   H252      1.0  0.75663  0.20722  0.29051  1.0000
  H   H253      1.0  0.81910  0.22266  0.27714  1.0000
  H   H254      1.0  0.78578  0.27068  0.17619  1.0000
  H   H255      1.0  0.72342  0.25451  0.18914  1.0000
  H   H256      1.0  0.94637  0.34116  0.05361  1.0000
  C   C258      1.0  0.74410  0.17927  0.46685  1.0000
  C   C259      1.0  0.74633  0.14060  0.46754  1.0000
  H   H257      1.0  0.69693  0.30652  0.23037  1.0000
  H   H258      1.0  0.82831  0.51315  0.19481  1.0000
  H   H259      1.0  0.82966  0.32688  0.26711  1.0000
  H   H260      1.0  0.72185  0.37846  0.21124  1.0000
  H   H261      1.0  0.77075  0.30035  0.28116  1.0000
  C   C260      1.0  0.75157  0.07293  0.26861  1.0000
  H   H262      1.0  0.74738  0.04307  0.27554  1.0000
  H   H263      1.0  0.68947  0.34331  0.26232  1.0000
  C   C261      1.0  0.80884  0.36906  0.23208  1.0000
  C   C262      1.0  0.85800  0.18904  0.48537  1.0000
  N   N21       1.0  0.94423  0.28562  0.03403  1.0000
  C   C263      1.0  0.77840  0.38354  0.21629  1.0000
  H   H264      1.0  0.76691  0.09346  0.49617  1.0000
  C   C264      1.0  0.86790  0.50451  0.27828  1.0000
  C   C265      1.0  0.69671  0.12754  0.20325  1.0000
  Fe  Fe45      1.0  0.69049  0.17765  0.38226  1.0000
  H   H265      1.0  0.89177  0.26169  0.03378  1.0000
  H   H266      1.0  0.88027  0.24314  0.50038  1.0000
  H   H267      1.0  0.77417  0.35683  0.05092  1.0000
  H   H268      1.0  0.96517  0.26594  0.24149  1.0000
  H   H269      1.0  0.78060  0.40664  0.19758  1.0000
  N   N22       1.0  0.72969  0.08264  0.23684  1.0000
  C   C266      1.0  0.77260  0.32405  0.26326  1.0000
  C   C267      1.0  0.72299  0.05696  0.20995  1.0000
  C   C268      1.0  0.86062  0.15070  0.49017  1.0000
  C   C269      1.0  0.80604  0.33907  0.25561  1.0000
  N   N23       1.0  0.74281  0.33831  0.24758  1.0000
  H   H270      1.0  0.83456  0.38065  0.22547  1.0000
  H   H271      1.0  0.91128  0.19704  0.03723  1.0000
  C   C270      1.0  0.91984  0.25660  0.03447  1.0000
  S   S90       1.0  0.69130  0.22190  0.25043  1.0000
  H   H272      1.0  0.83672  0.19973  0.46846  1.0000
  N   N24       1.0  0.88639  0.13697  0.51266  1.0000
  C   C271      1.0  0.96671  0.21302  0.03712  1.0000
  H   H273      1.0  0.90392  0.32579  0.03509  1.0000
  C   C272      1.0  0.70788  0.32162  0.25474  1.0000
  C   C273      1.0  0.99971  0.28274  0.12279  1.0000
  H   H274      1.0  0.77988  0.07882  0.26354  1.0000
  C   C274      1.0  0.88231  0.21332  0.50334  1.0000
  H   H275      1.0  0.99561  0.19324  0.21012  1.0000
  C   C275      1.0  0.97152  0.26205  0.21279  1.0000
  H   H276      1.0  0.69621  0.04482  0.15862  1.0000
  H   H277      1.0  0.90169  0.08444  0.49412  1.0000
  C   C276      1.0  0.84300  0.50058  0.21688  1.0000
  C   C277      1.0  0.70253  0.06582  0.17921  1.0000
  S   S91       1.0  0.83002  0.30477  0.03786  1.0000
  H   H278      1.0  0.96666  0.28828  0.19789  1.0000
  H   H279      1.0  0.97563  0.18477  0.03929  1.0000
  H   H280      1.0  0.75922  0.23037  0.49477  1.0000
  C   C278      1.0  0.68912  0.10128  0.17603  1.0000
  Fe  Fe46      1.0  0.67827  0.19125  0.30143  1.0000
  H   H281      1.0  0.70905  0.30109  0.27710  1.0000
  C   C279      1.0  0.99134  0.24276  0.03625  1.0000
  H   H282      1.0  0.73254  0.02903  0.21260  1.0000
  C   C280      1.0  0.93070  0.21991  0.03624  1.0000
  N   N25       1.0  0.00836  0.25153  0.21012  1.0000
  C   C281      1.0  0.97956  0.27912  0.03487  1.0000
  H   H283      1.0  0.99886  0.30218  0.03539  1.0000
  S   S92       1.0  0.67770  0.05293  0.31932  1.0000
  C   C282      1.0  0.77002  0.34547  0.02401  1.0000
  H   H284      1.0  0.92002  0.51223  0.20044  1.0000
  Fe  Fe47      1.0  0.87823  0.12231  0.67559  1.0000
  S   S93       1.0  0.90415  0.17910  0.68424  1.0000
  S   S94       1.0  0.89549  0.08108  0.71883  1.0000
  Fe  Fe48      1.0  0.84069  0.14694  0.60501  1.0000
  S   S95       1.0  0.86390  0.20535  0.60864  1.0000
  S   S96       1.0  0.80757  0.12152  0.55776  1.0000
  Fe  Fe49      1.0  0.91500  0.17941  0.62550  1.0000
  S   S97       1.0  0.96885  0.19380  0.60266  1.0000
  Fe  Fe50      1.0  0.85137  0.20072  0.66746  1.0000
  S   S98       1.0  0.83502  0.24976  0.70007  1.0000
  S   S99       1.0  0.89296  0.12086  0.61755  1.0000
  S   S100      1.0  0.82428  0.14410  0.66304  1.0000
  H   H285      1.0  0.99157  0.31588  0.66163  1.0000
  S   S101      1.0  0.71212  0.34599  0.83281  1.0000
  H   H286      1.0  0.71748  0.27360  0.67447  1.0000
  C   C283      1.0  0.79313  0.11964  0.76002  1.0000
  H   H287      1.0  0.71860  0.50126  0.75087  1.0000
  C   C284      1.0  0.78755  0.30546  0.97601  1.0000
  C   C285      1.0  0.75872  0.31650  0.95391  1.0000
  C   C286      1.0  0.73532  0.34204  0.96684  1.0000
  H   H288      1.0  0.87140  0.09888  0.79883  1.0000
  H   H289      1.0  0.79888  0.35782  0.69448  1.0000
  H   H290      1.0  0.75461  0.30522  0.92696  1.0000
  C   C287      1.0  0.84805  0.15818  0.76393  1.0000
  H   H291      1.0  0.74940  0.42250  0.73050  1.0000
  C   C288      1.0  0.79714  0.24586  0.72585  1.0000
  C   C289      1.0  0.79178  0.27302  0.75205  1.0000
  C   C290      1.0  0.76015  0.27289  0.77053  1.0000
  C   C291      1.0  0.73389  0.24535  0.76310  1.0000
  C   C292      1.0  0.73977  0.21743  0.73780  1.0000
  C   C293      1.0  0.77125  0.21779  0.71901  1.0000
  H   H292      1.0  0.81181  0.29474  0.75746  1.0000
  H   H293      1.0  0.75595  0.29430  0.79021  1.0000
  H   H294      1.0  0.71939  0.19617  0.73189  1.0000
  H   H295      1.0  0.77492  0.19718  0.69840  1.0000
  C   C294      1.0  0.76384  0.39834  0.74129  1.0000
  C   C295      1.0  0.98069  0.26280  0.63548  1.0000
  H   H296      1.0  0.95458  0.25917  0.64607  1.0000
  C   C296      1.0  0.84367  0.09606  0.79054  1.0000
  C   C297      1.0  0.78211  0.14457  0.52405  1.0000
  C   C298      1.0  0.69285  0.49548  0.73806  1.0000
  H   H297      1.0  0.93911  0.33607  0.00524  1.0000
  Fe  Fe51      1.0  0.68008  0.34296  0.88255  1.0000
  H   H298      1.0  0.87570  0.15221  0.75752  1.0000
  C   C299      1.0  0.74106  0.35630  0.00201  1.0000
  C   C300      1.0  0.99355  0.23551  0.61311  1.0000
  C   C301      1.0  0.84186  0.02596  0.71759  1.0000
  N   N26       1.0  0.75121  0.36429  0.72237  1.0000
  C   C302      1.0  0.77228  0.34707  0.69883  1.0000
  C   C303      1.0  0.71788  0.35025  0.72813  1.0000
  C   C304      1.0  0.76024  0.31458  0.68074  1.0000
  H   H299      1.0  0.75887  0.39607  0.77060  1.0000
  C   C305      1.0  0.72655  0.29964  0.68707  1.0000
  C   C306      1.0  0.79343  0.31992  0.01113  1.0000
  H   H300      1.0  0.82842  0.04224  0.69722  1.0000
  S   S102      1.0  0.69284  0.24597  0.78352  1.0000
  N   N27       1.0  0.82790  0.12361  0.77120  1.0000
  S   S103      1.0  0.69757  0.35573  0.94106  1.0000
  H   H301      1.0  0.78044  0.14170  0.74520  1.0000
  C   C307      1.0  0.70516  0.31757  0.71086  1.0000
  H   H302      1.0  0.79261  0.40395  0.73863  1.0000
  C   C308      1.0  0.82481  0.06309  0.79841  1.0000
  H   H303      1.0  0.79264  0.19989  0.54479  1.0000
  C   C309      1.0  0.87517  0.03804  0.73147  1.0000
  H   H304      1.0  0.80547  0.28565  0.96579  1.0000
  H   H305      1.0  0.83663  0.17310  0.74031  1.0000
  H   H306      1.0  0.77756  0.30017  0.66323  1.0000
  S   S104      1.0  0.69131  0.43346  0.78104  1.0000
  H   H307      1.0  0.84821  0.17696  0.78772  1.0000
  H   H308      1.0  0.92821  0.21764  0.53959  1.0000
  H   H309      1.0  0.74625  0.08347  0.75754  1.0000
  H   H310      1.0  0.93171  0.14975  0.54706  1.0000
  C   C310      1.0  0.00173  0.29490  0.64431  1.0000
  H   H311      1.0  0.70118  0.36404  0.74662  1.0000
  C   C311      1.0  0.91089  0.16055  0.52965  1.0000
  C   C312      1.0  0.77358  0.08686  0.76710  1.0000
  H   H312      1.0  0.72310  0.37605  0.01228  1.0000
  C   C313      1.0  0.78967  0.05836  0.78627  1.0000
  H   H313      1.0  0.90314  0.08971  0.54268  1.0000
  H   H314      1.0  0.83775  0.04073  0.81261  1.0000
  H   H315      1.0  0.91787  0.02573  0.76911  1.0000
  C   C314      1.0  0.90913  0.19905  0.52539  1.0000
  C   C315      1.0  0.77972  0.18324  0.52347  1.0000
  H   H316      1.0  0.68448  0.27272  0.94299  1.0000
  H   H317      1.0  0.77522  0.03236  0.79126  1.0000
  H   H318      1.0  0.67931  0.30561  0.71678  1.0000
  Fe  Fe52      1.0  0.67749  0.29764  0.81281  1.0000
  C   C316      1.0  0.89213  0.01658  0.75813  1.0000
  C   C317      1.0  0.88844  0.09667  0.51726  1.0000
  H   H319      1.0  0.86151  0.08354  0.51915  1.0000
  C   C318      1.0  0.94139  0.54139  0.24788  1.0000
  S   S105      1.0  0.75911  0.83603  0.21020  1.0000
  S   S106      1.0  0.71471  0.89558  0.13547  1.0000
  Fe  Fe53      1.0  0.86645  0.59037  0.32653  1.0000
  S   S107      1.0  0.89717  0.62336  0.36982  1.0000
  S   S108      1.0  0.69236  0.85224  0.03590  1.0000
  Fe  Fe54      1.0  0.83034  0.65900  0.29881  1.0000
  S   S109      1.0  0.85937  0.69781  0.33832  1.0000
  S   S110      1.0  0.78631  0.67092  0.25854  1.0000
  Fe  Fe55      1.0  0.90767  0.66567  0.32663  1.0000
  S   S111      1.0  0.96564  0.68059  0.31594  1.0000
  Fe  Fe56      1.0  0.84671  0.65279  0.37870  1.0000
  S   S112      1.0  0.82945  0.67156  0.43410  1.0000
  S   S113      1.0  0.87919  0.63094  0.28307  1.0000
  S   S114      1.0  0.81514  0.61583  0.33969  1.0000
  H   H320      1.0  0.71630  0.68415  0.29235  1.0000
  H   H321      1.0  0.76044  0.80575  0.31035  1.0000
  N   N28       1.0  0.95152  0.57507  0.26286  1.0000
  C   C319      1.0  0.97776  0.75368  0.33982  1.0000
  H   H322      1.0  0.93765  0.63045  0.19055  1.0000
  C   C320      1.0  0.76891  0.71349  0.36213  1.0000
  H   H323      1.0  0.95031  0.75330  0.34680  1.0000
  C   C321      1.0  0.78838  0.66096  0.45403  1.0000
  C   C322      1.0  0.78067  0.67882  0.48643  1.0000
  H   H324      1.0  0.91718  0.56955  0.16345  1.0000
  C   C323      1.0  0.72652  0.64086  0.49127  1.0000
  C   C324      1.0  0.73364  0.62389  0.45824  1.0000
  C   C325      1.0  0.76450  0.63368  0.43980  1.0000
  C   C326      1.0  0.72475  0.68248  0.32135  1.0000
  H   H325      1.0  0.71551  0.60244  0.44726  1.0000
  H   H326      1.0  0.77010  0.61950  0.41504  1.0000
  C   C327      1.0  0.74233  0.74843  0.31492  1.0000
  S   S115      1.0  0.87779  0.52911  0.31918  1.0000
  H   H327      1.0  0.83929  0.54811  0.25223  1.0000
  C   C328      1.0  0.76742  0.78978  0.22184  1.0000
  C   C329      1.0  0.74369  0.76070  0.21149  1.0000
  C   C330      1.0  0.75033  0.72416  0.22215  1.0000
  C   C331      1.0  0.78055  0.71658  0.24344  1.0000
  C   C332      1.0  0.80443  0.74558  0.25366  1.0000
  C   C333      1.0  0.79788  0.78213  0.24280  1.0000
  H   H328      1.0  0.72013  0.76639  0.19544  1.0000
  H   H329      1.0  0.73181  0.70177  0.21416  1.0000
  H   H330      1.0  0.82783  0.73992  0.27001  1.0000
  H   H331      1.0  0.81636  0.80458  0.25074  1.0000
  H   H332      1.0  0.76574  0.86986  0.06054  1.0000
  S   S116      1.0  0.68432  0.80745  0.13341  1.0000
  H   H333      1.0  0.95974  0.63326  0.25412  1.0000
  H   H334      1.0  0.95468  0.55260  0.31626  1.0000
  C   C334      1.0  0.76266  0.78011  0.32552  1.0000
  C   C335      1.0  0.78651  0.77809  0.35498  1.0000
  C   C336      1.0  0.99157  0.72213  0.32442  1.0000
  Fe  Fe57      1.0  0.68407  0.85741  0.09658  1.0000
  Fe  Fe58      1.0  0.71167  0.84690  0.17349  1.0000
  H   H335      1.0  0.72431  0.75015  0.29159  1.0000
  C   C337      1.0  0.92748  0.57106  0.19114  1.0000
  H   H336      1.0  0.80585  0.79533  0.04014  1.0000
  H   H337      1.0  0.69636  0.98143  0.29353  1.0000
  C   C338      1.0  0.84912  0.52045  0.24946  1.0000
  H   H338      1.0  0.70114  0.67942  0.33802  1.0000
  H   H339      1.0  0.80283  0.80229  0.36313  1.0000
  H   H340      1.0  0.74052  0.65712  0.32391  1.0000
  C   C339      1.0  0.68000  0.99377  0.27260  1.0000
  H   H341      1.0  0.77167  0.68752  0.37657  1.0000
  H   H342      1.0  0.88146  0.63796  0.49766  1.0000
  C   C340      1.0  0.76469  0.86792  0.03140  1.0000
  N   N29       1.0  0.74615  0.71550  0.33275  1.0000
  C   C341      1.0  0.78946  0.74468  0.37367  1.0000
  C   C342      1.0  0.95130  0.60659  0.24234  1.0000
  H   H343      1.0  0.98844  0.81034  0.35751  1.0000
  C   C343      1.0  0.99947  0.78600  0.34583  1.0000
  H   H344      1.0  0.99279  0.58069  0.30299  1.0000
  H   H345      1.0  0.95214  0.60174  0.31403  1.0000
  H   H346      1.0  0.80794  0.74262  0.39662  1.0000
  C   C344      1.0  0.93890  0.60516  0.20632  1.0000
  H   H347      1.0  0.74690  0.77711  0.02210  1.0000
  C   C345      1.0  0.92908  0.53888  0.21188  1.0000
  C   C346      1.0  0.96357  0.57748  0.30084  1.0000
  H   H348      1.0  0.94184  0.51636  0.26404  1.0000
  H   H349      1.0  0.83285  0.59705  0.48484  1.0000
  H   H350      1.0  0.82875  0.75616  0.02297  1.0000
  H   H351      1.0  0.77852  0.56338  0.50351  1.0000
  H   H352      1.0  0.86109  0.67959  0.51109  1.0000
  C   C347      1.0  0.75009  0.66865  0.50512  1.0000
  H   H353      1.0  0.68425  0.94772  0.23557  1.0000
  H   H354      1.0  0.79872  0.70024  0.49753  1.0000
  C   C348      1.0  0.82240  0.60311  0.51096  1.0000
  H   H355      1.0  0.82108  0.87612  0.02676  1.0000
  S   S117      1.0  0.68842  0.62586  0.51449  1.0000
  Fe  Fe59      1.0  0.83971  0.88792  0.81410  1.0000
  S   S118      1.0  0.88321  0.88558  0.85734  1.0000
  S   S119      1.0  0.81963  0.93191  0.77463  1.0000
  Fe  Fe60      1.0  0.81350  0.80813  0.82947  1.0000
  S   S120      1.0  0.85487  0.79912  0.87319  1.0000
  S   S121      1.0  0.76727  0.76816  0.81688  1.0000
  Fe  Fe61      1.0  0.84211  0.85668  0.89162  1.0000
  S   S122      1.0  0.83614  0.86726  0.95190  1.0000
  Fe  Fe62      1.0  0.89265  0.82787  0.83607  1.0000
  S   S123      1.0  0.94581  0.80771  0.81784  1.0000
  S   S124      1.0  0.79843  0.86351  0.85023  1.0000
  S   S125      1.0  0.85168  0.83240  0.79068  1.0000
  S   S126      1.0  0.70591  0.60581  0.61602  1.0000
  C   C349      1.0  0.00163  0.74264  0.88805  1.0000
  C   C350      1.0  0.71127  0.80817  0.73326  1.0000
  S   S127      1.0  0.68510  0.69352  0.60183  1.0000
  C   C351      1.0  0.76748  0.74282  0.77625  1.0000
  C   C352      1.0  0.73679  0.72271  0.76447  1.0000
  C   C353      1.0  0.73560  0.70358  0.73139  1.0000
  C   C354      1.0  0.76522  0.70416  0.71005  1.0000
  C   C355      1.0  0.79612  0.72381  0.72211  1.0000
  C   C356      1.0  0.79722  0.74325  0.75508  1.0000
  H   H356      1.0  0.71377  0.72219  0.78082  1.0000
  H   H357      1.0  0.71178  0.68841  0.72247  1.0000
  H   H358      1.0  0.81922  0.72419  0.70585  1.0000
  H   H359      1.0  0.82117  0.75826  0.76419  1.0000
  H   H360      1.0  0.74479  0.68219  0.53031  1.0000
  C   C357      1.0  0.73141  0.85905  0.97503  1.0000
  C   C358      1.0  0.76282  0.86200  0.95583  1.0000
  C   C359      1.0  0.79544  0.86764  0.97434  1.0000
  C   C360      1.0  0.73218  0.86120  0.01295  1.0000
  H   H361      1.0  0.72995  0.75942  0.64365  1.0000
  H   H362      1.0  0.70641  0.85412  0.96044  1.0000
  H   H363      1.0  0.76182  0.85927  0.92677  1.0000
  H   H364      1.0  0.76830  0.86529  0.73043  1.0000
  H   H365      1.0  0.99809  0.76409  0.78594  1.0000
  C   C361      1.0  0.97497  0.76517  0.87341  1.0000
  C   C362      1.0  0.97389  0.77362  0.83659  1.0000
  C   C363      1.0  0.79293  0.62081  0.57580  1.0000
  H   H366      1.0  0.77022  0.83261  0.76725  1.0000
  H   H367      1.0  0.95617  0.77716  0.89083  1.0000
  H   H368      1.0  0.75231  0.57911  0.56145  1.0000
  H   H369      1.0  0.79962  0.98416  0.72010  1.0000
  C   C364      1.0  0.87593  0.98358  0.77107  1.0000
  C   C365      1.0  0.84239  0.97179  0.75762  1.0000
  H   H370      1.0  0.82785  0.77774  0.94562  1.0000
  H   H371      1.0  0.88916  0.96754  0.79179  1.0000
  H   H372      1.0  0.71950  0.76300  0.90941  1.0000
  H   H373      1.0  0.70622  0.82109  0.75891  1.0000
  H   H374      1.0  0.77653  0.79806  0.67571  1.0000
  C   C366      1.0  0.82361  0.63945  0.56458  1.0000
  Fe  Fe63      1.0  0.71059  0.66022  0.64595  1.0000
  H   H375      1.0  0.83543  0.66166  0.58139  1.0000
  C   C367      1.0  0.72916  0.76877  0.96696  1.0000
  C   C368      1.0  0.72421  0.77370  0.66843  1.0000
  H   H376      1.0  0.78133  0.62855  0.60096  1.0000
  C   C369      1.0  0.67977  0.52005  0.71164  1.0000
  C   C370      1.0  0.75053  0.79543  0.68684  1.0000
  C   C371      1.0  0.99877  0.75789  0.81446  1.0000
  C   C372      1.0  0.77495  0.76916  0.92358  1.0000
  C   C373      1.0  0.77145  0.83558  0.73749  1.0000
  H   H377      1.0  0.79826  0.82748  0.73023  1.0000
  H   H378      1.0  0.70143  0.76775  0.97327  1.0000
  C   C374      1.0  0.79605  0.87141  0.01215  1.0000
  N   N30       1.0  0.83802  0.63040  0.53259  1.0000
  N   N31       1.0  0.74391  0.81212  0.71894  1.0000
  C   C375      1.0  0.82556  0.99306  0.73070  1.0000
  S   S128      1.0  0.76384  0.68202  0.66757  1.0000
  H   H379      1.0  0.00217  0.86236  0.86611  1.0000
  C   C376      1.0  0.77682  0.59298  0.55386  1.0000
  H   H380      1.0  0.69545  0.54440  0.70425  1.0000
  N   N32       1.0  0.79005  0.77748  0.98669  1.0000
  C   C377      1.0  0.68426  0.78680  0.71544  1.0000
  H   H381      1.0  0.78297  0.76768  0.89584  1.0000
  C   C378      1.0  0.80017  0.77466  0.95181  1.0000
  C   C379      1.0  0.73924  0.76641  0.93125  1.0000
  H   H382      1.0  0.00290  0.73727  0.91674  1.0000
  C   C380      1.0  0.69086  0.76946  0.68283  1.0000
  H   H383      1.0  0.88933  0.65519  0.54290  1.0000
  H   H384      1.0  0.83831  0.80295  0.00714  1.0000
  C   C381      1.0  0.75509  0.77413  0.99455  1.0000
  Fe  Fe64      1.0  0.67727  0.63842  0.57334  1.0000
  C   C382      1.0  0.79163  0.58399  0.52130  1.0000
  C   C383      1.0  0.86908  0.65178  0.52059  1.0000
  C   C384      1.0  0.81706  0.78305  0.01574  1.0000
