data_image0
_chemical_formula_structural       CH2FeS3FeS2FeS2FeSFeS3HFeS3FeSFeS2HCHC3HC7H2CH2CSHC2HC3SHSHC6H4FeC3H2C6HCH2C3HSH3CNC5SCH3CSHCNFeNC6H8FeHCH2SCHC2H2CHCSHFeC2HC2HC2H2C3SH2CNH3C2HCHCH2CH2CHC3HC4HC3FeSH2CHSH2CHC2HCNHCH5CH2CH4NH2CH5CH4CNH2CH2CNCH4FeS2FeS2FeSFeS3FeSCFeS2FeSFeS3H3S2CH3CHCHSC2SCFeSFeSFeH2FeCSH2FeHSCFeHS2CH2NH3CH3C2NH2S2H9CHCHCSC2SH3C2H2C6H4C6H4C6H4C7HCHC6H2NC6H8CSHFe2CH3C2NC6H2CH5CH4FeH2CHSHCH2CNHC2NCSHNC5H5C3HCHCH2SH2N2SC2SC2HCHC2SCHSC3H2FeHC2H2SC2NHFeSFeSFeS2HFeSCFeS2HFeS3CS2FeSFeSFeSFeCS2CFeS2Fe2S3H5C3H4SC2H3C6H4C4H2C6H4C6H4C6H4FeHFeH2CHC4H4C4HCHC6SCH4C5H5C3HS2CSHSCNFeSCSFeHNC2SHCH2NC6H8SFeCNC6HCH10CHC4H2C2HNCH2C3HFeCSC3H2CH3C2SCHCSHCSHNC2H3CFeCHCHCH3CHCHS2CFeH2CSCH2CH2S2C3NC2H2NH3N2H4CHC3H3CH2SHCSC2H4CH2CH2CH2CH2CHC2SCFeS2FeS2FeSFeS3FeS2FeS2FeS2FeS2FeSFeS3HSHCSC6FeCH4C6H4C6H4C6H4C6H5CFeHC2H2C2NHCHC5H6SNC6H4CH4CSCHCHC4HCH2SC2FeCHC3HSCNC3HCH2NHFeCHC2H3NC3H3FeHCSCH2CHFeCH2S2CNC6H9CH3CNHNCSHCNHC2SH2CH3NH4CH2CH3CHCH2SC2H2C2HC2SH6C2HCHSH3SCHSNCHFeS2FeS2FeSFeS3FeS2FeS2FeSFeS5C3FeH3C6H4C6H4C6H4CSC3HCH2SHCHC2HC6H4CNCSNC6H8NC3HCH3CH3CHCHCHCHC3H5CH2C2FeHCHNCH3C7HCHSFeHCHCHCH5C3H2SHN2H2C2FeC2HCHCH3CSH2FeHC5H3C2NHC2H3C2H3CSH2CNHCHNSFeS2FeS2Fe2S3HCHSFeS2FeS2FeSFeS3FeS2NSFeSFeS2HFeS2HSHFeSFeS2C5H2C6H5C6H4C6H4C6H4C6H4C3H2CHCNCSHC4H5CHCHC2HC3SH2N2CFeHFeCHCHCH5CNC6H8NC6H8S2H2CH2CSFeHC2SH4CHC2H4C2HCH2S2H2SCFeC2H3C2SCH2CHCHNCHCFeS2HCHCHC3SH2C2HS2HSFeH7C2HC5FeNHCHCFeC2NC2HCH2CHC2H2C2H2C3HCHCH2C2HCH3FeSFeSHFeHSHCNHSH3FeS2FeS2FeSFeS3H3SFeS2FeS2FeSFeS3HFeS2FeCSFeSNCS2HNCSCHC6HC4H4C2SCH2C4H2C3HNH2C8H4C6H4C6H6NCH2C2H3CH2C7H4C6H2NC6H8NC5H5FeHCNC6H10CHCHCHCH3CNH5CNCH2CHC3HC2HCSHC2HC2HSCSHCSC3SHS2CH2C2HFeHSHFeC2SNH6SFeCHCHFe2S2NC2HCH3FeS2H2FeC2SCH2CHSH2C8H2FeH8NC4HC6H2SCHFeHFeCS3H3C2H2C6HC6HCSH3CH2CSH2C3FeSHSCHSCHC2Fe2S2FeSFeS3C3H2FeS2FeS2FeSFeS3H2C2HSH2FeSNCSH5C6H4C6H4C6H4CSHC2SC6H4C4SCH2CHC3SH2SNC5FeH5NC2HCHCHCH3C3HC2H3CFeS2C2HCFeH2CS2NCH3NCH2CHCHC2HFeC2HCHSHNFeHC2HC2SH2NSCHCH4C7FeH2CH2SHCNH2CHCHSHFeHCHCHCH2CSH8FeCSCHCH2FeSHS2HS2FeCH2CFe2S2FeS2FeSFeS3HCFe2S2FeS2HCFeSHCSNC4SCH3SHC10H4C6H4C2HC3HCH2CHCSHCHC2FeSHCHC6H4CHC4SH2CHCH2SHCHNC2H2FeNC6H9CHSH2C2H4C2H2CH5C5HCHC4H2FeCH4NHC3HNCH3FeCH2SHCHC2H3CH3S2HSC3HCNCFeCHSC4HCSC2HCH2C4HSHFeS3HFeHSFeS2FeS2FeCFeCS2H3NSCH2C2HCHC4HFeH2C2HCH2FeHC2SH2NCHC6H4C3HCHCH3SHCFeC2SC2Fe2CSCHNC2FeCHCH8NC2NCHSCHCHCH3NH4SCH3C2HSCHCHCHS3HSCHFeS2FeCSCHCSFeS2FeS2FeSFeS3H2FeS2CNFe2S2NSCHSH3C3HFeSHCH3C2HCH3SC7H4C6H4C2HNC2HNH2CH2Fe2HNHC5SH2FeC6H4C6H3C6H4S2HC2H2C4HSC2H2CH2CFeC4FeH7C2HCH4SHCH2C2HC2H2CSNC6H5SNFeH4CFeCSHCHFeH2C3H3C2HFeS2NFeS2CFeS2FeS2FeSFeS3CNSH2S2Fe2S2HSC4H2CH2SHNCHCSHCFe2HNH2C6H4C6H2C3H2C3SFeH2C6H4C6H4C6H4SH5CHC4NHC2H2C4H2CHCSC2HCH2FeHCHC2SHNHCNFeC2FeH3CHC3H4C2HSHC3SNC6H8C2HC4HSH3CFeHCH2C4SCSH2CH2CHCNC2SHCHC2H5CHC3H2CHSFeSH3C2FeCH3CHCHFeNHC2SH4NH2SHFeS2FeS2FeSFeS3FeSHFeS2FeSFeS3CSC2HCFeSC2H2NHSCSH3CSC2H3C5HSC6H4C6H4C6H6CH2FeH4C8H6NC5HCH3NCNCHC4H2CHCH5C4H4C4H3NFeH4CH2NC2NC3HC2H8CHCHCFeCH3SHCH2SC2SC3HS2H2SHCSNHC5HC2H3C2H3CHCFeH2S2FeS2FeSFeS2FeS2FeS2FeHC2S2FeSHSFeS2FeSFeSFeS2FeS2FeSFeS3CS2CS2H3CFeSC6H2CHC6H4C6H3C7H3C7H3C6H4C3H2C2HNCHFeSFeC2HC2HSC2H2C2HCHCSHC6H2C2HC2HCNHCH4CH4CH2FeH2CH19FeCS2HFeHS2HC3HNFeHC2HSC2NCSCH6CHCH2CNHNC6H3SH3NCSCH3NC6H7SHFeHCH2CHCHFeCHCH2CH5SC2H3FeS2FeS2FeSFeS3C3NCH2CFeS2H2FeS3FeS2CFeSFeSC2HC4H2NH2C7H5C3NC3HCH3C6H4C6H4C4HCH4C2NC5HCSH2C2NC2HC3H3CH4SC7H3CH2CFeCHCHSCH2CHCHCH4FeH7CSNCNC6H2NH5CH3CSC3H4CH2SC4HC2SHC2HC2SHCFeSH2FeH2CSHC2HC2H2CNSCSH4CHFeS2FeS2FeSFeS4HFe2SFeHSCH3S2HSC3HCSCSFeHSH5C2H3C3HCH3CFeH2S2HFeCHFeC2HNHC4FeH4C2H2CFeCSCHCHC2HSNCSC6H4C6H4C6H4C6H4C2NC6H9S2H3CH2CFe2HSHCNH2NHCNCHC2H2CHCSC4SH4C3SH3C2NHC2SCSHFeNC6H4CSH4CSCHFeH2SCHFeSHCSC2SCHSFeS2Fe2S2FeS2FeS2FeSFeS3NH2NCNC4HCFeS2FeSH2SFeS3FeS2FeS2FeS3HC7HCH3CH2FeC2H2C6H5C3H2C6H4C6H4SC3HCSHC6HCH4CHCH4SC2H2C6H3C6H6CHCH6FeCN2CH3CHCNC2HCHCH2CH5CSH2CHC2HCNH4SH2CFeHCH3NCH2C7H3C2H2CHC2HFeHC2H4SHSCSHNC6H8CNFeH2S2NSCFeSHCHCH4FeC2NHC3H2CH3NHC2HCHC2H3SH2C3H2C3HC2FeS2CHCSHNHCFeS2FeS2FeSFeS3CFeS2FeS2HCSC4HCSCHS3C5HFeC6H4C6H4FeH2C5HCH2C8H10SH3FeHFeH2C3HSH2C3HSCFeCHC4NC2HCFeSCHNC6H9C3HNHFeHCH3NHSC2SHNC2H6CSH2CFeHC3H2CH2CH3SFeCSHCFe2SCSCFeS2FeSNFeSFeSCS2C2FeS2HC2SCHCH3CSH3C2FeCH2S3H3C3NH2FeC4HC6H7CHC4HC6HFeH3C4SH4CH2C2SCHNC7NCH3CH2SCNHC2H2CH3CH4SH4CHFeS2CSC5HC2HFeS2FeS2FeSFeS3FeHSHNFeS2H4FeS2FeSHFeSFeS2FeSHFeSNFeSFeS2HSFeC6S2H2C6H4C4H3C2HC2S2HC3H3C6H4C6H6C7H6C2SCH4C6H4CHC3FeCH2CNC6H4CH3NC6H8SH2SC2SH2CH2CH2C2H2C2H2FeNCNH2CH4CHCH2NC2HSHCS2FeS2FeSFeHCSHCSH3FeSHFeS2FeSFeS3FeSCFeSHFeSFeSHSH3CH2CH5C3NC3H2CNFeC6H8CHC10H3C7N2H2CFeH2C2H4C5HC3HC6HC2HCNHCH3NH3SH2CHSCHCHCSCHSC2HCHCH3CHSCHCHSC2HSHNC6H2FeCHCS2CHC2FeHSC2H8CH2CHSHSCSCFeC6H2C4H2NH2C2H2CHCSHCH5CH2S4FeNH2C2H4CHSH2FeS3C2NCH2CHC3HSC2FeSCSC2HC2FeHC3H2C6H5C3HCFe2CH2SHSCHCH2C2H2CHFeNH2C3HSCHC2HFeH2CSHFeS2HFeCSC2H2SFeSHS2FeS2FeS2FeSFeS3CFeS2FeHSFe2S3FeHSNCHC2SC2HCHC6H4CSC5H3C6H4C6H3C6H7CNCHFeSC6H7FeCH2NCH3C2FeC2H2CH4CNC6H8NC6H11CHCHCHC3SC2HSCH2SHSHCH2NFeHSFeHCNC2H2C3SHC3H3S2FeC2NC2H3CHCH2C2SNHC2HC2FeSCHC2H3CHSCH7C3SHSCH2
_chemical_formula_sum              "C2304 H2304 Fe384 S768 N192"
_cell_length_a       74.7109
_cell_length_b       73.8628
_cell_length_c       74.6097
_cell_angle_alpha    74.5091
_cell_angle_beta     74.8512
_cell_angle_gamma    74.8402

_space_group_name_H-M_alt    "P 1"
_space_group_IT_number       1

loop_
  _space_group_symop_operation_xyz
  'x, y, z'

loop_
  _atom_site_type_symbol
  _atom_site_label
  _atom_site_symmetry_multiplicity
  _atom_site_fract_x
  _atom_site_fract_y
  _atom_site_fract_z
  _atom_site_occupancy
  C   C1        1.0  0.19342  0.14962  0.25981  1.0000
  H   H1        1.0  0.06588  0.30886  0.23898  1.0000
  H   H2        1.0  0.10821  0.38817  0.09900  1.0000
  Fe  Fe1       1.0  0.13844  0.44649  0.20686  1.0000
  S   S1        1.0  0.11092  0.43715  0.22141  1.0000
  S   S2        1.0  0.03800  0.37863  0.22129  1.0000
  S   S3        1.0  0.16535  0.42426  0.20476  1.0000
  Fe  Fe2       1.0  0.18125  0.33488  0.10278  1.0000
  S   S4        1.0  0.18315  0.36298  0.08207  1.0000
  S   S5        1.0  0.20202  0.31514  0.11986  1.0000
  Fe  Fe3       1.0  0.14214  0.33521  0.09819  1.0000
  S   S6        1.0  0.14021  0.36343  0.07738  1.0000
  S   S7        1.0  0.12097  0.31656  0.10499  1.0000
  Fe  Fe4       1.0  0.17018  0.35163  0.06417  1.0000
  S   S8        1.0  0.18160  0.35126  0.03291  1.0000
  Fe  Fe5       1.0  0.15301  0.37222  0.09708  1.0000
  S   S9        1.0  0.13934  0.39946  0.10779  1.0000
  S   S10       1.0  0.17119  0.32272  0.08373  1.0000
  S   S11       1.0  0.15216  0.34488  0.11905  1.0000
  H   H3        1.0  0.10739  0.41810  0.16438  1.0000
  Fe  Fe6       1.0  0.06034  0.37466  0.19500  1.0000
  S   S12       1.0  0.07376  0.34442  0.20715  1.0000
  S   S13       1.0  0.07974  0.39439  0.17675  1.0000
  S   S14       1.0  0.03038  0.33646  0.22204  1.0000
  Fe  Fe7       1.0  0.04998  0.34763  0.23243  1.0000
  S   S15       1.0  0.05306  0.33658  0.26277  1.0000
  Fe  Fe8       1.0  0.05291  0.33628  0.19556  1.0000
  S   S16       1.0  0.05806  0.31252  0.18036  1.0000
  S   S17       1.0  0.04131  0.36613  0.18124  1.0000
  H   H4        1.0  0.20921  0.48083  0.12609  1.0000
  C   C2        1.0  0.15329  0.05107  0.29462  1.0000
  H   H5        1.0  0.21932  0.25181  0.12758  1.0000
  C   C3        1.0  0.20025  0.44782  0.24649  1.0000
  C   C4        1.0  0.07595  0.35956  0.11576  1.0000
  C   C5        1.0  0.23741  0.29382  0.11080  1.0000
  H   H6        1.0  0.07249  0.27334  0.24670  1.0000
  C   C6        1.0  0.01347  0.30306  0.27323  1.0000
  C   C7        1.0  0.10209  0.20083  0.28182  1.0000
  C   C8        1.0  0.15448  0.47094  0.11964  1.0000
  C   C9        1.0  0.08642  0.19588  0.27894  1.0000
  C   C10       1.0  0.09613  0.38246  0.10806  1.0000
  C   C11       1.0  0.17337  0.41696  0.14087  1.0000
  C   C12       1.0  0.07107  0.38247  0.13525  1.0000
  H   H7        1.0  0.10050  0.21425  0.28600  1.0000
  H   H8        1.0  0.14029  0.35972  0.04047  1.0000
  C   C13       1.0  0.05797  0.31141  0.26825  1.0000
  H   H9        1.0  0.23662  0.16126  0.24995  1.0000
  H   H10       1.0  0.22630  0.44674  0.27819  1.0000
  C   C14       1.0  0.06490  0.27114  0.27701  1.0000
  S   S18       1.0  0.14353  0.99757  0.25982  1.0000
  H   H11       1.0  0.16666  0.30153  0.14034  1.0000
  C   C15       1.0  0.16503  0.35286  0.01906  1.0000
  C   C16       1.0  0.14551  0.35733  0.02623  1.0000
  H   H12       1.0  0.12016  0.43456  0.18172  1.0000
  C   C17       1.0  0.13904  0.35594  0.99627  1.0000
  C   C18       1.0  0.20313  0.25237  0.10738  1.0000
  C   C19       1.0  0.17151  0.34984  0.00042  1.0000
  S   S19       1.0  0.14985  0.46574  0.21797  1.0000
  H   H13       1.0  0.18289  0.14882  0.25264  1.0000
  S   S20       1.0  0.18727  0.42496  0.15170  1.0000
  H   H14       1.0  0.18657  0.34662  0.99471  1.0000
  C   C20       1.0  0.10457  0.31523  0.12671  1.0000
  C   C21       1.0  0.09199  0.30293  0.13077  1.0000
  C   C22       1.0  0.07804  0.30199  0.14745  1.0000
  C   C23       1.0  0.07639  0.31354  0.16011  1.0000
  C   C24       1.0  0.08905  0.32584  0.15622  1.0000
  C   C25       1.0  0.10331  0.32655  0.13956  1.0000
  H   H15       1.0  0.09292  0.29417  0.12088  1.0000
  H   H16       1.0  0.06834  0.29245  0.15042  1.0000
  H   H17       1.0  0.08780  0.33480  0.16600  1.0000
  H   H18       1.0  0.11292  0.33618  0.13645  1.0000
  Fe  Fe9       1.0  0.02020  0.36711  0.20862  1.0000
  C   C26       1.0  0.15393  0.42459  0.14248  1.0000
  C   C27       1.0  0.14360  0.41931  0.13212  1.0000
  C   C28       1.0  0.15250  0.40585  0.12069  1.0000
  H   H19       1.0  0.14698  0.43497  0.15125  1.0000
  H   H20       1.0  0.12868  0.42563  0.13297  1.0000
  C   C29       1.0  0.10133  0.42671  0.20843  1.0000
  C   C30       1.0  0.10877  0.42715  0.18908  1.0000
  C   C31       1.0  0.10156  0.41777  0.17930  1.0000
  C   C32       1.0  0.08716  0.40761  0.18888  1.0000
  C   C33       1.0  0.07956  0.40738  0.20814  1.0000
  C   C34       1.0  0.08652  0.41707  0.21784  1.0000
  H   H21       1.0  0.07239  0.34734  0.11302  1.0000
  C   C35       1.0  0.99287  0.30448  0.17480  1.0000
  H   H22       1.0  0.06844  0.39963  0.21566  1.0000
  H   H23       1.0  0.08068  0.41672  0.23279  1.0000
  C   C36       1.0  0.15856  0.35121  0.98912  1.0000
  C   C37       1.0  0.08859  0.17855  0.27369  1.0000
  C   C38       1.0  0.20772  0.47193  0.26594  1.0000
  H   H24       1.0  0.07941  0.41451  0.13597  1.0000
  S   S21       1.0  0.14474  0.46193  0.17641  1.0000
  H   H25       1.0  0.19452  0.27544  0.14336  1.0000
  H   H26       1.0  0.10803  0.15286  0.26743  1.0000
  H   H27       1.0  0.17737  0.00675  0.23357  1.0000
  C   C39       1.0  0.06387  0.30125  0.25367  1.0000
  N   N1        1.0  0.12182  0.17150  0.27394  1.0000
  C   C40       1.0  0.00843  0.30936  0.17811  1.0000
  C   C41       1.0  0.20463  0.14477  0.28876  1.0000
  C   C42       1.0  0.12963  0.03341  0.29662  1.0000
  C   C43       1.0  0.19125  0.46722  0.24385  1.0000
  C   C44       1.0  0.01088  0.32077  0.27802  1.0000
  S   S22       1.0  0.12236  0.35893  0.98216  1.0000
  C   C45       1.0  0.22555  0.31191  0.10732  1.0000
  H   H28       1.0  0.15889  0.27937  0.10568  1.0000
  H   H29       1.0  0.23365  0.20305  0.14534  1.0000
  H   H30       1.0  0.22363  0.34122  0.09176  1.0000
  C   C46       1.0  0.01316  0.26870  0.28177  1.0000
  S   S23       1.0  0.12324  0.11735  0.29940  1.0000
  H   H31       1.0  0.15187  0.28381  0.14795  1.0000
  C   C47       1.0  0.17176  0.39771  0.11965  1.0000
  N   N2        1.0  0.08590  0.39006  0.12341  1.0000
  Fe  Fe10      1.0  0.17257  0.44100  0.17507  1.0000
  N   N3        1.0  0.13298  0.37591  0.18652  1.0000
  C   C48       1.0  0.11883  0.36660  0.19725  1.0000
  C   C49       1.0  0.14062  0.38607  0.19444  1.0000
  C   C50       1.0  0.11220  0.36702  0.21653  1.0000
  C   C51       1.0  0.13428  0.38682  0.21367  1.0000
  C   C52       1.0  0.11998  0.37724  0.22473  1.0000
  C   C53       1.0  0.13903  0.37590  0.16618  1.0000
  H   H32       1.0  0.11216  0.35932  0.19077  1.0000
  H   H33       1.0  0.15131  0.39410  0.18580  1.0000
  H   H34       1.0  0.10063  0.36006  0.22487  1.0000
  H   H35       1.0  0.13982  0.39544  0.21981  1.0000
  H   H36       1.0  0.11447  0.37834  0.23947  1.0000
  H   H37       1.0  0.12834  0.38612  0.15843  1.0000
  H   H38       1.0  0.15295  0.38019  0.16008  1.0000
  H   H39       1.0  0.14057  0.36137  0.16365  1.0000
  Fe  Fe11      1.0  0.23906  0.47538  0.29001  1.0000
  H   H40       1.0  0.18358  0.25601  0.08931  1.0000
  C   C54       1.0  0.00576  0.31896  0.19264  1.0000
  H   H41       1.0  0.07260  0.20540  0.28093  1.0000
  H   H42       1.0  0.22006  0.34926  0.03523  1.0000
  S   S24       1.0  0.19787  0.43278  0.23290  1.0000
  C   C55       1.0  0.11976  0.18835  0.27936  1.0000
  H   H43       1.0  0.19156  0.32036  0.97612  1.0000
  C   C56       1.0  0.14807  0.03645  0.28979  1.0000
  C   C57       1.0  0.18606  0.26018  0.10119  1.0000
  H   H44       1.0  0.19945  0.28489  0.98172  1.0000
  H   H45       1.0  0.01387  0.33329  0.26709  1.0000
  C   C58       1.0  0.23651  0.47741  0.21707  1.0000
  H   H46       1.0  0.15082  0.30150  0.12611  1.0000
  C   C59       1.0  0.13988  0.06253  0.30619  1.0000
  S   S25       1.0  0.02993  0.22031  0.30444  1.0000
  H   H47       1.0  0.15820  0.02747  0.28074  1.0000
  Fe  Fe12      1.0  0.15867  0.47931  0.18718  1.0000
  C   C60       1.0  0.22612  0.33867  0.04694  1.0000
  C   C61       1.0  0.19196  0.27105  0.13163  1.0000
  H   H48       1.0  0.14779  0.46286  0.11404  1.0000
  C   C62       1.0  0.20248  0.46853  0.12789  1.0000
  C   C63       1.0  0.05854  0.28127  0.29165  1.0000
  H   H49       1.0  0.01766  0.32312  0.19507  1.0000
  C   C64       1.0  0.22389  0.15634  0.25821  1.0000
  C   C65       1.0  0.16043  0.29201  0.13549  1.0000
  H   H50       1.0  0.11754  0.36280  0.02044  1.0000
  H   H51       1.0  0.05074  0.30927  0.29855  1.0000
  C   C66       1.0  0.13260  0.35908  0.01482  1.0000
  C   C67       1.0  0.08605  0.12786  0.29711  1.0000
  C   C68       1.0  0.09159  0.40566  0.12782  1.0000
  S   S26       1.0  0.06979  0.24598  0.28195  1.0000
  H   H52       1.0  0.14130  0.14772  0.26366  1.0000
  H   H53       1.0  0.02250  0.30591  0.16943  1.0000
  C   C69       1.0  0.23438  0.29325  0.03012  1.0000
  N   N4        1.0  0.00999  0.28721  0.28702  1.0000
  H   H54       1.0  0.09751  0.41534  0.11465  1.0000
  H   H55       1.0  0.01865  0.30203  0.25846  1.0000
  H   H56       1.0  0.08967  0.11847  0.28720  1.0000
  C   C70       1.0  0.17385  0.46527  0.11978  1.0000
  C   C71       1.0  0.06758  0.13864  0.30094  1.0000
  H   H57       1.0  0.21958  0.42545  0.26125  1.0000
  C   C72       1.0  0.17760  0.99173  0.23495  1.0000
  H   H58       1.0  0.19725  0.39751  0.12820  1.0000
  C   C73       1.0  0.05535  0.30142  0.28725  1.0000
  H   H59       1.0  0.07637  0.17436  0.27193  1.0000
  H   H60       1.0  0.21437  0.33598  0.05936  1.0000
  C   C74       1.0  0.21266  0.44046  0.25913  1.0000
  H   H61       1.0  0.23892  0.16788  0.15769  1.0000
  H   H62       1.0  0.17812  0.13902  0.28786  1.0000
  C   C75       1.0  0.19080  0.14398  0.27965  1.0000
  H   H63       1.0  0.13184  0.19221  0.28179  1.0000
  C   C76       1.0  0.09127  0.36715  0.10396  1.0000
  C   C77       1.0  0.14040  0.15846  0.27201  1.0000
  C   C78       1.0  0.06758  0.28114  0.25805  1.0000
  H   H64       1.0  0.05426  0.36093  0.14111  1.0000
  C   C79       1.0  0.21653  0.45251  0.26868  1.0000
  C   C80       1.0  0.22109  0.07312  0.27916  1.0000
  C   C81       1.0  0.00457  0.28830  0.30576  1.0000
  C   C82       1.0  0.21740  0.07215  0.29877  1.0000
  H   H65       1.0  0.18173  0.47299  0.23406  1.0000
  C   C83       1.0  0.10651  0.16647  0.27121  1.0000
  C   C84       1.0  0.18221  0.40347  0.12949  1.0000
  C   C85       1.0  0.23265  0.32709  0.09410  1.0000
  Fe  Fe13      1.0  0.17752  0.44482  0.21303  1.0000
  S   S27       1.0  0.21312  0.16262  0.22437  1.0000
  H   H66       1.0  0.21411  0.24210  0.10038  1.0000
  H   H67       1.0  0.23208  0.28213  0.12121  1.0000
  C   C86       1.0  0.06581  0.36718  0.13156  1.0000
  H   H68       1.0  0.09953  0.36087  0.09198  1.0000
  S   S28       1.0  0.18727  0.45980  0.18297  1.0000
  H   H69       1.0  0.06335  0.38815  0.14772  1.0000
  H   H70       1.0  0.10261  0.39952  0.13654  1.0000
  C   C87       1.0  0.20994  0.15580  0.24911  1.0000
  H   H71       1.0  0.17874  0.38730  0.11091  1.0000
  C   C88       1.0  0.17218  0.27337  0.11049  1.0000
  C   C89       1.0  0.23382  0.46152  0.21213  1.0000
  H   H72       1.0  0.15181  0.16658  0.26465  1.0000
  C   C90       1.0  0.20608  0.25779  0.12272  1.0000
  N   N5        1.0  0.17534  0.27876  0.12540  1.0000
  H   H73       1.0  0.05661  0.27361  0.30631  1.0000
  C   C91       1.0  0.22116  0.15098  0.27807  1.0000
  H   H74       1.0  0.18196  0.45266  0.11434  1.0000
  H   H75       1.0  0.14298  0.15050  0.28630  1.0000
  H   H76       1.0  0.23188  0.15158  0.28512  1.0000
  H   H77       1.0  0.15723  0.19817  0.98001  1.0000
  H   H78       1.0  0.00452  0.36710  0.17469  1.0000
  C   C92       1.0  0.23086  0.09940  0.29341  1.0000
  H   H79       1.0  0.99365  0.21884  0.30502  1.0000
  H   H80       1.0  0.01011  0.27062  0.26751  1.0000
  C   C93       1.0  0.19490  0.47923  0.25367  1.0000
  H   H81       1.0  0.02816  0.26119  0.28156  1.0000
  H   H82       1.0  0.21030  0.31539  0.03747  1.0000
  H   H83       1.0  0.21033  0.46062  0.11648  1.0000
  H   H84       1.0  0.99498  0.29725  0.16330  1.0000
  N   N6        1.0  0.18233  0.47510  0.12720  1.0000
  H   H85       1.0  0.00063  0.17275  0.30490  1.0000
  H   H86       1.0  0.00371  0.25947  0.29204  1.0000
  C   C94       1.0  0.22969  0.08763  0.26660  1.0000
  H   H87       1.0  0.21742  0.06264  0.27371  1.0000
  H   H88       1.0  0.22888  0.06892  0.18851  1.0000
  H   H89       1.0  0.98990  0.35896  0.15241  1.0000
  H   H90       1.0  0.16760  0.05354  0.28949  1.0000
  H   H91       1.0  0.05697  0.13755  0.29401  1.0000
  C   C95       1.0  0.23452  0.10092  0.27374  1.0000
  H   H92       1.0  0.23276  0.08852  0.25136  1.0000
  H   H93       1.0  0.23482  0.10972  0.29883  1.0000
  H   H94       1.0  0.00393  0.33558  0.30093  1.0000
  H   H95       1.0  0.12546  0.02212  0.29285  1.0000
  C   C96       1.0  0.22552  0.31037  0.03627  1.0000
  N   N7        1.0  0.23585  0.32071  0.04077  1.0000
  H   H96       1.0  0.23574  0.34521  0.05116  1.0000
  H   H97       1.0  0.20406  0.45862  0.14176  1.0000
  C   C97       1.0  0.00537  0.32203  0.29707  1.0000
  H   H98       1.0  0.22351  0.46326  0.20358  1.0000
  H   H99       1.0  0.22615  0.28497  0.02675  1.0000
  C   C98       1.0  0.09986  0.12948  0.30580  1.0000
  N   N8        1.0  0.22219  0.08529  0.30562  1.0000
  C   C99       1.0  0.23982  0.06188  0.19660  1.0000
  H   H100      1.0  0.23971  0.08736  0.20524  1.0000
  H   H101      1.0  0.23964  0.08889  0.14723  1.0000
  H   H102      1.0  0.20525  0.98641  0.21688  1.0000
  H   H103      1.0  0.21280  0.98612  0.14862  1.0000
  Fe  Fe14      1.0  0.15875  0.24778  0.42251  1.0000
  S   S29       1.0  0.16559  0.21900  0.44182  1.0000
  S   S30       1.0  0.17708  0.26968  0.40911  1.0000
  Fe  Fe15      1.0  0.12085  0.24169  0.41976  1.0000
  S   S31       1.0  0.12421  0.21254  0.43912  1.0000
  S   S32       1.0  0.09763  0.25679  0.40352  1.0000
  Fe  Fe16      1.0  0.13515  0.22606  0.45678  1.0000
  S   S33       1.0  0.12600  0.21833  0.48883  1.0000
  Fe  Fe17      1.0  0.15415  0.20806  0.42261  1.0000
  S   S34       1.0  0.17015  0.18165  0.41140  1.0000
  S   S35       1.0  0.12906  0.25578  0.43882  1.0000
  S   S36       1.0  0.15004  0.23620  0.40199  1.0000
  Fe  Fe18      1.0  0.14203  0.23091  0.61095  1.0000
  S   S37       1.0  0.14690  0.25333  0.62343  1.0000
  C   C100      1.0  0.07673  0.15270  0.32215  1.0000
  Fe  Fe19      1.0  0.14752  0.25453  0.57030  1.0000
  S   S38       1.0  0.15252  0.27884  0.57974  1.0000
  S   S39       1.0  0.15054  0.26203  0.53829  1.0000
  Fe  Fe20      1.0  0.17057  0.25653  0.59783  1.0000
  S   S40       1.0  0.19959  0.26103  0.59655  1.0000
  Fe  Fe21      1.0  0.12842  0.27366  0.60420  1.0000
  S   S41       1.0  0.10718  0.30001  0.61062  1.0000
  S   S42       1.0  0.16749  0.23221  0.58683  1.0000
  S   S43       1.0  0.12167  0.25126  0.59341  1.0000
  H   H104      1.0  0.20496  0.25673  0.46520  1.0000
  H   H105      1.0  0.20180  0.28532  0.55872  1.0000
  H   H106      1.0  0.11412  0.30904  0.56791  1.0000
  S   S44       1.0  0.20631  0.33966  0.61016  1.0000
  S   S45       1.0  0.02191  0.20207  0.35026  1.0000
  C   C101      1.0  0.19477  0.27279  0.53917  1.0000
  H   H107      1.0  0.14380  0.16951  0.35104  1.0000
  H   H108      1.0  0.00416  0.15120  0.32298  1.0000
  H   H109      1.0  0.00214  0.27565  0.31673  1.0000
  C   C102      1.0  0.15558  0.18978  0.35781  1.0000
  H   H110      1.0  0.07310  0.16210  0.33201  1.0000
  C   C103      1.0  0.19284  0.38520  0.62986  1.0000
  H   H111      1.0  0.11030  0.27420  0.54321  1.0000
  S   S46       1.0  0.17342  0.10636  0.35558  1.0000
  C   C104      1.0  0.00218  0.30571  0.31108  1.0000
  C   C105      1.0  0.21828  0.41737  0.40399  1.0000
  S   S47       1.0  0.13384  0.09922  0.34966  1.0000
  C   C106      1.0  0.22688  0.39537  0.43221  1.0000
  Fe  Fe22      1.0  0.14297  0.12193  0.35822  1.0000
  S   S48       1.0  0.12585  0.13702  0.38182  1.0000
  Fe  Fe23      1.0  0.16476  0.08555  0.34396  1.0000
  S   S49       1.0  0.17773  0.05424  0.34527  1.0000
  Fe  Fe24      1.0  0.17647  0.12380  0.32582  1.0000
  H   H112      1.0  0.10436  0.21888  0.36597  1.0000
  H   H113      1.0  0.15895  0.00058  0.33323  1.0000
  Fe  Fe25      1.0  0.04604  0.21457  0.35107  1.0000
  C   C107      1.0  0.21914  0.08348  0.32619  1.0000
  S   S50       1.0  0.05727  0.20513  0.37812  1.0000
  H   H114      1.0  0.21068  0.06085  0.30850  1.0000
  H   H115      1.0  0.23394  0.31559  0.49907  1.0000
  Fe  Fe26      1.0  0.04059  0.19333  0.32399  1.0000
  H   H116      1.0  0.18204  0.01978  0.33223  1.0000
  S   S51       1.0  0.23224  0.36542  0.38808  1.0000
  C   C108      1.0  0.16131  0.04044  0.34657  1.0000
  Fe  Fe27      1.0  0.23563  0.34618  0.60044  1.0000
  H   H117      1.0  0.10243  0.04226  0.31386  1.0000
  S   S52       1.0  0.04040  0.16615  0.31616  1.0000
  S   S53       1.0  0.06551  0.20360  0.32598  1.0000
  C   C109      1.0  0.15421  0.01321  0.33922  1.0000
  H   H118      1.0  0.18930  0.26372  0.51631  1.0000
  H   H119      1.0  0.09736  0.06390  0.33499  1.0000
  N   N9        1.0  0.21202  0.29959  0.51079  1.0000
  H   H120      1.0  0.23240  0.44127  0.39347  1.0000
  H   H121      1.0  0.13767  0.05797  0.36182  1.0000
  H   H122      1.0  0.22546  0.38231  0.44290  1.0000
  C   C110      1.0  0.07078  0.31290  0.62734  1.0000
  H   H123      1.0  0.16988  0.18119  0.35594  1.0000
  H   H124      1.0  0.07279  0.32678  0.61861  1.0000
  H   H125      1.0  0.21704  0.30919  0.53327  1.0000
  C   C111      1.0  0.10685  0.18579  0.35689  1.0000
  C   C112      1.0  0.14229  0.04570  0.35524  1.0000
  N   N10       1.0  0.23881  0.40640  0.43268  1.0000
  H   H126      1.0  0.21343  0.41459  0.59113  1.0000
  H   H127      1.0  0.16285  0.21144  0.36745  1.0000
  S   S54       1.0  0.03502  0.24380  0.33412  1.0000
  S   S55       1.0  0.13220  0.20464  0.63031  1.0000
  H   H128      1.0  0.09991  0.17912  0.37141  1.0000
  H   H129      1.0  0.06146  0.28234  0.60133  1.0000
  H   H130      1.0  0.99805  0.30646  0.32596  1.0000
  H   H131      1.0  0.22081  0.39743  0.35882  1.0000
  H   H132      1.0  0.12969  0.23051  0.37231  1.0000
  H   H133      1.0  0.23954  0.39978  0.46202  1.0000
  H   H134      1.0  0.21073  0.32826  0.49492  1.0000
  H   H135      1.0  0.10412  0.31712  0.54676  1.0000
  H   H136      1.0  0.09393  0.29576  0.41125  1.0000
  C   C113      1.0  0.21112  0.29912  0.52946  1.0000
  H   H137      1.0  0.22455  0.31017  0.48184  1.0000
  C   C114      1.0  0.16729  0.02405  0.33874  1.0000
  H   H138      1.0  0.08946  0.25082  0.55722  1.0000
  C   C115      1.0  0.21655  0.40059  0.41779  1.0000
  S   S56       1.0  0.11830  0.00558  0.34833  1.0000
  C   C116      1.0  0.08565  0.29688  0.62643  1.0000
  C   C117      1.0  0.09515  0.14164  0.31857  1.0000
  S   S57       1.0  0.10841  0.98663  0.30966  1.0000
  H   H139      1.0  0.06494  0.25462  0.58670  1.0000
  H   H140      1.0  0.22158  0.30227  0.41905  1.0000
  H   H141      1.0  0.21871  0.44122  0.60085  1.0000
  C   C118      1.0  0.20252  0.28569  0.54392  1.0000
  C   C119      1.0  0.06300  0.15135  0.31316  1.0000
  H   H142      1.0  0.22971  0.28148  0.58415  1.0000
  H   H143      1.0  0.14396  0.07399  0.30977  1.0000
  C   C120      1.0  0.13319  0.23025  0.50253  1.0000
  C   C121      1.0  0.12861  0.22505  0.52248  1.0000
  C   C122      1.0  0.13409  0.23443  0.53370  1.0000
  C   C123      1.0  0.14409  0.24915  0.52498  1.0000
  C   C124      1.0  0.14860  0.25437  0.50505  1.0000
  C   C125      1.0  0.14327  0.24490  0.49385  1.0000
  H   H144      1.0  0.12086  0.21369  0.52927  1.0000
  H   H145      1.0  0.13059  0.23028  0.54904  1.0000
  H   H146      1.0  0.15631  0.26576  0.49820  1.0000
  H   H147      1.0  0.14692  0.24898  0.47851  1.0000
  C   C126      1.0  0.15746  0.16916  0.40376  1.0000
  C   C127      1.0  0.13766  0.17382  0.40674  1.0000
  C   C128      1.0  0.12798  0.16334  0.40067  1.0000
  C   C129      1.0  0.13809  0.14860  0.39107  1.0000
  C   C130      1.0  0.15787  0.14402  0.38811  1.0000
  C   C131      1.0  0.16749  0.15410  0.39466  1.0000
  H   H148      1.0  0.12979  0.18545  0.41368  1.0000
  H   H149      1.0  0.11267  0.16702  0.40292  1.0000
  H   H150      1.0  0.16578  0.13267  0.38081  1.0000
  H   H151      1.0  0.18280  0.15041  0.39238  1.0000
  C   C132      1.0  0.08615  0.24243  0.39677  1.0000
  C   C133      1.0  0.07560  0.25063  0.38247  1.0000
  C   C134      1.0  0.06656  0.23938  0.37662  1.0000
  C   C135      1.0  0.06774  0.21996  0.38536  1.0000
  C   C136      1.0  0.07812  0.21182  0.39980  1.0000
  C   C137      1.0  0.08749  0.22296  0.40533  1.0000
  H   H152      1.0  0.07449  0.26570  0.37581  1.0000
  H   H153      1.0  0.05857  0.24574  0.36549  1.0000
  H   H154      1.0  0.07913  0.19676  0.40653  1.0000
  H   H155      1.0  0.09554  0.21652  0.41638  1.0000
  C   C138      1.0  0.08296  0.27894  0.63779  1.0000
  C   C139      1.0  0.20372  0.31901  0.60430  1.0000
  C   C140      1.0  0.18640  0.31295  0.61085  1.0000
  C   C141      1.0  0.18470  0.29551  0.60784  1.0000
  C   C142      1.0  0.20042  0.28398  0.59850  1.0000
  C   C143      1.0  0.21755  0.29027  0.59154  1.0000
  C   C144      1.0  0.21912  0.30781  0.59423  1.0000
  H   H156      1.0  0.17138  0.29077  0.61322  1.0000
  C   C145      1.0  0.20173  0.39163  0.61114  1.0000
  H   H157      1.0  0.23233  0.31252  0.58866  1.0000
  C   C146      1.0  0.21466  0.27987  0.44332  1.0000
  C   C147      1.0  0.21348  0.29112  0.42518  1.0000
  C   C148      1.0  0.20191  0.28779  0.41481  1.0000
  C   C149      1.0  0.19137  0.27335  0.42260  1.0000
  C   C150      1.0  0.19231  0.26229  0.44086  1.0000
  C   C151      1.0  0.20406  0.26548  0.45117  1.0000
  H   H158      1.0  0.20120  0.29639  0.40069  1.0000
  H   H159      1.0  0.18417  0.25115  0.44697  1.0000
  N   N11       1.0  0.12357  0.17045  0.47455  1.0000
  C   C152      1.0  0.14165  0.17238  0.47317  1.0000
  C   C153      1.0  0.12013  0.15988  0.46375  1.0000
  C   C154      1.0  0.15690  0.16311  0.46117  1.0000
  C   C155      1.0  0.13509  0.15023  0.45177  1.0000
  C   C156      1.0  0.15358  0.15178  0.45061  1.0000
  C   C157      1.0  0.10770  0.18078  0.48675  1.0000
  H   H160      1.0  0.14433  0.18138  0.48114  1.0000
  H   H161      1.0  0.10575  0.15898  0.46421  1.0000
  H   H162      1.0  0.17116  0.16509  0.45964  1.0000
  H   H163      1.0  0.13236  0.14206  0.44299  1.0000
  H   H164      1.0  0.16527  0.14488  0.44091  1.0000
  H   H165      1.0  0.11202  0.18194  0.49952  1.0000
  H   H166      1.0  0.10291  0.19559  0.47879  1.0000
  H   H167      1.0  0.09558  0.17336  0.49181  1.0000
  C   C158      1.0  0.13307  0.21736  0.36711  1.0000
  S   S58       1.0  0.22509  0.33877  0.44156  1.0000
  H   H168      1.0  0.20827  0.44552  0.62412  1.0000
  Fe  Fe28      1.0  0.14040  0.11655  0.32016  1.0000
  Fe  Fe29      1.0  0.01278  0.23000  0.33077  1.0000
  C   C159      1.0  0.19554  0.27354  0.52011  1.0000
  H   H169      1.0  0.11176  0.17456  0.34831  1.0000
  H   H170      1.0  0.09597  0.19729  0.35049  1.0000
  H   H171      1.0  0.19356  0.45119  0.60675  1.0000
  C   C160      1.0  0.14076  0.18328  0.35493  1.0000
  C   C161      1.0  0.11869  0.21060  0.36374  1.0000
  N   N12       1.0  0.13631  0.30559  0.40925  1.0000
  C   C162      1.0  0.11811  0.30304  0.41644  1.0000
  C   C163      1.0  0.14501  0.30369  0.39107  1.0000
  C   C164      1.0  0.10815  0.29843  0.40536  1.0000
  C   C165      1.0  0.13550  0.29899  0.37964  1.0000
  C   C166      1.0  0.11695  0.29636  0.38687  1.0000
  C   C167      1.0  0.14666  0.30945  0.42157  1.0000
  H   H172      1.0  0.11138  0.30400  0.43100  1.0000
  H   H173      1.0  0.15966  0.30510  0.38554  1.0000
  C   C168      1.0  0.13516  0.01855  0.34781  1.0000
  H   H174      1.0  0.14265  0.29694  0.36546  1.0000
  H   H175      1.0  0.10953  0.29218  0.37839  1.0000
  H   H176      1.0  0.13835  0.32173  0.42814  1.0000
  H   H177      1.0  0.14957  0.29645  0.43292  1.0000
  H   H178      1.0  0.16061  0.31288  0.41360  1.0000
  C   C169      1.0  0.22070  0.31409  0.49594  1.0000
  H   H179      1.0  0.10574  0.14281  0.32546  1.0000
  H   H180      1.0  0.21645  0.09776  0.32980  1.0000
  H   H181      1.0  0.20449  0.28777  0.49125  1.0000
  H   H182      1.0  0.21068  0.42137  0.39249  1.0000
  Fe  Fe30      1.0  0.05283  0.23173  0.30900  1.0000
  H   H183      1.0  0.08225  0.30566  0.58645  1.0000
  H   H184      1.0  0.23177  0.07419  0.33153  1.0000
  C   C170      1.0  0.23046  0.42856  0.40457  1.0000
  H   H185      1.0  0.00167  0.17898  0.33932  1.0000
  S   S59       1.0  0.14664  0.14067  0.32888  1.0000
  H   H186      1.0  0.12450  0.29749  0.54837  1.0000
  C   C171      1.0  0.12929  0.03467  0.35603  1.0000
  H   H187      1.0  0.17435  0.32159  0.61854  1.0000
  H   H188      1.0  0.20657  0.07713  0.33385  1.0000
  C   C172      1.0  0.15162  0.20677  0.36426  1.0000
  N   N13       1.0  0.12255  0.19359  0.35809  1.0000
  H   H189      1.0  0.11463  0.03869  0.36297  1.0000
  C   C173      1.0  0.10787  0.07179  0.32464  1.0000
  C   C174      1.0  0.11075  0.30435  0.55639  1.0000
  N   N14       1.0  0.12189  0.05925  0.31305  1.0000
  C   C175      1.0  0.20416  0.28719  0.50601  1.0000
  S   S60       1.0  0.22974  0.28330  0.45610  1.0000
  H   H190      1.0  0.20767  0.39142  0.41702  1.0000
  N   N15       1.0  0.09791  0.29088  0.56441  1.0000
  C   C176      1.0  0.08395  0.29357  0.58008  1.0000
  C   C177      1.0  0.09955  0.27607  0.55591  1.0000
  C   C178      1.0  0.07199  0.28051  0.58843  1.0000
  C   C179      1.0  0.08772  0.26283  0.56375  1.0000
  C   C180      1.0  0.07398  0.26498  0.58024  1.0000
  H   H191      1.0  0.23733  0.39012  0.63308  1.0000
  H   H192      1.0  0.23132  0.25465  0.61871  1.0000
  H   H193      1.0  0.18959  0.37096  0.63426  1.0000
  H   H194      1.0  0.20525  0.38243  0.60102  1.0000
  H   H195      1.0  0.09442  0.26649  0.63712  1.0000
  C   C181      1.0  0.23281  0.39988  0.36273  1.0000
  C   C182      1.0  0.20611  0.40989  0.60562  1.0000
  C   C183      1.0  0.99327  0.16234  0.31621  1.0000
  H   H196      1.0  0.22638  0.36728  0.51522  1.0000
  C   C184      1.0  0.19258  0.41543  0.63674  1.0000
  H   H197      1.0  0.18802  0.26231  0.55024  1.0000
  C   C185      1.0  0.20565  0.44084  0.61220  1.0000
  H   H198      1.0  0.23123  0.42848  0.34515  1.0000
  H   H199      1.0  0.17194  0.20199  0.62998  1.0000
  S   S61       1.0  0.23535  0.35911  0.47814  1.0000
  H   H200      1.0  0.10045  0.08429  0.31530  1.0000
  H   H201      1.0  0.11477  0.07731  0.33301  1.0000
  N   N16       1.0  0.23295  0.27309  0.63553  1.0000
  N   N17       1.0  0.20159  0.42149  0.61840  1.0000
  S   S62       1.0  0.20178  0.13723  0.31346  1.0000
  C   C186      1.0  0.23872  0.41743  0.35496  1.0000
  C   C187      1.0  0.11664  0.04497  0.30835  1.0000
  S   S63       1.0  0.17071  0.10172  0.31390  1.0000
  C   C188      1.0  0.23972  0.40355  0.63404  1.0000
  C   C189      1.0  0.22525  0.25773  0.63314  1.0000
  H   H202      1.0  0.20960  0.26173  0.63451  1.0000
  C   C190      1.0  0.16692  0.19033  0.64076  1.0000
  H   H203      1.0  0.04183  0.32360  0.64003  1.0000
  C   C191      1.0  0.05326  0.31111  0.63949  1.0000
  C   C192      1.0  0.22107  0.28930  0.64060  1.0000
  S   S64       1.0  0.01079  0.26369  0.75792  1.0000
  C   C193      1.0  0.14748  0.03053  0.66466  1.0000
  H   H204      1.0  0.09688  0.19658  0.66253  1.0000
  S   S65       1.0  0.14932  0.46732  0.82276  1.0000
  C   C194      1.0  0.22537  0.12208  0.78704  1.0000
  C   C195      1.0  0.21396  0.28449  0.95276  1.0000
  C   C196      1.0  0.22271  0.10387  0.79749  1.0000
  H   H205      1.0  0.09820  0.18039  0.64765  1.0000
  H   H206      1.0  0.18476  0.35036  0.94195  1.0000
  Fe  Fe31      1.0  0.02840  0.26486  0.68872  1.0000
  H   H207      1.0  0.21053  0.07968  0.79999  1.0000
  C   C197      1.0  0.21897  0.29561  0.93465  1.0000
  C   C198      1.0  0.14230  0.00249  0.65676  1.0000
  H   H208      1.0  0.05400  0.29677  0.71471  1.0000
  H   H209      1.0  0.22624  0.28871  0.92281  1.0000
  S   S66       1.0  0.22128  0.10770  0.89047  1.0000
  C   C199      1.0  0.99362  0.30955  0.72723  1.0000
  C   C200      1.0  0.20586  0.44719  0.77811  1.0000
  N   N18       1.0  0.07733  0.17808  0.67349  1.0000
  H   H210      1.0  0.02237  0.30906  0.78883  1.0000
  Fe  Fe32      1.0  0.13961  0.44864  0.80951  1.0000
  S   S67       1.0  0.15265  0.44181  0.78074  1.0000
  Fe  Fe33      1.0  0.14312  0.44550  0.84974  1.0000
  S   S68       1.0  0.16177  0.43753  0.87099  1.0000
  Fe  Fe34      1.0  0.10653  0.44181  0.84208  1.0000
  S   S69       1.0  0.08337  0.42506  0.85575  1.0000
  S   S70       1.0  0.13645  0.42542  0.83579  1.0000
  H   H211      1.0  0.16970  0.47350  0.87638  1.0000
  Fe  Fe35      1.0  0.13991  0.30662  0.94423  1.0000
  S   S71       1.0  0.11241  0.32618  0.95375  1.0000
  C   C201      1.0  0.21417  0.31564  0.93183  1.0000
  Fe  Fe36      1.0  0.15877  0.33885  0.92061  1.0000
  S   S72       1.0  0.13319  0.36119  0.92790  1.0000
  S   S73       1.0  0.18521  0.34845  0.90316  1.0000
  H   H212      1.0  0.08327  0.13651  0.70634  1.0000
  Fe  Fe37      1.0  0.11706  0.34178  0.92321  1.0000
  S   S74       1.0  0.09398  0.35652  0.90682  1.0000
  S   S75       1.0  0.15794  0.32291  0.95079  1.0000
  S   S76       1.0  0.14307  0.32078  0.91321  1.0000
  C   C202      1.0  0.17919  0.17714  0.65194  1.0000
  S   S77       1.0  0.06959  0.33552  0.81103  1.0000
  S   S78       1.0  0.05559  0.39088  0.80084  1.0000
  Fe  Fe38      1.0  0.05328  0.32420  0.83985  1.0000
  S   S79       1.0  0.06937  0.30759  0.86293  1.0000
  Fe  Fe39      1.0  0.04998  0.32516  0.79968  1.0000
  S   S80       1.0  0.06196  0.31059  0.77487  1.0000
  Fe  Fe40      1.0  0.05289  0.22817  0.70576  1.0000
  S   S81       1.0  0.08284  0.21193  0.69795  1.0000
  Fe  Fe41      1.0  0.02221  0.25155  0.73141  1.0000
  C   C203      1.0  0.02854  0.29933  0.77927  1.0000
  S   S82       1.0  0.02934  0.22031  0.73016  1.0000
  S   S83       1.0  0.04753  0.25857  0.70908  1.0000
  C   C204      1.0  0.01725  0.28915  0.77506  1.0000
  Fe  Fe42      1.0  0.17776  0.09988  0.74391  1.0000
  S   S84       1.0  0.15425  0.08555  0.74510  1.0000
  S   S85       1.0  0.19312  0.08769  0.76837  1.0000
  Fe  Fe43      1.0  0.16837  0.08288  0.71527  1.0000
  Fe  Fe44      1.0  0.13966  0.11487  0.73181  1.0000
  S   S86       1.0  0.10869  0.12683  0.74190  1.0000
  S   S87       1.0  0.19283  0.09547  0.71478  1.0000
  S   S88       1.0  0.16182  0.12959  0.73334  1.0000
  H   H213      1.0  0.21136  0.44203  0.73290  1.0000
  H   H214      1.0  0.13021  0.41796  0.93059  1.0000
  H   H215      1.0  0.18034  0.44576  0.79964  1.0000
  H   H216      1.0  0.16972  0.98543  0.77026  1.0000
  H   H217      1.0  0.21118  0.07113  0.85962  1.0000
  C   C205      1.0  0.16933  0.22591  0.92819  1.0000
  C   C206      1.0  0.15484  0.00820  0.71251  1.0000
  C   C207      1.0  0.16720  0.02009  0.71114  1.0000
  H   H218      1.0  0.13678  0.47478  0.87464  1.0000
  H   H219      1.0  0.18223  0.01413  0.70987  1.0000
  H   H220      1.0  0.13223  0.03554  0.66803  1.0000
  H   H221      1.0  0.13544  0.06235  0.71267  1.0000
  S   S89       1.0  0.00243  0.26015  0.71115  1.0000
  C   C208      1.0  0.18152  0.02833  0.75628  1.0000
  C   C209      1.0  0.14085  0.04723  0.71276  1.0000
  H   H222      1.0  0.20866  0.35223  0.93045  1.0000
  H   H223      1.0  0.15321  0.05481  0.67159  1.0000
  H   H224      1.0  0.13228  0.99890  0.67048  1.0000
  C   C210      1.0  0.08966  0.18847  0.71080  1.0000
  C   C211      1.0  0.07771  0.18037  0.72708  1.0000
  C   C212      1.0  0.08368  0.16146  0.73681  1.0000
  C   C213      1.0  0.10165  0.15077  0.73040  1.0000
  C   C214      1.0  0.11365  0.15901  0.71430  1.0000
  C   C215      1.0  0.10756  0.17771  0.70441  1.0000
  H   H225      1.0  0.06389  0.18857  0.73214  1.0000
  H   H226      1.0  0.07437  0.15509  0.74930  1.0000
  H   H227      1.0  0.12751  0.15084  0.70933  1.0000
  H   H228      1.0  0.18914  0.42457  0.64693  1.0000
  C   C216      1.0  0.04774  0.29729  0.77065  1.0000
  C   C217      1.0  0.05564  0.28494  0.75796  1.0000
  C   C218      1.0  0.04443  0.27444  0.75410  1.0000
  C   C219      1.0  0.02520  0.27655  0.76261  1.0000
  H   H229      1.0  0.07053  0.28329  0.75134  1.0000
  H   H230      1.0  0.05078  0.26450  0.74478  1.0000
  C   C220      1.0  0.08616  0.34241  0.89598  1.0000
  C   C221      1.0  0.09238  0.32246  0.89916  1.0000
  C   C222      1.0  0.08669  0.31179  0.88936  1.0000
  C   C223      1.0  0.07508  0.32106  0.87613  1.0000
  C   C224      1.0  0.06885  0.34100  0.87306  1.0000
  C   C225      1.0  0.07421  0.35157  0.88312  1.0000
  H   H231      1.0  0.10158  0.31526  0.90910  1.0000
  H   H232      1.0  0.09155  0.29636  0.89179  1.0000
  H   H233      1.0  0.06008  0.34830  0.86281  1.0000
  H   H234      1.0  0.06940  0.36695  0.88068  1.0000
  C   C226      1.0  0.16855  0.41261  0.87894  1.0000
  C   C227      1.0  0.15723  0.40024  0.87884  1.0000
  C   C228      1.0  0.16238  0.38047  0.88618  1.0000
  C   C229      1.0  0.17912  0.37299  0.89312  1.0000
  C   C230      1.0  0.19063  0.38530  0.89281  1.0000
  C   C231      1.0  0.18519  0.40513  0.88602  1.0000
  H   H235      1.0  0.14434  0.40591  0.87347  1.0000
  H   H236      1.0  0.15352  0.37095  0.88631  1.0000
  H   H237      1.0  0.20357  0.37959  0.89814  1.0000
  H   H238      1.0  0.19399  0.41464  0.88607  1.0000
  C   C232      1.0  0.07549  0.41594  0.84033  1.0000
  C   C233      1.0  0.08033  0.42218  0.82061  1.0000
  C   C234      1.0  0.07410  0.41442  0.80862  1.0000
  C   C235      1.0  0.06354  0.39997  0.81624  1.0000
  C   C236      1.0  0.05896  0.39353  0.83596  1.0000
  C   C237      1.0  0.06456  0.40182  0.84796  1.0000
  H   H239      1.0  0.08875  0.43307  0.81457  1.0000
  H   H240      1.0  0.07768  0.41950  0.79337  1.0000
  H   H241      1.0  0.05083  0.38241  0.84199  1.0000
  H   H242      1.0  0.06059  0.39720  0.86320  1.0000
  Fe  Fe45      1.0  0.04702  0.36217  0.81191  1.0000
  H   H243      1.0  0.05185  0.32184  0.70302  1.0000
  Fe  Fe46      1.0  0.23539  0.45565  0.68168  1.0000
  H   H244      1.0  0.99713  0.29721  0.83602  1.0000
  H   H245      1.0  0.99504  0.40612  0.79008  1.0000
  C   C238      1.0  0.21454  0.44653  0.75917  1.0000
  H   H246      1.0  0.17208  0.24286  0.97182  1.0000
  C   C239      1.0  0.21762  0.13006  0.77070  1.0000
  C   C240      1.0  0.20732  0.11990  0.76491  1.0000
  C   C241      1.0  0.20476  0.10168  0.77548  1.0000
  C   C242      1.0  0.21245  0.09376  0.79177  1.0000
  H   H247      1.0  0.04939  0.14975  0.71871  1.0000
  H   H248      1.0  0.13414  0.01099  0.64571  1.0000
  H   H249      1.0  0.20153  0.12608  0.75223  1.0000
  H   H250      1.0  0.19351  0.98663  0.78648  1.0000
  C   C243      1.0  0.10347  0.41319  0.90230  1.0000
  C   C244      1.0  0.08399  0.38197  0.94803  1.0000
  C   C245      1.0  0.16032  0.03967  0.71094  1.0000
  C   C246      1.0  0.04512  0.30922  0.70675  1.0000
  H   H251      1.0  0.11355  0.04139  0.71426  1.0000
  C   C247      1.0  0.06544  0.27722  0.65033  1.0000
  H   H252      1.0  0.14892  0.14865  0.67957  1.0000
  C   C248      1.0  0.15405  0.16012  0.66875  1.0000
  C   C249      1.0  0.08606  0.16060  0.68253  1.0000
  C   C250      1.0  0.20766  0.24955  0.93299  1.0000
  C   C251      1.0  0.19816  0.26597  0.92214  1.0000
  C   C252      1.0  0.17927  0.27407  0.92920  1.0000
  C   C253      1.0  0.16977  0.26558  0.94700  1.0000
  S   S90       1.0  0.14585  0.27483  0.95542  1.0000
  C   C254      1.0  0.19825  0.24135  0.95095  1.0000
  H   H253      1.0  0.20539  0.27249  0.90828  1.0000
  H   H254      1.0  0.17199  0.28666  0.92069  1.0000
  H   H255      1.0  0.18875  0.05517  0.75512  1.0000
  H   H256      1.0  0.15882  0.19723  0.67900  1.0000
  C   C255      1.0  0.21775  0.14082  0.93547  1.0000
  C   C256      1.0  0.20625  0.12763  0.93863  1.0000
  C   C257      1.0  0.20732  0.11794  0.92453  1.0000
  C   C258      1.0  0.21982  0.12138  0.90702  1.0000
  C   C259      1.0  0.18824  0.39714  0.64280  1.0000
  H   H257      1.0  0.14034  0.23031  0.66785  1.0000
  H   H258      1.0  0.19661  0.12467  0.95218  1.0000
  H   H259      1.0  0.19849  0.10758  0.92728  1.0000
  H   H260      1.0  0.00352  0.27186  0.84623  1.0000
  H   H261      1.0  0.21356  0.44986  0.78725  1.0000
  C   C260      1.0  0.17691  0.44199  0.77318  1.0000
  C   C261      1.0  0.18586  0.44053  0.75448  1.0000
  C   C262      1.0  0.20462  0.44289  0.74744  1.0000
  H   H262      1.0  0.17811  0.43806  0.74526  1.0000
  S   S91       1.0  0.03556  0.31119  0.82851  1.0000
  S   S92       1.0  0.02863  0.35295  0.79790  1.0000
  C   C263      1.0  0.13556  0.01589  0.71305  1.0000
  S   S93       1.0  0.17681  0.05434  0.70638  1.0000
  H   H263      1.0  0.11673  0.18376  0.69167  1.0000
  S   S94       1.0  0.18762  0.14670  0.68110  1.0000
  C   C264      1.0  0.14823  0.18827  0.64354  1.0000
  N   N19       1.0  0.09533  0.39496  0.93411  1.0000
  Fe  Fe47      1.0  0.01156  0.22961  0.70793  1.0000
  S   S95       1.0  0.23149  0.24005  0.92420  1.0000
  C   C265      1.0  0.10826  0.40137  0.93960  1.0000
  S   S96       1.0  0.12056  0.00167  0.71160  1.0000
  Fe  Fe48      1.0  0.17486  0.12393  0.70407  1.0000
  H   H264      1.0  0.04485  0.30582  0.69315  1.0000
  N   N20       1.0  0.18271  0.00939  0.76513  1.0000
  C   C266      1.0  0.11946  0.41349  0.92640  1.0000
  C   C267      1.0  0.23013  0.14464  0.91781  1.0000
  S   S97       1.0  0.11295  0.46008  0.85835  1.0000
  H   H265      1.0  0.17301  0.23425  0.91390  1.0000
  C   C268      1.0  0.01343  0.41085  0.82441  1.0000
  H   H266      1.0  0.22944  0.06940  0.88168  1.0000
  H   H267      1.0  0.20585  0.29126  0.64235  1.0000
  N   N21       1.0  0.11426  0.36410  0.84941  1.0000
  C   C269      1.0  0.11926  0.34512  0.85767  1.0000
  C   C270      1.0  0.10635  0.36943  0.83370  1.0000
  C   C271      1.0  0.11627  0.33090  0.85025  1.0000
  C   C272      1.0  0.10291  0.35563  0.82606  1.0000
  C   C273      1.0  0.10781  0.33623  0.83449  1.0000
  C   C274      1.0  0.11599  0.37886  0.85828  1.0000
  H   H268      1.0  0.12493  0.34092  0.87051  1.0000
  H   H269      1.0  0.10241  0.38445  0.82714  1.0000
  H   H270      1.0  0.11963  0.31589  0.85720  1.0000
  H   H271      1.0  0.09613  0.36004  0.81391  1.0000
  H   H272      1.0  0.10468  0.32534  0.82915  1.0000
  H   H273      1.0  0.11823  0.39217  0.84753  1.0000
  H   H274      1.0  0.10273  0.38249  0.86881  1.0000
  H   H275      1.0  0.12810  0.37388  0.86564  1.0000
  S   S98       1.0  0.22061  0.47537  0.70187  1.0000
  Fe  Fe49      1.0  0.01542  0.33977  0.82754  1.0000
  C   C275      1.0  0.20048  0.01313  0.78603  1.0000
  N   N22       1.0  0.13365  0.21165  0.69482  1.0000
  C   C276      1.0  0.12213  0.21224  0.71234  1.0000
  C   C277      1.0  0.14980  0.19777  0.69287  1.0000
  C   C278      1.0  0.12649  0.19841  0.72841  1.0000
  C   C279      1.0  0.15461  0.18374  0.70860  1.0000
  C   C280      1.0  0.14278  0.18401  0.72646  1.0000
  C   C281      1.0  0.12802  0.22487  0.67775  1.0000
  H   H276      1.0  0.10903  0.22290  0.71387  1.0000
  C   C282      1.0  0.01177  0.30635  0.71579  1.0000
  H   H277      1.0  0.11694  0.19849  0.74213  1.0000
  H   H278      1.0  0.02002  0.39633  0.78939  1.0000
  H   H279      1.0  0.14608  0.17290  0.73869  1.0000
  H   H280      1.0  0.00686  0.25936  0.80910  1.0000
  H   H281      1.0  0.21770  0.32419  0.91759  1.0000
  H   H282      1.0  0.20559  0.22922  0.95974  1.0000
  H   H283      1.0  0.09188  0.37279  0.95914  1.0000
  H   H284      1.0  0.20540  0.18769  0.92710  1.0000
  H   H285      1.0  0.00223  0.29149  0.78101  1.0000
  H   H286      1.0  0.01066  0.42148  0.78864  1.0000
  C   C283      1.0  0.99303  0.39025  0.82636  1.0000
  H   H287      1.0  0.05181  0.19933  0.67316  1.0000
  C   C284      1.0  0.17931  0.24927  0.95791  1.0000
  C   C285      1.0  0.23188  0.41035  0.65085  1.0000
  C   C286      1.0  0.23389  0.42830  0.65200  1.0000
  C   C287      1.0  0.05710  0.15753  0.70579  1.0000
  H   H288      1.0  0.19779  0.20548  0.90756  1.0000
  H   H289      1.0  0.16197  0.00534  0.75232  1.0000
  C   C288      1.0  0.99210  0.26618  0.81322  1.0000
  C   C289      1.0  0.08839  0.18951  0.65731  1.0000
  H   H290      1.0  0.19364  0.17873  0.64980  1.0000
  N   N23       1.0  0.18146  0.20951  0.93479  1.0000
  C   C290      1.0  0.17729  0.19960  0.95317  1.0000
  H   H291      1.0  0.10151  0.41762  0.88772  1.0000
  H   H292      1.0  0.14283  0.24580  0.93485  1.0000
  C   C291      1.0  0.14194  0.17305  0.65743  1.0000
  C   C292      1.0  0.00135  0.28255  0.83293  1.0000
  C   C293      1.0  0.09262  0.40097  0.91581  1.0000
  H   H293      1.0  0.21754  0.26894  0.95509  1.0000
  Fe  Fe50      1.0  0.23698  0.16963  0.95217  1.0000
  C   C294      1.0  0.17879  0.03461  0.66350  1.0000
  S   S99       1.0  0.10907  0.46378  0.81471  1.0000
  C   C295      1.0  0.00761  0.40690  0.79495  1.0000
  C   C296      1.0  0.07609  0.15003  0.69877  1.0000
  C   C297      1.0  0.11702  0.41941  0.90765  1.0000
  H   H294      1.0  0.20785  0.00694  0.79770  1.0000
  H   H295      1.0  0.08229  0.39602  0.91143  1.0000
  C   C298      1.0  0.15923  0.04145  0.66675  1.0000
  H   H296      1.0  0.18143  0.39225  0.65744  1.0000
  H   H297      1.0  0.22877  0.09736  0.80981  1.0000
  H   H298      1.0  0.01442  0.29822  0.70490  1.0000
  C   C299      1.0  0.00465  0.32690  0.74391  1.0000
  C   C300      1.0  0.17270  0.16210  0.66610  1.0000
  S   S100      1.0  0.22103  0.43788  0.67186  1.0000
  C   C301      1.0  0.21697  0.02767  0.84925  1.0000
  H   H299      1.0  0.12223  0.21725  0.67025  1.0000
  C   C302      1.0  0.16039  0.20592  0.96538  1.0000
  S   S101      1.0  0.03179  0.35162  0.84153  1.0000
  H   H300      1.0  0.16721  0.17246  0.70685  1.0000
  C   C303      1.0  0.15222  0.23250  0.93994  1.0000
  S   S102      1.0  0.21627  0.15168  0.95429  1.0000
  H   H301      1.0  0.99776  0.39013  0.87050  1.0000
  N   N24       1.0  0.02600  0.31326  0.71839  1.0000
  C   C304      1.0  0.23163  0.01762  0.85869  1.0000
  C   C305      1.0  0.19956  0.20326  0.92237  1.0000
  H   H302      1.0  0.17413  0.03446  0.74465  1.0000
  H   H303      1.0  0.18530  0.99034  0.74734  1.0000
  H   H304      1.0  0.22371  0.40195  0.66281  1.0000
  C   C306      1.0  0.04827  0.17532  0.69643  1.0000
  Fe  Fe51      1.0  0.13089  0.34385  0.95764  1.0000
  C   C307      1.0  0.19919  0.03250  0.77722  1.0000
  H   H305      1.0  0.08062  0.37200  0.94112  1.0000
  C   C308      1.0  0.20959  0.04704  0.84957  1.0000
  H   H306      1.0  0.07920  0.20095  0.64873  1.0000
  C   C309      1.0  0.19973  0.34535  0.94362  1.0000
  H   H307      1.0  0.20993  0.21159  0.92247  1.0000
  H   H308      1.0  0.11684  0.23741  0.68128  1.0000
  H   H309      1.0  0.07059  0.39036  0.95496  1.0000
  C   C310      1.0  0.19960  0.31351  0.96448  1.0000
  H   H310      1.0  0.21966  0.14410  0.76244  1.0000
  C   C311      1.0  0.17454  0.99704  0.75841  1.0000
  H   H311      1.0  0.16035  0.99312  0.71287  1.0000
  S   S103      1.0  0.03563  0.23520  0.68340  1.0000
  S   S104      1.0  0.99223  0.21042  0.70886  1.0000
  C   C312      1.0  0.19226  0.00169  0.77966  1.0000
  Fe  Fe52      1.0  0.11856  0.48057  0.83031  1.0000
  H   H312      1.0  0.06343  0.26344  0.65930  1.0000
  H   H313      1.0  0.12576  0.42862  0.89722  1.0000
  C   C313      1.0  0.18703  0.44501  0.78509  1.0000
  S   S105      1.0  0.15168  0.11093  0.70183  1.0000
  C   C314      1.0  0.12850  0.03536  0.71361  1.0000
  H   H314      1.0  0.20552  0.04157  0.78199  1.0000
  H   H315      1.0  0.01866  0.41266  0.85095  1.0000
  C   C315      1.0  0.22838  0.30386  0.64311  1.0000
  H   H316      1.0  0.01508  0.28202  0.82248  1.0000
  H   H317      1.0  0.10101  0.15503  0.67764  1.0000
  S   S106      1.0  0.02841  0.29196  0.66644  1.0000
  S   S107      1.0  0.22779  0.19411  0.96713  1.0000
  C   C316      1.0  0.02273  0.32315  0.73244  1.0000
  C   C317      1.0  0.18974  0.04015  0.76217  1.0000
  C   C318      1.0  0.99939  0.39392  0.85515  1.0000
  N   N25       1.0  0.23113  0.04598  0.86897  1.0000
  C   C319      1.0  0.99025  0.38574  0.84620  1.0000
  C   C320      1.0  0.23891  0.05554  0.87918  1.0000
  H   H318      1.0  0.12761  0.17128  0.65959  1.0000
  H   H319      1.0  0.02303  0.42021  0.81598  1.0000
  N   N26       1.0  0.15505  0.01350  0.65895  1.0000
  H   H320      1.0  0.18793  0.04265  0.66589  1.0000
  H   H321      1.0  0.99536  0.33004  0.80238  1.0000
  H   H322      1.0  0.03422  0.32788  0.73508  1.0000
  N   N27       1.0  0.20493  0.32434  0.94674  1.0000
  N   N28       1.0  0.00433  0.40285  0.81575  1.0000
  H   H323      1.0  0.15014  0.98877  0.65244  1.0000
  H   H324      1.0  0.18711  0.18681  0.95855  1.0000
  H   H325      1.0  0.20141  0.35044  0.95569  1.0000
  H   H326      1.0  0.00218  0.33459  0.75515  1.0000
  C   C321      1.0  0.21688  0.05603  0.85957  1.0000
  H   H327      1.0  0.11048  0.39651  0.95410  1.0000
  C   C322      1.0  0.01106  0.40657  0.84422  1.0000
  C   C323      1.0  0.14781  0.22250  0.95869  1.0000
  C   C324      1.0  0.18641  0.01719  0.65776  1.0000
  H   H328      1.0  0.21181  0.02060  0.84117  1.0000
  H   H329      1.0  0.20159  0.01164  0.65540  1.0000
  H   H330      1.0  0.19851  0.05512  0.84188  1.0000
  C   C325      1.0  0.17427  0.00682  0.65537  1.0000
  H   H331      1.0  0.13389  0.48333  0.76715  1.0000
  H   H332      1.0  0.22858  0.24445  0.64399  1.0000
  S   S108      1.0  0.23914  0.13464  0.79344  1.0000
  H   H333      1.0  0.18031  0.99325  0.65095  1.0000
  C   C326      1.0  0.05055  0.29336  0.65111  1.0000
  S   S109      1.0  0.23708  0.45200  0.74989  1.0000
  C   C327      1.0  0.23114  0.13492  0.90352  1.0000
  C   C328      1.0  0.20400  0.29344  0.96774  1.0000
  H   H334      1.0  0.23786  0.00272  0.85800  1.0000
  H   H335      1.0  0.13491  0.22796  0.96809  1.0000
  H   H336      1.0  0.23455  0.07101  0.75971  1.0000
  H   H337      1.0  0.03356  0.18146  0.70190  1.0000
  C   C329      1.0  0.05868  0.18543  0.68020  1.0000
  H   H338      1.0  0.23643  0.05167  0.80510  1.0000
  H   H339      1.0  0.16652  0.47883  0.74823  1.0000
  C   C330      1.0  0.23872  0.02711  0.86837  1.0000
  H   H340      1.0  0.21892  0.31690  0.64662  1.0000
  H   H341      1.0  0.23909  0.15478  0.91524  1.0000
  C   C331      1.0  0.99004  0.31995  0.74133  1.0000
  H   H342      1.0  0.19721  0.48449  0.73980  1.0000
  H   H343      1.0  0.16357  0.34912  0.97473  1.0000
  C   C332      1.0  0.16261  0.96435  0.24813  1.0000
  H   H344      1.0  0.99486  0.88789  0.29444  1.0000
  H   H345      1.0  0.19862  0.90971  0.15904  1.0000
  C   C333      1.0  0.20123  0.92224  0.27331  1.0000
  H   H346      1.0  0.21685  0.87578  0.06161  1.0000
  C   C334      1.0  0.15251  0.49655  0.13491  1.0000
  C   C335      1.0  0.14490  0.69869  0.01762  1.0000
  S   S110      1.0  0.15454  0.51132  0.17577  1.0000
  C   C336      1.0  0.08142  0.81067  0.23039  1.0000
  Fe  Fe53      1.0  0.18265  0.58957  0.20726  1.0000
  S   S111      1.0  0.16086  0.60224  0.23009  1.0000
  S   S112      1.0  0.19075  0.55710  0.21285  1.0000
  Fe  Fe54      1.0  0.19025  0.62876  0.18485  1.0000
  S   S113      1.0  0.16903  0.64433  0.20587  1.0000
  S   S114      1.0  0.20721  0.64784  0.16176  1.0000
  Fe  Fe55      1.0  0.18134  0.62053  0.22781  1.0000
  S   S115      1.0  0.18574  0.62648  0.25425  1.0000
  Fe  Fe56      1.0  0.15060  0.62476  0.20609  1.0000
  S   S116      1.0  0.11963  0.63427  0.20486  1.0000
  S   S117      1.0  0.20404  0.60627  0.20686  1.0000
  S   S118      1.0  0.17089  0.61079  0.18314  1.0000
  Fe  Fe57      1.0  0.05264  0.73079  0.21620  1.0000
  S   S119      1.0  0.03718  0.72143  0.19944  1.0000
  S   S120      1.0  0.07831  0.71377  0.22817  1.0000
  Fe  Fe58      1.0  0.03980  0.74958  0.17915  1.0000
  S   S121      1.0  0.04899  0.74800  0.14832  1.0000
  S   S122      1.0  0.05707  0.75793  0.19483  1.0000
  Fe  Fe59      1.0  0.18889  0.75786  0.07571  1.0000
  S   S123      1.0  0.16602  0.77970  0.06311  1.0000
  S   S124      1.0  0.21657  0.76666  0.07201  1.0000
  Fe  Fe60      1.0  0.16758  0.72555  0.08379  1.0000
  S   S125      1.0  0.14323  0.74485  0.07118  1.0000
  S   S126      1.0  0.16569  0.69445  0.09441  1.0000
  Fe  Fe61      1.0  0.16557  0.75728  0.04813  1.0000
  S   S127      1.0  0.17034  0.76384  0.01609  1.0000
  Fe  Fe62      1.0  0.14597  0.76521  0.08747  1.0000
  S   S128      1.0  0.12216  0.78220  0.10578  1.0000
  S   S129      1.0  0.18969  0.73614  0.05936  1.0000
  S   S130      1.0  0.16906  0.74513  0.10152  1.0000
  H   H347      1.0  0.13222  0.51016  0.21505  1.0000
  S   S131      1.0  0.02353  0.80053  0.21809  1.0000
  H   H348      1.0  0.12159  0.51001  0.23980  1.0000
  C   C337      1.0  0.08438  0.91797  0.28852  1.0000
  S   S132      1.0  0.05732  0.80212  0.28657  1.0000
  C   C338      1.0  0.03555  0.81878  0.25939  1.0000
  C   C339      1.0  0.02851  0.81825  0.24383  1.0000
  C   C340      1.0  0.15573  0.75666  0.00546  1.0000
  C   C341      1.0  0.13869  0.75138  0.01582  1.0000
  C   C342      1.0  0.12768  0.74515  0.00691  1.0000
  C   C343      1.0  0.13390  0.74383  0.98778  1.0000
  Fe  Fe63      1.0  0.01071  0.73832  0.21470  1.0000
  C   C344      1.0  0.16167  0.75578  0.98623  1.0000
  H   H349      1.0  0.13397  0.75213  0.03065  1.0000
  H   H350      1.0  0.11455  0.74097  0.01497  1.0000
  H   H351      1.0  0.06891  0.81634  0.22356  1.0000
  H   H352      1.0  0.13434  0.69532  0.01212  1.0000
  C   C345      1.0  0.06915  0.75771  0.13632  1.0000
  C   C346      1.0  0.07257  0.77326  0.14132  1.0000
  C   C347      1.0  0.08865  0.78094  0.13152  1.0000
  C   C348      1.0  0.10162  0.77284  0.11698  1.0000
  C   C349      1.0  0.09825  0.75722  0.11204  1.0000
  C   C350      1.0  0.08193  0.74982  0.12155  1.0000
  H   H353      1.0  0.06263  0.77963  0.15248  1.0000
  H   H354      1.0  0.09113  0.79310  0.13532  1.0000
  H   H355      1.0  0.10811  0.75093  0.10082  1.0000
  H   H356      1.0  0.07931  0.73784  0.11758  1.0000
  C   C351      1.0  0.19597  0.66056  0.14279  1.0000
  C   C352      1.0  0.19917  0.67890  0.13322  1.0000
  C   C353      1.0  0.18999  0.68942  0.11828  1.0000
  C   C354      1.0  0.17793  0.68141  0.11258  1.0000
  C   C355      1.0  0.17505  0.66291  0.12189  1.0000
  C   C356      1.0  0.18386  0.65259  0.13713  1.0000
  H   H357      1.0  0.20863  0.68507  0.13747  1.0000
  H   H358      1.0  0.19242  0.70361  0.11106  1.0000
  H   H359      1.0  0.16583  0.65661  0.11744  1.0000
  H   H360      1.0  0.18152  0.63835  0.14428  1.0000
  C   C357      1.0  0.10769  0.65568  0.21258  1.0000
  C   C358      1.0  0.11664  0.66486  0.22079  1.0000
  C   C359      1.0  0.10733  0.68249  0.22583  1.0000
  C   C360      1.0  0.08904  0.69113  0.22263  1.0000
  C   C361      1.0  0.07991  0.68180  0.21473  1.0000
  C   C362      1.0  0.08920  0.66407  0.20980  1.0000
  H   H361      1.0  0.13068  0.65833  0.22342  1.0000
  H   H362      1.0  0.11439  0.68951  0.23213  1.0000
  H   H363      1.0  0.06572  0.68818  0.21246  1.0000
  H   H364      1.0  0.08213  0.65698  0.20357  1.0000
  C   C363      1.0  0.16586  0.52378  0.18508  1.0000
  C   C364      1.0  0.17706  0.51404  0.19848  1.0000
  C   C365      1.0  0.18495  0.52441  0.20663  1.0000
  C   C366      1.0  0.18168  0.54454  0.20142  1.0000
  C   C367      1.0  0.17074  0.55423  0.18780  1.0000
  C   C368      1.0  0.16290  0.54386  0.17960  1.0000
  H   H365      1.0  0.17944  0.49856  0.20276  1.0000
  H   H366      1.0  0.19339  0.51685  0.21719  1.0000
  H   H367      1.0  0.16818  0.56972  0.18367  1.0000
  H   H368      1.0  0.15429  0.55146  0.16920  1.0000
  H   H369      1.0  0.18966  0.94211  0.19184  1.0000
  C   C369      1.0  0.21864  0.80676  0.10839  1.0000
  Fe  Fe64      1.0  0.04866  0.82718  0.30098  1.0000
  H   H370      1.0  0.20484  0.66096  0.19601  1.0000
  C   C370      1.0  0.21722  0.78180  0.08634  1.0000
  C   C371      1.0  0.09164  0.77990  0.25149  1.0000
  H   H371      1.0  0.19439  0.72694  0.00192  1.0000
  H   H372      1.0  0.11422  0.57732  0.19886  1.0000
  C   C372      1.0  0.20800  0.97264  0.15273  1.0000
  C   C373      1.0  0.20235  0.78549  0.10162  1.0000
  N   N29       1.0  0.17429  0.70887  0.01193  1.0000
  H   H373      1.0  0.15062  0.95826  0.25655  1.0000
  C   C374      1.0  0.20066  0.96539  0.17177  1.0000
  H   H374      1.0  0.19030  0.77874  0.10499  1.0000
  C   C375      1.0  0.22694  0.53328  0.27129  1.0000
  C   C376      1.0  0.19502  0.94777  0.17692  1.0000
  C   C377      1.0  0.21059  0.63466  0.27042  1.0000
  C   C378      1.0  0.20855  0.62768  0.25553  1.0000
  C   C379      1.0  0.22454  0.62217  0.24192  1.0000
  H   H375      1.0  0.16334  0.70395  0.99029  1.0000
  H   H376      1.0  0.17525  0.92159  0.16945  1.0000
  H   H377      1.0  0.19826  0.63895  0.28099  1.0000
  H   H378      1.0  0.22315  0.61674  0.23039  1.0000
  H   H379      1.0  0.18508  0.66428  0.22710  1.0000
  H   H380      1.0  0.18548  0.92608  0.27678  1.0000
  S   S133      1.0  0.13734  0.94772  0.29679  1.0000
  N   N30       1.0  0.20033  0.83577  0.04967  1.0000
  C   C380      1.0  0.19974  0.83560  0.06819  1.0000
  C   C381      1.0  0.20570  0.85061  0.03546  1.0000
  C   C382      1.0  0.20563  0.84997  0.07280  1.0000
  C   C383      1.0  0.21164  0.86526  0.03955  1.0000
  C   C384      1.0  0.21174  0.86481  0.05834  1.0000
  C   C385      1.0  0.19456  0.82031  0.04510  1.0000
  H   H381      1.0  0.19499  0.82414  0.07950  1.0000
  H   H382      1.0  0.20617  0.85078  0.02075  1.0000
  H   H383      1.0  0.18805  0.49426  0.25154  1.0000
  H   H384      1.0  0.21679  0.87648  0.02814  1.0000
  C   C386      1.0  0.17159  0.70870  0.03084  1.0000
  H   H385      1.0  0.20249  0.81768  0.03087  1.0000
  H   H386      1.0  0.19768  0.80657  0.05553  1.0000
  H   H387      1.0  0.17912  0.82408  0.04532  1.0000
  H   H388      1.0  0.23285  0.91795  0.16295  1.0000
  C   C387      1.0  0.22885  0.93704  0.26450  1.0000
  S   S134      1.0  0.01203  0.76582  0.19300  1.0000
  C   C388      1.0  0.09524  0.75981  0.25628  1.0000
  H   H389      1.0  0.22648  0.67378  0.23765  1.0000
  C   C389      1.0  0.12184  0.56718  0.20919  1.0000
  H   H390      1.0  0.02178  0.83143  0.23552  1.0000
  C   C390      1.0  0.20937  0.96237  0.13905  1.0000
  C   C391      1.0  0.21264  0.57246  0.26268  1.0000
  C   C392      1.0  0.19340  0.98020  0.22558  1.0000
  C   C393      1.0  0.15088  0.74925  0.97742  1.0000
  H   H391      1.0  0.09389  0.81588  0.22059  1.0000
  C   C394      1.0  0.23507  0.65684  0.19092  1.0000
  H   H392      1.0  0.14426  0.50857  0.14130  1.0000
  H   H393      1.0  0.07788  0.81666  0.24338  1.0000
  S   S135      1.0  0.21381  0.94582  0.21695  1.0000
  C   C395      1.0  0.23220  0.54589  0.27907  1.0000
  C   C396      1.0  0.22874  0.66934  0.22436  1.0000
  Fe  Fe65      1.0  0.13556  0.97965  0.28883  1.0000
  C   C397      1.0  0.19063  0.91921  0.16911  1.0000
  H   H394      1.0  0.99277  0.86082  0.24499  1.0000
  C   C398      1.0  0.04643  0.78430  0.26489  1.0000
  C   C399      1.0  0.21489  0.77015  0.01946  1.0000
  C   C400      1.0  0.17188  0.49042  0.13493  1.0000
  H   H395      1.0  0.99970  0.77835  0.25334  1.0000
  S   S136      1.0  0.23526  0.86983  0.09552  1.0000
  C   C401      1.0  0.08926  0.92870  0.29889  1.0000
  N   N31       1.0  0.08543  0.78963  0.23512  1.0000
  C   C402      1.0  0.04493  0.80181  0.26965  1.0000
  C   C403      1.0  0.23341  0.80321  0.09297  1.0000
  C   C404      1.0  0.13086  0.57380  0.21961  1.0000
  H   H396      1.0  0.20571  0.84937  0.08750  1.0000
  C   C405      1.0  0.22615  0.96977  0.26639  1.0000
  H   H397      1.0  0.20472  0.93685  0.13396  1.0000
  H   H398      1.0  0.11612  0.54235  0.20369  1.0000
  N   N32       1.0  0.22489  0.56520  0.27488  1.0000
  H   H399      1.0  0.19727  0.56609  0.24509  1.0000
  Fe  Fe66      1.0  0.05187  0.86739  0.30130  1.0000
  C   C406      1.0  0.23741  0.95244  0.26234  1.0000
  H   H400      1.0  0.13022  0.58910  0.21741  1.0000
  C   C407      1.0  0.19858  0.95564  0.27501  1.0000
  C   C408      1.0  0.08340  0.77981  0.22284  1.0000
  H   H401      1.0  0.09945  0.93776  0.29198  1.0000
  H   H402      1.0  0.20734  0.77321  0.03363  1.0000
  H   H403      1.0  0.09309  0.78767  0.26132  1.0000
  N   N33       1.0  0.13292  0.53463  0.22477  1.0000
  C   C409      1.0  0.14170  0.54101  0.23514  1.0000
  C   C410      1.0  0.14085  0.56064  0.23268  1.0000
  C   C411      1.0  0.13342  0.51404  0.22804  1.0000
  H   H404      1.0  0.14976  0.53089  0.24512  1.0000
  H   H405      1.0  0.14823  0.56553  0.24062  1.0000
  H   H406      1.0  0.20998  0.53087  0.25299  1.0000
  Fe  Fe67      1.0  0.23794  0.96111  0.20415  1.0000
  H   H407      1.0  0.15320  0.70373  0.05854  1.0000
  C   C412      1.0  0.03090  0.80078  0.23853  1.0000
  S   S137      1.0  0.02595  0.74500  0.23364  1.0000
  C   C413      1.0  0.03958  0.78379  0.24929  1.0000
  H   H408      1.0  0.04156  0.77027  0.24532  1.0000
  H   H409      1.0  0.18190  0.71268  0.03613  1.0000
  C   C414      1.0  0.20315  0.79782  0.11272  1.0000
  H   H410      1.0  0.19397  0.67039  0.24407  1.0000
  Fe  Fe68      1.0  0.02915  0.77146  0.21091  1.0000
  C   C415      1.0  0.17825  0.95290  0.23855  1.0000
  H   H411      1.0  0.05351  0.77111  0.27290  1.0000
  H   H412      1.0  0.03445  0.83236  0.26290  1.0000
  S   S138      1.0  0.03134  0.85644  0.29151  1.0000
  S   S139      1.0  0.21874  0.82281  0.12205  1.0000
  C   C416      1.0  0.14189  0.69875  0.03688  1.0000
  N   N34       1.0  0.12911  0.69625  0.15778  1.0000
  C   C417      1.0  0.11368  0.70080  0.17164  1.0000
  C   C418      1.0  0.13572  0.71038  0.14346  1.0000
  C   C419      1.0  0.10449  0.71990  0.17153  1.0000
  C   C420      1.0  0.12691  0.72968  0.14293  1.0000
  C   C421      1.0  0.11125  0.73441  0.15711  1.0000
  C   C422      1.0  0.13880  0.67618  0.15824  1.0000
  H   H413      1.0  0.10838  0.68964  0.18284  1.0000
  H   H414      1.0  0.14783  0.70678  0.13233  1.0000
  H   H415      1.0  0.09218  0.72337  0.18253  1.0000
  H   H416      1.0  0.13206  0.74092  0.13152  1.0000
  H   H417      1.0  0.10428  0.74929  0.15684  1.0000
  H   H418      1.0  0.13885  0.67215  0.14491  1.0000
  H   H419      1.0  0.15365  0.67417  0.15973  1.0000
  H   H420      1.0  0.13182  0.66609  0.17034  1.0000
  H   H421      1.0  0.23422  0.57126  0.29701  1.0000
  C   C423      1.0  0.07136  0.90598  0.29743  1.0000
  H   H422      1.0  0.19964  0.97317  0.18260  1.0000
  H   H423      1.0  0.14707  0.50533  0.23171  1.0000
  H   H424      1.0  0.19167  0.80056  0.12461  1.0000
  C   C424      1.0  0.09290  0.74970  0.24399  1.0000
  N   N35       1.0  0.20969  0.93878  0.27078  1.0000
  H   H425      1.0  0.99568  0.83849  0.30246  1.0000
  N   N36       1.0  0.23541  0.76789  0.01698  1.0000
  C   C425      1.0  0.19381  0.96072  0.22760  1.0000
  S   S140      1.0  0.23453  0.90168  0.13174  1.0000
  H   H426      1.0  0.09532  0.73411  0.24759  1.0000
  C   C426      1.0  0.21423  0.54053  0.25907  1.0000
  N   N37       1.0  0.21375  0.66775  0.21796  1.0000
  H   H427      1.0  0.18847  0.68851  0.22331  1.0000
  C   C427      1.0  0.15536  0.70367  0.04358  1.0000
  C   C428      1.0  0.16234  0.98372  0.24651  1.0000
  S   S141      1.0  0.06608  0.89195  0.28446  1.0000
  H   H428      1.0  0.20959  0.78206  0.00820  1.0000
  H   H429      1.0  0.20552  0.91670  0.26002  1.0000
  C   C429      1.0  0.20660  0.97144  0.27272  1.0000
  H   H430      1.0  0.00299  0.87641  0.26507  1.0000
  H   H431      1.0  0.00687  0.70653  0.19094  1.0000
  H   H432      1.0  0.12910  0.69515  0.04658  1.0000
  N   N38       1.0  0.19662  0.93766  0.16344  1.0000
  H   H433      1.0  0.08537  0.75194  0.21748  1.0000
  H   H434      1.0  0.20377  0.70196  0.00059  1.0000
  H   H435      1.0  0.09946  0.75219  0.26961  1.0000
  H   H436      1.0  0.18341  0.95699  0.28008  1.0000
  C   C430      1.0  0.20706  0.56026  0.25468  1.0000
  H   H437      1.0  0.09084  0.91884  0.27361  1.0000
  H   H438      1.0  0.01345  0.73360  0.16365  1.0000
  C   C431      1.0  0.08716  0.75973  0.22708  1.0000
  H   H439      1.0  0.21123  0.75683  0.01855  1.0000
  H   H440      1.0  0.20703  0.58776  0.25911  1.0000
  H   H441      1.0  0.17494  0.75963  0.97827  1.0000
  C   C432      1.0  0.16134  0.70368  0.00530  1.0000
  H   H442      1.0  0.23762  0.92370  0.26105  1.0000
  C   C433      1.0  0.12295  0.54743  0.21202  1.0000
  H   H443      1.0  0.07840  0.78749  0.20989  1.0000
  H   H444      1.0  0.17838  0.93793  0.23986  1.0000
  S   S142      1.0  0.12110  0.73416  0.97729  1.0000
  C   C434      1.0  0.19149  0.71411  0.99893  1.0000
  C   C435      1.0  0.23097  0.57828  0.28273  1.0000
  H   H445      1.0  0.18997  0.71795  0.98386  1.0000
  H   H446      1.0  0.23290  0.78688  0.03501  1.0000
  C   C436      1.0  0.20334  0.94491  0.14466  1.0000
  C   C437      1.0  0.19437  0.67312  0.22858  1.0000
  H   H447      1.0  0.19764  0.98485  0.27579  1.0000
  C   C438      1.0  0.22843  0.63667  0.27144  1.0000
  C   C439      1.0  0.00008  0.72896  0.16697  1.0000
  S   S143      1.0  0.21300  0.48735  0.27729  1.0000
  H   H448      1.0  0.22966  0.64294  0.28247  1.0000
  H   H449      1.0  0.19351  0.91136  0.18335  1.0000
  H   H450      1.0  0.21536  0.96770  0.12424  1.0000
  H   H451      1.0  0.20581  0.91082  0.28530  1.0000
  H   H452      1.0  0.23729  0.65192  0.17786  1.0000
  H   H453      1.0  0.22849  0.49165  0.21217  1.0000
  C   C440      1.0  0.21670  0.66191  0.20131  1.0000
  C   C441      1.0  0.23276  0.79064  0.08207  1.0000
  H   H454      1.0  0.23268  0.51798  0.27474  1.0000
  C   C442      1.0  0.99648  0.71368  0.18217  1.0000
  H   H455      1.0  0.23259  0.98192  0.26445  1.0000
  S   S144      1.0  0.07069  0.83841  0.30775  1.0000
  H   H456      1.0  0.21969  0.59130  0.28445  1.0000
  H   H457      1.0  0.12867  0.49105  0.12757  1.0000
  H   H458      1.0  0.17841  0.49785  0.14142  1.0000
  S   S145      1.0  0.15424  0.97983  0.30776  1.0000
  C   C443      1.0  0.14377  0.48670  0.12726  1.0000
  H   H459      1.0  0.16878  0.79627  0.97528  1.0000
  S   S146      1.0  0.18095  0.92720  0.32070  1.0000
  N   N39       1.0  0.11118  0.86409  0.33314  1.0000
  C   C444      1.0  0.05513  0.87592  0.61391  1.0000
  H   H460      1.0  0.13574  0.97120  0.37653  1.0000
  Fe  Fe69      1.0  0.13804  0.83313  0.43499  1.0000
  S   S147      1.0  0.10773  0.84779  0.44381  1.0000
  S   S148      1.0  0.14835  0.80117  0.44291  1.0000
  Fe  Fe70      1.0  0.15153  0.87045  0.41942  1.0000
  S   S149      1.0  0.12271  0.88859  0.42686  1.0000
  S   S150      1.0  0.17814  0.88148  0.40570  1.0000
  Fe  Fe71      1.0  0.11994  0.86681  0.45433  1.0000
  S   S151      1.0  0.10670  0.87426  0.48292  1.0000
  Fe  Fe72      1.0  0.11298  0.86824  0.41561  1.0000
  S   S152      1.0  0.09302  0.88122  0.39534  1.0000
  S   S153      1.0  0.14971  0.85037  0.44793  1.0000
  S   S154      1.0  0.14225  0.85194  0.40578  1.0000
  Fe  Fe73      1.0  0.15723  0.87454  0.55937  1.0000
  S   S155      1.0  0.16761  0.84300  0.56950  1.0000
  S   S156      1.0  0.16348  0.88484  0.52754  1.0000
  Fe  Fe74      1.0  0.13976  0.88080  0.59940  1.0000
  S   S157      1.0  0.14772  0.84955  0.61246  1.0000
  S   S158      1.0  0.12293  0.89922  0.62027  1.0000
  Fe  Fe75      1.0  0.17567  0.85126  0.59258  1.0000
  S   S159      1.0  0.20076  0.83687  0.60606  1.0000
  Fe  Fe76      1.0  0.13886  0.84440  0.58828  1.0000
  S   S160      1.0  0.12314  0.82213  0.58931  1.0000
  S   S161      1.0  0.16837  0.88289  0.58074  1.0000
  S   S162      1.0  0.12779  0.87544  0.57702  1.0000
  S   S163      1.0  0.23807  0.74104  0.47291  1.0000
  S   S164      1.0  0.06672  0.82419  0.36230  1.0000
  C   C445      1.0  0.13445  0.91385  0.62653  1.0000
  C   C446      1.0  0.15186  0.91792  0.61578  1.0000
  C   C447      1.0  0.20901  0.69663  0.37020  1.0000
  Fe  Fe77      1.0  0.15392  0.94849  0.31745  1.0000
  H   H461      1.0  0.15836  0.91240  0.60306  1.0000
  H   H462      1.0  0.20332  0.72273  0.34915  1.0000
  H   H463      1.0  0.13355  0.84848  0.37011  1.0000
  C   C448      1.0  0.17859  0.89382  0.38204  1.0000
  C   C449      1.0  0.16212  0.89954  0.37460  1.0000
  C   C450      1.0  0.16273  0.90980  0.35571  1.0000
  C   C451      1.0  0.17986  0.91408  0.34423  1.0000
  C   C452      1.0  0.19636  0.90791  0.35158  1.0000
  C   C453      1.0  0.19568  0.89801  0.37052  1.0000
  H   H464      1.0  0.14896  0.89616  0.38347  1.0000
  H   H465      1.0  0.15005  0.91413  0.34995  1.0000
  H   H466      1.0  0.20961  0.91117  0.34277  1.0000
  H   H467      1.0  0.20842  0.89361  0.37624  1.0000
  C   C454      1.0  0.08550  0.86523  0.38659  1.0000
  C   C455      1.0  0.08981  0.84542  0.39369  1.0000
  C   C456      1.0  0.08397  0.83295  0.38612  1.0000
  C   C457      1.0  0.07400  0.84020  0.37132  1.0000
  C   C458      1.0  0.06979  0.86002  0.36417  1.0000
  C   C459      1.0  0.07544  0.87249  0.37187  1.0000
  H   H468      1.0  0.09759  0.83972  0.40503  1.0000
  H   H469      1.0  0.08725  0.81762  0.39173  1.0000
  H   H470      1.0  0.06221  0.86578  0.35272  1.0000
  H   H471      1.0  0.07225  0.88781  0.36624  1.0000
  C   C460      1.0  0.12231  0.87827  0.49484  1.0000
  C   C461      1.0  0.11597  0.87999  0.51384  1.0000
  C   C462      1.0  0.12843  0.88222  0.52393  1.0000
  C   C463      1.0  0.14730  0.88284  0.51505  1.0000
  C   C464      1.0  0.15354  0.88146  0.49593  1.0000
  C   C465      1.0  0.14111  0.87910  0.48587  1.0000
  H   H472      1.0  0.10139  0.87953  0.52078  1.0000
  H   H473      1.0  0.12335  0.88372  0.53848  1.0000
  H   H474      1.0  0.16805  0.88218  0.48891  1.0000
  H   H475      1.0  0.14604  0.87820  0.47111  1.0000
  C   C466      1.0  0.12053  0.89022  0.33935  1.0000
  S   S165      1.0  0.22187  0.76694  0.38797  1.0000
  C   C467      1.0  0.09873  0.83487  0.62009  1.0000
  C   C468      1.0  0.10167  0.82456  0.60595  1.0000
  C   C469      1.0  0.08718  0.81646  0.60477  1.0000
  H   H476      1.0  0.07454  0.96033  0.36815  1.0000
  C   C470      1.0  0.02109  0.81274  0.38578  1.0000
  H   H477      1.0  0.10980  0.84127  0.62102  1.0000
  H   H478      1.0  0.08938  0.80849  0.59387  1.0000
  S   S166      1.0  0.22338  0.73626  0.61644  1.0000
  H   H479      1.0  0.22161  0.77884  0.58893  1.0000
  C   C471      1.0  0.16082  0.92939  0.62140  1.0000
  H   H480      1.0  0.05017  0.86652  0.60816  1.0000
  C   C472      1.0  0.22508  0.71227  0.62861  1.0000
  C   C473      1.0  0.00025  0.86515  0.37200  1.0000
  H   H481      1.0  0.09210  0.89747  0.60634  1.0000
  C   C474      1.0  0.20031  0.77552  0.40244  1.0000
  C   C475      1.0  0.19446  0.76501  0.42074  1.0000
  C   C476      1.0  0.17803  0.77271  0.43275  1.0000
  C   C477      1.0  0.16774  0.79120  0.42680  1.0000
  C   C478      1.0  0.17345  0.80160  0.40841  1.0000
  C   C479      1.0  0.18955  0.79365  0.39614  1.0000
  H   H482      1.0  0.20259  0.75101  0.42576  1.0000
  H   H483      1.0  0.17357  0.76452  0.44690  1.0000
  H   H484      1.0  0.16552  0.81575  0.40360  1.0000
  H   H485      1.0  0.19404  0.80187  0.38202  1.0000
  C   C480      1.0  0.07568  0.91018  0.63828  1.0000
  N   N40       1.0  0.21315  0.68867  0.38782  1.0000
  C   C481      1.0  0.02465  0.86128  0.38925  1.0000
  S   S167      1.0  0.03503  0.86603  0.33109  1.0000
  N   N41       1.0  0.12952  0.83306  0.53009  1.0000
  C   C482      1.0  0.13512  0.83125  0.51155  1.0000
  C   C483      1.0  0.11140  0.83214  0.53979  1.0000
  C   C484      1.0  0.12229  0.82883  0.50212  1.0000
  C   C485      1.0  0.09812  0.83003  0.53070  1.0000
  C   C486      1.0  0.10362  0.82848  0.51171  1.0000
  C   C487      1.0  0.14314  0.83529  0.53993  1.0000
  H   H486      1.0  0.14938  0.83229  0.50377  1.0000
  H   H487      1.0  0.10707  0.83333  0.55458  1.0000
  H   H488      1.0  0.12653  0.82811  0.48721  1.0000
  H   H489      1.0  0.08362  0.82984  0.53827  1.0000
  H   H490      1.0  0.09338  0.82741  0.50426  1.0000
  H   H491      1.0  0.13615  0.84543  0.54955  1.0000
  H   H492      1.0  0.14884  0.82122  0.54857  1.0000
  H   H493      1.0  0.15500  0.84142  0.52982  1.0000
  N   N42       1.0  0.11256  0.95716  0.38643  1.0000
  C   C488      1.0  0.11860  0.93763  0.39040  1.0000
  C   C489      1.0  0.05185  0.89270  0.63862  1.0000
  C   C490      1.0  0.10869  0.92577  0.38679  1.0000
  H   H494      1.0  0.00866  0.88870  0.37733  1.0000
  C   C491      1.0  0.09260  0.93395  0.37903  1.0000
  H   H495      1.0  0.12065  0.90543  0.33617  1.0000
  H   H496      1.0  0.13136  0.93111  0.39605  1.0000
  H   H497      1.0  0.15334  0.80291  0.61206  1.0000
  C   C492      1.0  0.21621  0.81720  0.41047  1.0000
  H   H498      1.0  0.23184  0.74963  0.50938  1.0000
  H   H499      1.0  0.21019  0.76991  0.63664  1.0000
  H   H500      1.0  0.03336  0.86738  0.39470  1.0000
  C   C493      1.0  0.18627  0.87498  0.63520  1.0000
  H   H501      1.0  0.20287  0.66372  0.40378  1.0000
  C   C494      1.0  0.22063  0.82739  0.59024  1.0000
  H   H502      1.0  0.21138  0.72920  0.40181  1.0000
  C   C495      1.0  0.08662  0.95387  0.37488  1.0000
  H   H503      1.0  0.17167  0.85393  0.63419  1.0000
  C   C496      1.0  0.12783  0.85826  0.35832  1.0000
  H   H504      1.0  0.11359  0.91034  0.38969  1.0000
  C   C497      1.0  0.06968  0.81893  0.61749  1.0000
  C   C498      1.0  0.19839  0.83712  0.43268  1.0000
  C   C499      1.0  0.20204  0.78565  0.45807  1.0000
  H   H505      1.0  0.17432  0.93245  0.61307  1.0000
  H   H506      1.0  0.03874  0.83222  0.39861  1.0000
  H   H507      1.0  0.22358  0.81561  0.39620  1.0000
  H   H508      1.0  0.10635  0.89273  0.31698  1.0000
  H   H509      1.0  0.20923  0.84818  0.40311  1.0000
  C   C500      1.0  0.20604  0.71654  0.36334  1.0000
  H   H510      1.0  0.03194  0.87626  0.63809  1.0000
  H   H511      1.0  0.13448  0.88310  0.36297  1.0000
  C   C501      1.0  0.18129  0.79382  0.61865  1.0000
  C   C502      1.0  0.12392  0.96934  0.38908  1.0000
  Fe  Fe78      1.0  0.01618  0.85242  0.32212  1.0000
  H   H512      1.0  0.19736  0.71098  0.62621  1.0000
  C   C503      1.0  0.22042  0.83011  0.57100  1.0000
  H   H513      1.0  0.20866  0.78538  0.46987  1.0000
  N   N43       1.0  0.20015  0.78708  0.61220  1.0000
  C   C504      1.0  0.07222  0.88174  0.60506  1.0000
  H   H514      1.0  0.22112  0.66013  0.38292  1.0000
  H   H515      1.0  0.23572  0.82305  0.54408  1.0000
  H   H516      1.0  0.05275  0.89625  0.32361  1.0000
  C   C505      1.0  0.21622  0.66780  0.39486  1.0000
  C   C506      1.0  0.12834  0.87771  0.35430  1.0000
  C   C507      1.0  0.15265  0.93640  0.63804  1.0000
  C   C508      1.0  0.02759  0.84137  0.39148  1.0000
  C   C509      1.0  0.09685  0.96535  0.37866  1.0000
  C   C510      1.0  0.04489  0.88137  0.63081  1.0000
  C   C511      1.0  0.21385  0.70013  0.39922  1.0000
  H   H517      1.0  0.20866  0.68754  0.36106  1.0000
  C   C512      1.0  0.08093  0.92758  0.31817  1.0000
  H   H518      1.0  0.09251  0.98086  0.37476  1.0000
  S   S168      1.0  0.03221  0.82251  0.33106  1.0000
  Fe  Fe79      1.0  0.05274  0.83644  0.33703  1.0000
  H   H519      1.0  0.20879  0.77212  0.45295  1.0000
  C   C513      1.0  0.07870  0.89319  0.61318  1.0000
  H   H520      1.0  0.09719  0.84361  0.33005  1.0000
  C   C514      1.0  0.01087  0.87322  0.37944  1.0000
  H   H521      1.0  0.18671  0.78555  0.46355  1.0000
  C   C515      1.0  0.21015  0.70308  0.63121  1.0000
  H   H522      1.0  0.19935  0.78551  0.56755  1.0000
  H   H523      1.0  0.22056  0.78694  0.42189  1.0000
  H   H524      1.0  0.99576  0.83909  0.36799  1.0000
  H   H525      1.0  0.23698  0.81441  0.61201  1.0000
  H   H526      1.0  0.08063  0.87700  0.59227  1.0000
  C   C516      1.0  0.20813  0.83540  0.41433  1.0000
  C   C517      1.0  0.19409  0.78784  0.58191  1.0000
  C   C518      1.0  0.20665  0.78414  0.59406  1.0000
  H   H527      1.0  0.18841  0.82200  0.46095  1.0000
  H   H528      1.0  0.06109  0.91514  0.34179  1.0000
  S   S169      1.0  0.08743  0.93959  0.33211  1.0000
  H   H529      1.0  0.16479  0.79738  0.57929  1.0000
  N   N44       1.0  0.01711  0.83357  0.38415  1.0000
  N   N45       1.0  0.20441  0.80275  0.44295  1.0000
  H   H530      1.0  0.20079  0.67622  0.64083  1.0000
  H   H531      1.0  0.22744  0.66280  0.40341  1.0000
  C   C519      1.0  0.21436  0.80097  0.42509  1.0000
  C   C520      1.0  0.11912  0.85165  0.34755  1.0000
  Fe  Fe80      1.0  0.11187  0.95466  0.31960  1.0000
  C   C521      1.0  0.06300  0.90507  0.31665  1.0000
  C   C522      1.0  0.10208  0.85705  0.32193  1.0000
  H   H532      1.0  0.03251  0.80877  0.37369  1.0000
  C   C523      1.0  0.17478  0.79447  0.58847  1.0000
  H   H533      1.0  0.12986  0.96290  0.40210  1.0000
  C   C524      1.0  0.21322  0.78250  0.62516  1.0000
  H   H534      1.0  0.20833  0.83909  0.56541  1.0000
  H   H535      1.0  0.21721  0.69385  0.41317  1.0000
  H   H536      1.0  0.11826  0.83663  0.35116  1.0000
  C   C525      1.0  0.00370  0.84518  0.37433  1.0000
  S   S170      1.0  0.12882  0.95283  0.34098  1.0000
  H   H537      1.0  0.08505  0.92485  0.37581  1.0000
  H   H538      1.0  0.19203  0.85125  0.43575  1.0000
  Fe  Fe81      1.0  0.12733  0.98427  0.32937  1.0000
  H   H539      1.0  0.05838  0.81294  0.61632  1.0000
  C   C526      1.0  0.06768  0.91590  0.32693  1.0000
  C   C527      1.0  0.21072  0.72009  0.39287  1.0000
  C   C528      1.0  0.20695  0.72831  0.37478  1.0000
  C   C529      1.0  0.16832  0.79758  0.60692  1.0000
  C   C530      1.0  0.19647  0.82054  0.44686  1.0000
  H   H540      1.0  0.19735  0.89720  0.63975  1.0000
  H   H541      1.0  0.00831  0.80777  0.38569  1.0000
  H   H542      1.0  0.20488  0.74379  0.36967  1.0000
  C   C531      1.0  0.11221  0.88304  0.32869  1.0000
  C   C532      1.0  0.23657  0.81619  0.59724  1.0000
  N   N46       1.0  0.06840  0.89872  0.62962  1.0000
  H   H543      1.0  0.08405  0.91995  0.62730  1.0000
  C   C533      1.0  0.08138  0.83686  0.63318  1.0000
  C   C534      1.0  0.06677  0.82902  0.63178  1.0000
  H   H544      1.0  0.02590  0.80493  0.39920  1.0000
  H   H545      1.0  0.08932  0.86775  0.31824  1.0000
  H   H546      1.0  0.19783  0.87154  0.62351  1.0000
  C   C535      1.0  0.21213  0.68343  0.63940  1.0000
  C   C536      1.0  0.17144  0.86517  0.64108  1.0000
  H   H547      1.0  0.17622  0.79635  0.63295  1.0000
  H   H548      1.0  0.21172  0.79507  0.63134  1.0000
  H   H549      1.0  0.22822  0.77877  0.61773  1.0000
  C   C537      1.0  0.23597  0.82114  0.55890  1.0000
  S   S171      1.0  0.23668  0.72245  0.42829  1.0000
  H   H550      1.0  0.11531  0.98385  0.39049  1.0000
  H   H551      1.0  0.11210  0.85433  0.30858  1.0000
  C   C538      1.0  0.10184  0.90347  0.71422  1.0000
  N   N47       1.0  0.18986  0.67093  0.70404  1.0000
  H   H552      1.0  0.20002  0.83302  0.90496  1.0000
  C   C539      1.0  0.03689  0.75097  0.93210  1.0000
  H   H553      1.0  0.07415  0.87238  0.71642  1.0000
  N   N48       1.0  0.23666  0.60946  0.77716  1.0000
  S   S172      1.0  0.19676  0.94792  0.80450  1.0000
  Fe  Fe82      1.0  0.16869  0.73859  0.91505  1.0000
  S   S173      1.0  0.16526  0.71378  0.94006  1.0000
  S   S174      1.0  0.19306  0.75397  0.90377  1.0000
  Fe  Fe83      1.0  0.13002  0.74199  0.90680  1.0000
  S   S175      1.0  0.12314  0.71811  0.93134  1.0000
  S   S176      1.0  0.11066  0.75832  0.88655  1.0000
  Fe  Fe84      1.0  0.13592  0.73114  0.94752  1.0000
  Fe  Fe85      1.0  0.15286  0.70288  0.92146  1.0000
  S   S177      1.0  0.15411  0.67204  0.92156  1.0000
  S   S178      1.0  0.14009  0.75669  0.92387  1.0000
  S   S179      1.0  0.15899  0.72606  0.89570  1.0000
  H   H554      1.0  0.12381  0.50557  0.78946  1.0000
  C   C540      1.0  0.19155  0.81852  0.93405  1.0000
  H   H555      1.0  0.08495  0.90047  0.64792  1.0000
  S   S180      1.0  0.10805  0.51255  0.82742  1.0000
  Fe  Fe86      1.0  0.14779  0.62716  0.80508  1.0000
  S   S181      1.0  0.17211  0.60875  0.81794  1.0000
  S   S182      1.0  0.15283  0.63452  0.77328  1.0000
  Fe  Fe87      1.0  0.12225  0.62978  0.84346  1.0000
  S   S183      1.0  0.14439  0.61110  0.85944  1.0000
  S   S184      1.0  0.09566  0.64379  0.86095  1.0000
  Fe  Fe88      1.0  0.16375  0.62876  0.83801  1.0000
  S   S185      1.0  0.18361  0.64367  0.84396  1.0000
  Fe  Fe89      1.0  0.15029  0.59292  0.83784  1.0000
  S   S186      1.0  0.15821  0.56045  0.84437  1.0000
  S   S187      1.0  0.14122  0.64860  0.82328  1.0000
  S   S188      1.0  0.12627  0.61019  0.82365  1.0000
  Fe  Fe90      1.0  0.02470  0.74194  0.86558  1.0000
  S   S189      1.0  0.04652  0.74632  0.83877  1.0000
  S   S190      1.0  0.03604  0.73018  0.89243  1.0000
  N   N49       1.0  0.05438  0.75312  0.93604  1.0000
  S   S191      1.0  0.01174  0.75969  0.81573  1.0000
  Fe  Fe91      1.0  0.03017  0.73215  0.82746  1.0000
  S   S192      1.0  0.04604  0.70992  0.81049  1.0000
  Fe  Fe92      1.0  0.02599  0.77329  0.83006  1.0000
  S   S193      1.0  0.03535  0.80109  0.81661  1.0000
  S   S194      1.0  0.00961  0.72559  0.85498  1.0000
  H   H556      1.0  0.05346  0.73043  0.96072  1.0000
  Fe  Fe93      1.0  0.05375  0.82798  0.71242  1.0000
  S   S195      1.0  0.03530  0.85395  0.72289  1.0000
  S   S196      1.0  0.07079  0.80336  0.72995  1.0000
  H   H557      1.0  0.19355  0.65531  0.68256  1.0000
  S   S197      1.0  0.02340  0.86782  0.68122  1.0000
  H   H558      1.0  0.07910  0.84498  0.64393  1.0000
  Fe  Fe94      1.0  0.04684  0.87003  0.69378  1.0000
  S   S198      1.0  0.05605  0.89844  0.68644  1.0000
  Fe  Fe95      1.0  0.01365  0.84924  0.70939  1.0000
  S   S199      1.0  0.06701  0.84436  0.68433  1.0000
  S   S200      1.0  0.03121  0.82191  0.70145  1.0000
  C   C541      1.0  0.18628  0.63349  0.74752  1.0000
  C   C542      1.0  0.07460  0.89942  0.69640  1.0000
  C   C543      1.0  0.16982  0.50967  0.77259  1.0000
  C   C544      1.0  0.09650  0.91759  0.69878  1.0000
  C   C545      1.0  0.08285  0.91562  0.68997  1.0000
  H   H559      1.0  0.10251  0.93026  0.69388  1.0000
  H   H560      1.0  0.07846  0.92682  0.67831  1.0000
  C   C546      1.0  0.04591  0.80155  0.79271  1.0000
  C   C547      1.0  0.04998  0.81869  0.78063  1.0000
  C   C548      1.0  0.05764  0.81932  0.76126  1.0000
  C   C549      1.0  0.06173  0.80267  0.75413  1.0000
  C   C550      1.0  0.05827  0.78539  0.76637  1.0000
  C   C551      1.0  0.05014  0.78488  0.78562  1.0000
  H   H561      1.0  0.04688  0.83155  0.78616  1.0000
  H   H562      1.0  0.06058  0.83262  0.75184  1.0000
  H   H563      1.0  0.06141  0.77253  0.76081  1.0000
  H   H564      1.0  0.04725  0.77155  0.79494  1.0000
  H   H565      1.0  0.14465  0.86258  0.65995  1.0000
  C   C552      1.0  0.08183  0.66184  0.84678  1.0000
  C   C553      1.0  0.06767  0.67547  0.85514  1.0000
  C   C554      1.0  0.05674  0.69029  0.84396  1.0000
  C   C555      1.0  0.05962  0.69125  0.82447  1.0000
  C   C556      1.0  0.07376  0.67758  0.81609  1.0000
  C   C557      1.0  0.08503  0.66299  0.82721  1.0000
  H   H566      1.0  0.06525  0.67470  0.87025  1.0000
  H   H567      1.0  0.04613  0.70092  0.85053  1.0000
  H   H568      1.0  0.07612  0.67835  0.80098  1.0000
  H   H569      1.0  0.09599  0.65248  0.82069  1.0000
  C   C558      1.0  0.12292  0.52619  0.83012  1.0000
  C   C559      1.0  0.11584  0.54569  0.83033  1.0000
  C   C560      1.0  0.12693  0.55663  0.83372  1.0000
  C   C561      1.0  0.14523  0.54815  0.83681  1.0000
  C   C562      1.0  0.15261  0.52885  0.83577  1.0000
  C   C563      1.0  0.14146  0.51787  0.83255  1.0000
  H   H570      1.0  0.10153  0.55225  0.82835  1.0000
  H   H571      1.0  0.12098  0.57139  0.83471  1.0000
  H   H572      1.0  0.16680  0.52222  0.83805  1.0000
  H   H573      1.0  0.14711  0.50289  0.83237  1.0000
  C   C564      1.0  0.16316  0.66405  0.90009  1.0000
  C   C565      1.0  0.17417  0.67429  0.88449  1.0000
  C   C566      1.0  0.18085  0.66766  0.86744  1.0000
  C   C567      1.0  0.17615  0.65107  0.86579  1.0000
  C   C568      1.0  0.16520  0.64084  0.88142  1.0000
  C   C569      1.0  0.15893  0.64719  0.89858  1.0000
  H   H574      1.0  0.17775  0.68714  0.88563  1.0000
  H   H575      1.0  0.18946  0.67554  0.85544  1.0000
  H   H576      1.0  0.16184  0.62783  0.88041  1.0000
  H   H577      1.0  0.15064  0.63908  0.91068  1.0000
  C   C570      1.0  0.09057  0.74962  0.88768  1.0000
  C   C571      1.0  0.08709  0.73233  0.89988  1.0000
  C   C572      1.0  0.07050  0.72617  0.90103  1.0000
  C   C573      1.0  0.05738  0.73724  0.88990  1.0000
  C   C574      1.0  0.06093  0.75445  0.87759  1.0000
  C   C575      1.0  0.07745  0.76065  0.87655  1.0000
  H   H578      1.0  0.09701  0.72381  0.90861  1.0000
  H   H579      1.0  0.06773  0.71289  0.91063  1.0000
  H   H580      1.0  0.05064  0.76331  0.86930  1.0000
  H   H581      1.0  0.07990  0.77421  0.86733  1.0000
  C   C576      1.0  0.18436  0.65991  0.69516  1.0000
  C   C577      1.0  0.18035  0.94309  0.77782  1.0000
  C   C578      1.0  0.16235  0.48852  0.75793  1.0000
  H   H582      1.0  0.16808  0.94156  0.78922  1.0000
  H   H583      1.0  0.18365  0.81303  0.97116  1.0000
  C   C579      1.0  0.19648  0.94671  0.78134  1.0000
  H   H584      1.0  0.05574  0.95820  0.70965  1.0000
  C   C580      1.0  0.14376  0.49116  0.76849  1.0000
  N   N50       1.0  0.13165  0.52008  0.87997  1.0000
  C   C581      1.0  0.22665  0.87994  0.90433  1.0000
  S   S201      1.0  0.23562  0.65003  0.74089  1.0000
  H   H585      1.0  0.22858  0.62847  0.79650  1.0000
  C   C582      1.0  0.06090  0.74144  0.95162  1.0000
  C   C583      1.0  0.00779  0.68416  0.81590  1.0000
  C   C584      1.0  0.14045  0.48723  0.87670  1.0000
  C   C585      1.0  0.00409  0.69010  0.83297  1.0000
  H   H586      1.0  0.10964  0.53730  0.89633  1.0000
  H   H587      1.0  0.03756  0.73569  0.93228  1.0000
  H   H588      1.0  0.21978  0.77738  0.89855  1.0000
  H   H589      1.0  0.18262  0.68554  0.72687  1.0000
  H   H590      1.0  0.22467  0.94721  0.73729  1.0000
  C   C586      1.0  0.14057  0.88833  0.68055  1.0000
  H   H591      1.0  0.22425  0.57904  0.74901  1.0000
  C   C587      1.0  0.00720  0.82725  0.76579  1.0000
  H   H592      1.0  0.99561  0.67675  0.79630  1.0000
  C   C588      1.0  0.22943  0.90556  0.87595  1.0000
  C   C589      1.0  0.15123  0.51289  0.78314  1.0000
  H   H593      1.0  0.16689  0.78331  0.94882  1.0000
  C   C590      1.0  0.12598  0.92140  0.64281  1.0000
  C   C591      1.0  0.20478  0.75738  0.91986  1.0000
  C   C592      1.0  0.22736  0.90282  0.79093  1.0000
  S   S202      1.0  0.22515  0.82019  0.96347  1.0000
  H   H594      1.0  0.19801  0.50846  0.74014  1.0000
  H   H595      1.0  0.21212  0.63366  0.72679  1.0000
  N   N51       1.0  0.17515  0.49764  0.76015  1.0000
  N   N52       1.0  0.99239  0.81698  0.77754  1.0000
  C   C593      1.0  0.18026  0.94069  0.75978  1.0000
  Fe  Fe96      1.0  0.13613  0.97211  0.70725  1.0000
  H   H596      1.0  0.20631  0.69107  0.68668  1.0000
  Fe  Fe97      1.0  0.99235  0.75438  0.84421  1.0000
  C   C594      1.0  0.06379  0.76701  0.92454  1.0000
  H   H597      1.0  0.21472  0.67708  0.70808  1.0000
  C   C595      1.0  0.20153  0.74808  0.93902  1.0000
  H   H598      1.0  0.14697  0.52251  0.79292  1.0000
  C   C596      1.0  0.21456  0.89914  0.78236  1.0000
  H   H599      1.0  0.19421  0.78836  0.96981  1.0000
  H   H600      1.0  0.17084  0.90469  0.66613  1.0000
  H   H601      1.0  0.18458  0.81439  0.89220  1.0000
  H   H602      1.0  0.19201  0.73818  0.94411  1.0000
  H   H603      1.0  0.11246  0.91839  0.65112  1.0000
  C   C597      1.0  0.05309  0.92473  0.73402  1.0000
  N   N53       1.0  0.11989  0.67231  0.88393  1.0000
  C   C598      1.0  0.11981  0.68805  0.89034  1.0000
  C   C599      1.0  0.12868  0.67068  0.86574  1.0000
  C   C600      1.0  0.12912  0.70246  0.87854  1.0000
  C   C601      1.0  0.13842  0.68463  0.85366  1.0000
  C   C602      1.0  0.13870  0.70057  0.86018  1.0000
  C   C603      1.0  0.10999  0.65739  0.89643  1.0000
  H   H604      1.0  0.11303  0.68925  0.90484  1.0000
  H   H605      1.0  0.12881  0.65815  0.86075  1.0000
  H   H606      1.0  0.12933  0.71473  0.88380  1.0000
  H   H607      1.0  0.14632  0.68263  0.83964  1.0000
  H   H608      1.0  0.14669  0.71121  0.85121  1.0000
  H   H609      1.0  0.11663  0.64319  0.89265  1.0000
  H   H610      1.0  0.11067  0.65578  0.91149  1.0000
  H   H611      1.0  0.09497  0.66101  0.89494  1.0000
  N   N54       1.0  0.09089  0.75584  0.81375  1.0000
  C   C604      1.0  0.08780  0.74523  0.80276  1.0000
  C   C605      1.0  0.09494  0.74724  0.83130  1.0000
  C   C606      1.0  0.08903  0.72541  0.80920  1.0000
  C   C607      1.0  0.09604  0.72749  0.83829  1.0000
  C   C608      1.0  0.09320  0.71652  0.82707  1.0000
  C   C609      1.0  0.08895  0.77670  0.80727  1.0000
  H   H612      1.0  0.08407  0.75207  0.78905  1.0000
  H   H613      1.0  0.09702  0.75572  0.84014  1.0000
  H   H614      1.0  0.08622  0.71709  0.80062  1.0000
  H   H615      1.0  0.09862  0.72086  0.85247  1.0000
  H   H616      1.0  0.09383  0.70122  0.83234  1.0000
  H   H617      1.0  0.10119  0.78133  0.80922  1.0000
  H   H618      1.0  0.08827  0.78158  0.79196  1.0000
  H   H619      1.0  0.07569  0.78406  0.81556  1.0000
  S   S203      1.0  0.23448  0.76832  0.96117  1.0000
  S   S204      1.0  0.22357  0.96817  0.83112  1.0000
  H   H620      1.0  0.09829  0.94119  0.75505  1.0000
  H   H621      1.0  0.08259  0.73419  0.96831  1.0000
  C   C610      1.0  0.12684  0.50420  0.87791  1.0000
  H   H622      1.0  0.09709  0.97224  0.73139  1.0000
  H   H623      1.0  0.17817  0.50244  0.88053  1.0000
  C   C611      1.0  0.22880  0.67309  0.64551  1.0000
  S   S205      1.0  0.16500  0.94900  0.64600  1.0000
  Fe  Fe98      1.0  0.04274  0.84074  0.67414  1.0000
  H   H624      1.0  0.23680  0.56593  0.66776  1.0000
  C   C612      1.0  0.18367  0.81197  0.90738  1.0000
  C   C613      1.0  0.14974  0.51942  0.88132  1.0000
  S   S206      1.0  0.23115  0.64846  0.65532  1.0000
  H   H625      1.0  0.19848  0.82660  0.93933  1.0000
  H   H626      1.0  0.15583  0.74815  0.96269  1.0000
  H   H627      1.0  0.01892  0.81730  0.75842  1.0000
  H   H628      1.0  0.10677  0.53948  0.87240  1.0000
  C   C614      1.0  0.08042  0.88495  0.71139  1.0000
  H   H629      1.0  0.20041  0.59047  0.77619  1.0000
  C   C615      1.0  0.09393  0.88704  0.72035  1.0000
  C   C616      1.0  0.21720  0.77018  0.91337  1.0000
  H   H630      1.0  0.23564  0.78383  0.92087  1.0000
  H   H631      1.0  0.16808  0.93704  0.75745  1.0000
  H   H632      1.0  0.12364  0.55062  0.87598  1.0000
  H   H633      1.0  0.07802  0.91927  0.75586  1.0000
  C   C617      1.0  0.22614  0.77390  0.92600  1.0000
  C   C618      1.0  0.21094  0.75137  0.95152  1.0000
  H   H634      1.0  0.01308  0.83353  0.77439  1.0000
  C   C619      1.0  0.17587  0.63858  0.76457  1.0000
  H   H635      1.0  0.18022  0.62670  0.74003  1.0000
  H   H636      1.0  0.17579  0.65116  0.78755  1.0000
  S   S207      1.0  0.16374  0.92191  0.69880  1.0000
  S   S208      1.0  0.11744  0.90643  0.72684  1.0000
  H   H637      1.0  0.09805  0.87600  0.73224  1.0000
  H   H638      1.0  0.20065  0.89709  0.79055  1.0000
  S   S209      1.0  0.04425  0.83296  0.64657  1.0000
  C   C620      1.0  0.18381  0.64720  0.77433  1.0000
  Fe  Fe99      1.0  0.13380  0.93020  0.71430  1.0000
  C   C621      1.0  0.22217  0.88926  0.88656  1.0000
  C   C622      1.0  0.17374  0.79458  0.93933  1.0000
  H   H639      1.0  0.20880  0.60973  0.79401  1.0000
  H   H640      1.0  0.05886  0.77610  0.91200  1.0000
  H   H641      1.0  0.03459  0.75927  0.91777  1.0000
  C   C623      1.0  0.21226  0.94867  0.76653  1.0000
  C   C624      1.0  0.16069  0.67150  0.72730  1.0000
  S   S210      1.0  0.00519  0.77027  0.85782  1.0000
  C   C625      1.0  0.19634  0.94189  0.74521  1.0000
  H   H642      1.0  0.22479  0.95137  0.76905  1.0000
  H   H643      1.0  0.00107  0.81390  0.80347  1.0000
  C   C626      1.0  0.21218  0.94628  0.74852  1.0000
  H   H644      1.0  0.00142  0.83935  0.75494  1.0000
  C   C627      1.0  0.18606  0.88923  0.64436  1.0000
  H   H645      1.0  0.15364  0.53212  0.88263  1.0000
  N   N55       1.0  0.18223  0.80486  0.94622  1.0000
  C   C628      1.0  0.08868  0.94525  0.74529  1.0000
  H   H646      1.0  0.16780  0.78961  0.91441  1.0000
  C   C629      1.0  0.19470  0.49467  0.74923  1.0000
  Fe  Fe100     1.0  0.17060  0.94115  0.71370  1.0000
  S   S211      1.0  0.19795  0.93563  0.72361  1.0000
  S   S212      1.0  0.23407  0.52622  0.67702  1.0000
  H   H647      1.0  0.12680  0.88805  0.67762  1.0000
  C   C630      1.0  0.17093  0.89344  0.65930  1.0000
  H   H648      1.0  0.04405  0.89650  0.65201  1.0000
  C   C631      1.0  0.17817  0.67699  0.71972  1.0000
  H   H649      1.0  0.16287  0.64501  0.69560  1.0000
  C   C632      1.0  0.20205  0.65102  0.76680  1.0000
  C   C633      1.0  0.19241  0.82229  0.91449  1.0000
  C   C634      1.0  0.20816  0.67673  0.69641  1.0000
  S   S213      1.0  0.14127  0.94708  0.73144  1.0000
  H   H650      1.0  0.09972  0.75922  0.94761  1.0000
  H   H651      1.0  0.22606  0.91258  0.86219  1.0000
  C   C635      1.0  0.22317  0.76434  0.94506  1.0000
  C   C636      1.0  0.13516  0.93245  0.64868  1.0000
  H   H652      1.0  0.08808  0.77993  0.91894  1.0000
  S   S214      1.0  0.12560  0.95601  0.69187  1.0000
  S   S215      1.0  0.16582  0.96708  0.69036  1.0000
  H   H653      1.0  0.14288  0.87770  0.69384  1.0000
  S   S216      1.0  0.21859  0.85875  0.91682  1.0000
  Fe  Fe101     1.0  0.15593  0.94857  0.67724  1.0000
  H   H654      1.0  0.20810  0.65781  0.77432  1.0000
  H   H655      1.0  0.02218  0.68191  0.80759  1.0000
  H   H656      1.0  0.05021  0.92581  0.71983  1.0000
  H   H657      1.0  0.05976  0.90947  0.73899  1.0000
  H   H658      1.0  0.22345  0.90360  0.80582  1.0000
  H   H659      1.0  0.15183  0.67552  0.74029  1.0000
  H   H660      1.0  0.20872  0.74393  0.96625  1.0000
  C   C637      1.0  0.17414  0.79812  0.91986  1.0000
  C   C638      1.0  0.21926  0.60465  0.78237  1.0000
  H   H661      1.0  0.14194  0.65497  0.72485  1.0000
  C   C639      1.0  0.15633  0.87001  0.65579  1.0000
  C   C640      1.0  0.06492  0.95452  0.71976  1.0000
  C   C641      1.0  0.20450  0.63725  0.74008  1.0000
  C   C642      1.0  0.11717  0.53770  0.88134  1.0000
  C   C643      1.0  0.08696  0.75758  0.94436  1.0000
  Fe  Fe102     1.0  0.22390  0.95144  0.80988  1.0000
  N   N56       1.0  0.06557  0.93755  0.73293  1.0000
  H   H662      1.0  0.03944  0.92838  0.74397  1.0000
  C   C644      1.0  0.15900  0.48653  0.87768  1.0000
  H   H663      1.0  0.21329  0.88372  0.88086  1.0000
  C   C645      1.0  0.15518  0.65985  0.71867  1.0000
  Fe  Fe103     1.0  0.23734  0.83828  0.93599  1.0000
  C   C646      1.0  0.21249  0.64591  0.74970  1.0000
  C   C647      1.0  0.16700  0.65411  0.70241  1.0000
  N   N57       1.0  0.15620  0.88405  0.66466  1.0000
  C   C648      1.0  0.21447  0.59371  0.77232  1.0000
  C   C649      1.0  0.99292  0.68130  0.80960  1.0000
  H   H664      1.0  0.12866  0.93787  0.66143  1.0000
  C   C650      1.0  0.07728  0.74349  0.95602  1.0000
  H   H665      1.0  0.20479  0.48843  0.75900  1.0000
  H   H666      1.0  0.17997  0.51682  0.77443  1.0000
  C   C651      1.0  0.23700  0.90276  0.75244  1.0000
  H   H667      1.0  0.13926  0.90288  0.68294  1.0000
  C   C652      1.0  0.07715  0.93290  0.74568  1.0000
  C   C653      1.0  0.07623  0.96724  0.71901  1.0000
  H   H668      1.0  0.21831  0.66632  0.68833  1.0000
  H   H669      1.0  0.01565  0.69218  0.83798  1.0000
  C   C654      1.0  0.08029  0.76934  0.92844  1.0000
  C   C655      1.0  0.16372  0.50270  0.88006  1.0000
  H   H670      1.0  0.11258  0.50476  0.87654  1.0000
  H   H671      1.0  0.20928  0.89692  0.75602  1.0000
  C   C656      1.0  0.13818  0.50347  0.78112  1.0000
  C   C657      1.0  0.21942  0.89898  0.76302  1.0000
  C   C658      1.0  0.18221  0.80044  0.96659  1.0000
  H   H672      1.0  0.02447  0.75598  0.94286  1.0000
  C   C659      1.0  0.23804  0.88724  0.91164  1.0000
  H   H673      1.0  0.99072  0.82837  0.69600  1.0000
  C   C660      1.0  0.08814  0.96256  0.73191  1.0000
  H   H674      1.0  0.06398  0.91920  0.64669  1.0000
  H   H675      1.0  0.07590  0.98060  0.70844  1.0000
  C   C661      1.0  0.22777  0.58739  0.75708  1.0000
  C   C662      1.0  0.99126  0.81089  0.79674  1.0000
  H   H676      1.0  0.30501  0.04183  0.17804  1.0000
  C   C663      1.0  0.30825  0.17200  0.98130  1.0000
  H   H677      1.0  0.26584  0.18816  0.03882  1.0000
  H   H678      1.0  0.26015  0.41861  0.25526  1.0000
  H   H679      1.0  0.32985  0.25396  0.14457  1.0000
  Fe  Fe104     1.0  0.38916  0.31314  0.27556  1.0000
  S   S217      1.0  0.39746  0.30330  0.24786  1.0000
  Fe  Fe105     1.0  0.38077  0.34997  0.29060  1.0000
  S   S218      1.0  0.40763  0.33125  0.27855  1.0000
  H   H680      1.0  0.44712  0.25639  0.12994  1.0000
  Fe  Fe106     1.0  0.27854  0.44994  0.28454  1.0000
  H   H681      1.0  0.47700  0.35079  0.25135  1.0000
  S   S219      1.0  0.29451  0.42613  0.26929  1.0000
  H   H682      1.0  0.29321  0.27727  0.15706  1.0000
  C   C664      1.0  0.45595  0.23614  0.25144  1.0000
  N   N58       1.0  0.32359  0.19277  0.98926  1.0000
  H   H683      1.0  0.48699  0.31264  0.27216  1.0000
  S   S220      1.0  0.26620  0.47935  0.26951  1.0000
  H   H684      1.0  0.29850  0.16225  0.98570  1.0000
  H   H685      1.0  0.44282  0.22139  0.17643  1.0000
  H   H686      1.0  0.43034  0.24910  0.15081  1.0000
  Fe  Fe107     1.0  0.34547  0.24438  0.18510  1.0000
  S   S221      1.0  0.36611  0.25160  0.15782  1.0000
  S   S222      1.0  0.31543  0.24320  0.18485  1.0000
  Fe  Fe108     1.0  0.37618  0.23317  0.20852  1.0000
  S   S223      1.0  0.39964  0.23671  0.18277  1.0000
  S   S224      1.0  0.37989  0.22717  0.23871  1.0000
  Fe  Fe109     1.0  0.37982  0.26417  0.17365  1.0000
  S   S225      1.0  0.39241  0.29043  0.16026  1.0000
  Fe  Fe110     1.0  0.38386  0.22368  0.16923  1.0000
  S   S226      1.0  0.39535  0.20388  0.14882  1.0000
  S   S227      1.0  0.35653  0.26102  0.19968  1.0000
  S   S228      1.0  0.36325  0.21623  0.19642  1.0000
  H   H687      1.0  0.27156  0.21698  0.98008  1.0000
  H   H688      1.0  0.45864  0.28500  0.28124  1.0000
  H   H689      1.0  0.29876  0.22885  0.22680  1.0000
  S   S229      1.0  0.47912  0.28812  0.15395  1.0000
  Fe  Fe111     1.0  0.32146  0.23081  0.08013  1.0000
  S   S230      1.0  0.29888  0.24621  0.10059  1.0000
  S   S231      1.0  0.34998  0.21249  0.08469  1.0000
  Fe  Fe112     1.0  0.29760  0.24226  0.04974  1.0000
  S   S232      1.0  0.27309  0.25826  0.06766  1.0000
  S   S233      1.0  0.29557  0.24421  0.01963  1.0000
  Fe  Fe113     1.0  0.29463  0.26963  0.07478  1.0000
  S   S234      1.0  0.28634  0.30128  0.07378  1.0000
  Fe  Fe114     1.0  0.27903  0.23374  0.09167  1.0000
  S   S235      1.0  0.25320  0.22597  0.11266  1.0000
  S   S236      1.0  0.31903  0.25558  0.05495  1.0000
  S   S237      1.0  0.30189  0.21628  0.07317  1.0000
  H   H690      1.0  0.30647  0.19570  0.22763  1.0000
  Fe  Fe115     1.0  0.28437  0.14509  0.20163  1.0000
  S   S238      1.0  0.26147  0.16303  0.18641  1.0000
  S   S239      1.0  0.31035  0.15618  0.19988  1.0000
  Fe  Fe116     1.0  0.26715  0.10902  0.21229  1.0000
  C   C665      1.0  0.24690  0.17369  0.14395  1.0000
  S   S240      1.0  0.27032  0.07732  0.22576  1.0000
  Fe  Fe117     1.0  0.26491  0.13702  0.17476  1.0000
  S   S241      1.0  0.26750  0.13736  0.14418  1.0000
  N   N59       1.0  0.45021  0.26809  0.26684  1.0000
  C   C666      1.0  0.31191  0.17989  0.99474  1.0000
  S   S242      1.0  0.28933  0.12001  0.18806  1.0000
  S   S243      1.0  0.26472  0.13224  0.22766  1.0000
  H   H691      1.0  0.24369  0.10534  0.15878  1.0000
  N   N60       1.0  0.25575  0.44072  0.23109  1.0000
  C   C667      1.0  0.30950  0.22830  0.23493  1.0000
  S   S244      1.0  0.36240  0.33368  0.28464  1.0000
  C   C668      1.0  0.34017  0.28122  0.10027  1.0000
  H   H692      1.0  0.47827  0.25426  0.13277  1.0000
  C   C669      1.0  0.28380  0.04821  0.16119  1.0000
  C   C670      1.0  0.25503  0.31448  0.03926  1.0000
  C   C671      1.0  0.28126  0.22947  0.99781  1.0000
  C   C672      1.0  0.32751  0.26447  0.13168  1.0000
  C   C673      1.0  0.25165  0.32406  0.08432  1.0000
  C   C674      1.0  0.26068  0.06369  0.21590  1.0000
  H   H693      1.0  0.29874  0.07530  0.18244  1.0000
  C   C675      1.0  0.43505  0.26273  0.26422  1.0000
  C   C676      1.0  0.25877  0.45624  0.23569  1.0000
  C   C677      1.0  0.26176  0.03328  0.20816  1.0000
  C   C678      1.0  0.26811  0.04393  0.21746  1.0000
  H   H694      1.0  0.26327  0.32246  0.04306  1.0000
  H   H695      1.0  0.29498  0.25455  0.15141  1.0000
  H   H696      1.0  0.26802  0.01821  0.20887  1.0000
  H   H697      1.0  0.27922  0.03698  0.22536  1.0000
  C   C679      1.0  0.26320  0.30569  0.08719  1.0000
  C   C680      1.0  0.46861  0.36671  0.27360  1.0000
  S   S245      1.0  0.24308  0.12445  0.19778  1.0000
  C   C681      1.0  0.28375  0.22816  0.01612  1.0000
  H   H698      1.0  0.28582  0.24082  0.98627  1.0000
  H   H699      1.0  0.42552  0.24266  0.25431  1.0000
  C   C682      1.0  0.34518  0.41255  0.28553  1.0000
  C   C683      1.0  0.26999  0.19979  0.02737  1.0000
  C   C684      1.0  0.27785  0.21346  0.03098  1.0000
  C   C685      1.0  0.27666  0.08546  0.16620  1.0000
  H   H700      1.0  0.27970  0.21235  0.04516  1.0000
  H   H701      1.0  0.42349  0.39315  0.30620  1.0000
  C   C686      1.0  0.27066  0.16893  0.11558  1.0000
  C   C687      1.0  0.26774  0.18883  0.10866  1.0000
  C   C688      1.0  0.48691  0.22681  0.17517  1.0000
  H   H702      1.0  0.28077  0.42035  0.23641  1.0000
  N   N61       1.0  0.43505  0.37702  0.28425  1.0000
  H   H703      1.0  0.28130  0.15946  0.10748  1.0000
  H   H704      1.0  0.27572  0.19458  0.09500  1.0000
  C   C689      1.0  0.47136  0.24173  0.25412  1.0000
  C   C690      1.0  0.27323  0.21593  0.99426  1.0000
  C   C691      1.0  0.41692  0.28739  0.15882  1.0000
  C   C692      1.0  0.42786  0.29571  0.14186  1.0000
  C   C693      1.0  0.44701  0.29517  0.14058  1.0000
  C   C694      1.0  0.45540  0.28671  0.15636  1.0000
  C   C695      1.0  0.44468  0.27795  0.17333  1.0000
  C   C696      1.0  0.42546  0.27814  0.17448  1.0000
  H   H705      1.0  0.42141  0.30286  0.12971  1.0000
  H   H706      1.0  0.45523  0.30187  0.12740  1.0000
  H   H707      1.0  0.45107  0.27124  0.18556  1.0000
  H   H708      1.0  0.41709  0.27176  0.18764  1.0000
  C   C697      1.0  0.38189  0.20659  0.13155  1.0000
  C   C698      1.0  0.36344  0.21783  0.13245  1.0000
  C   C699      1.0  0.35348  0.22010  0.11804  1.0000
  C   C700      1.0  0.36177  0.21077  0.10292  1.0000
  C   C701      1.0  0.37996  0.19919  0.10233  1.0000
  C   C702      1.0  0.38996  0.19715  0.11650  1.0000
  H   H709      1.0  0.35677  0.22458  0.14431  1.0000
  H   H710      1.0  0.33934  0.22879  0.11867  1.0000
  H   H711      1.0  0.38645  0.19184  0.09074  1.0000
  H   H712      1.0  0.40409  0.18832  0.11569  1.0000
  C   C703      1.0  0.31313  0.21969  0.18576  1.0000
  C   C704      1.0  0.32920  0.20567  0.18133  1.0000
  C   C705      1.0  0.32799  0.18636  0.18525  1.0000
  C   C706      1.0  0.31049  0.18090  0.19266  1.0000
  C   C707      1.0  0.29401  0.19509  0.19545  1.0000
  C   C708      1.0  0.29536  0.21448  0.19215  1.0000
  H   H713      1.0  0.34274  0.20956  0.17510  1.0000
  H   H714      1.0  0.34077  0.17555  0.18271  1.0000
  H   H715      1.0  0.28039  0.19101  0.20114  1.0000
  H   H716      1.0  0.28273  0.22526  0.19534  1.0000
  H   H717      1.0  0.26840  0.45418  0.24504  1.0000
  H   H718      1.0  0.35306  0.41910  0.29141  1.0000
  N   N62       1.0  0.26592  0.08067  0.15659  1.0000
  C   C709      1.0  0.25471  0.20116  0.11955  1.0000
  H   H719      1.0  0.31945  0.30186  0.08580  1.0000
  H   H720      1.0  0.28590  0.03352  0.15975  1.0000
  C   C710      1.0  0.29095  0.07163  0.17397  1.0000
  C   C711      1.0  0.26952  0.06239  0.15375  1.0000
  H   H721      1.0  0.41714  0.36953  0.27059  1.0000
  H   H722      1.0  0.27953  0.29249  0.03207  1.0000
  H   H723      1.0  0.32534  0.21680  0.99883  1.0000
  C   C712      1.0  0.29445  0.05286  0.17150  1.0000
  H   H724      1.0  0.27378  0.09992  0.16843  1.0000
  H   H725      1.0  0.31690  0.24027  0.22710  1.0000
  C   C713      1.0  0.44709  0.28543  0.27417  1.0000
  C   C714      1.0  0.39196  0.28207  0.24622  1.0000
  C   C715      1.0  0.38487  0.26899  0.26227  1.0000
  C   C716      1.0  0.38146  0.25184  0.26017  1.0000
  C   C717      1.0  0.38467  0.24805  0.24199  1.0000
  C   C718      1.0  0.39164  0.26120  0.22611  1.0000
  C   C719      1.0  0.39554  0.27794  0.22822  1.0000
  H   H726      1.0  0.38207  0.27204  0.27626  1.0000
  H   H727      1.0  0.37598  0.24174  0.27254  1.0000
  H   H728      1.0  0.39408  0.25844  0.21210  1.0000
  H   H729      1.0  0.40119  0.28774  0.21576  1.0000
  C   C720      1.0  0.35311  0.39441  0.28117  1.0000
  C   C721      1.0  0.34287  0.38617  0.27341  1.0000
  C   C722      1.0  0.32489  0.39600  0.26992  1.0000
  C   C723      1.0  0.31692  0.41408  0.27432  1.0000
  C   C724      1.0  0.32706  0.42231  0.28223  1.0000
  C   C725      1.0  0.25607  0.29062  0.10049  1.0000
  H   H730      1.0  0.34900  0.37250  0.26950  1.0000
  H   H731      1.0  0.31721  0.38962  0.26365  1.0000
  N   N63       1.0  0.43631  0.32356  0.18605  1.0000
  C   C726      1.0  0.43360  0.32833  0.16779  1.0000
  C   C727      1.0  0.42124  0.32207  0.20104  1.0000
  C   C728      1.0  0.41541  0.33170  0.16418  1.0000
  C   C729      1.0  0.40285  0.32548  0.19793  1.0000
  C   C730      1.0  0.39999  0.33002  0.17937  1.0000
  C   C731      1.0  0.45559  0.31852  0.18959  1.0000
  H   H732      1.0  0.44562  0.32889  0.15590  1.0000
  H   H733      1.0  0.42339  0.31790  0.21552  1.0000
  H   H734      1.0  0.41336  0.33480  0.14971  1.0000
  H   H735      1.0  0.39097  0.32400  0.20989  1.0000
  H   H736      1.0  0.38593  0.33179  0.17677  1.0000
  H   H737      1.0  0.45594  0.32219  0.20300  1.0000
  H   H738      1.0  0.46111  0.30287  0.19063  1.0000
  H   H739      1.0  0.46531  0.32623  0.17785  1.0000
  N   N64       1.0  0.32316  0.20993  0.23634  1.0000
  C   C732      1.0  0.31953  0.19456  0.23198  1.0000
  C   C733      1.0  0.33941  0.20824  0.24238  1.0000
  C   C734      1.0  0.33278  0.17718  0.23271  1.0000
  C   C735      1.0  0.35293  0.19103  0.24342  1.0000
  C   C736      1.0  0.34964  0.17548  0.23837  1.0000
  H   H740      1.0  0.45822  0.22370  0.24539  1.0000
  H   H741      1.0  0.34222  0.22038  0.24601  1.0000
  H   H742      1.0  0.33004  0.16524  0.22864  1.0000
  H   H743      1.0  0.36605  0.19001  0.24771  1.0000
  H   H744      1.0  0.36017  0.16218  0.23874  1.0000
  Fe  Fe118     1.0  0.25180  0.99841  0.18861  1.0000
  H   H745      1.0  0.26489  0.27643  0.10292  1.0000
  C   C737      1.0  0.46822  0.25795  0.26174  1.0000
  N   N65       1.0  0.30502  0.18476  0.14540  1.0000
  C   C738      1.0  0.32235  0.18929  0.14221  1.0000
  C   C739      1.0  0.30364  0.16620  0.14732  1.0000
  C   C740      1.0  0.33889  0.17500  0.14134  1.0000
  C   C741      1.0  0.31984  0.15152  0.14666  1.0000
  C   C742      1.0  0.33757  0.15598  0.14371  1.0000
  C   C743      1.0  0.28801  0.20011  0.14587  1.0000
  H   H746      1.0  0.32341  0.20398  0.14063  1.0000
  H   H747      1.0  0.28998  0.16263  0.14947  1.0000
  H   H748      1.0  0.35261  0.17867  0.13895  1.0000
  H   H749      1.0  0.31858  0.13681  0.14849  1.0000
  H   H750      1.0  0.35027  0.14475  0.14325  1.0000
  H   H751      1.0  0.28678  0.20790  0.13115  1.0000
  H   H752      1.0  0.27495  0.19436  0.15278  1.0000
  H   H753      1.0  0.28859  0.21035  0.15412  1.0000
  H   H754      1.0  0.30213  0.23070  0.24934  1.0000
  H   H755      1.0  0.48027  0.26250  0.26342  1.0000
  C   C744      1.0  0.45602  0.22642  0.17100  1.0000
  H   H756      1.0  0.29245  0.29552  0.11225  1.0000
  C   C745      1.0  0.30663  0.28764  0.11371  1.0000
  H   H757      1.0  0.46740  0.21099  0.19599  1.0000
  C   C746      1.0  0.45326  0.37623  0.28533  1.0000
  H   H758      1.0  0.35728  0.25991  0.11830  1.0000
  C   C747      1.0  0.24912  0.47480  0.22886  1.0000
  H   H759      1.0  0.44383  0.23189  0.13650  1.0000
  H   H760      1.0  0.27978  0.27554  0.14078  1.0000
  H   H761      1.0  0.25678  0.10395  0.13505  1.0000
  C   C748      1.0  0.43765  0.24672  0.25646  1.0000
  N   N66       1.0  0.45908  0.23843  0.15351  1.0000
  H   H762      1.0  0.26081  0.05843  0.14644  1.0000
  H   H763      1.0  0.26225  0.41009  0.23416  1.0000
  H   H764      1.0  0.25729  0.33585  0.07437  1.0000
  H   H765      1.0  0.35207  0.28374  0.08862  1.0000
  H   H766      1.0  0.44384  0.35232  0.24959  1.0000
  C   C749      1.0  0.41893  0.38632  0.29704  1.0000
  N   N67       1.0  0.30956  0.27409  0.12981  1.0000
  C   C750      1.0  0.46985  0.22048  0.18211  1.0000
  H   H767      1.0  0.48568  0.23374  0.25000  1.0000
  H   H768      1.0  0.42083  0.27089  0.26814  1.0000
  C   C751      1.0  0.34307  0.26782  0.11693  1.0000
  H   H769      1.0  0.44639  0.29828  0.26235  1.0000
  C   C752      1.0  0.25393  0.28685  0.02845  1.0000
  C   C753      1.0  0.26784  0.20087  0.00896  1.0000
  C   C754      1.0  0.32187  0.29134  0.09868  1.0000
  H   H770      1.0  0.40932  0.39755  0.28869  1.0000
  C   C755      1.0  0.29354  0.27025  0.14549  1.0000
  C   C756      1.0  0.26435  0.29753  0.03300  1.0000
  H   H771      1.0  0.32118  0.43639  0.28538  1.0000
  C   C757      1.0  0.47585  0.24454  0.14652  1.0000
  S   S246      1.0  0.26011  0.18225  0.00445  1.0000
  H   H772      1.0  0.43366  0.28703  0.28493  1.0000
  C   C758      1.0  0.46523  0.35816  0.26058  1.0000
  C   C759      1.0  0.43161  0.36875  0.27147  1.0000
  H   H773      1.0  0.34235  0.19495  0.00527  1.0000
  C   C760      1.0  0.26063  0.16144  0.13348  1.0000
  C   C761      1.0  0.44445  0.24420  0.14208  1.0000
  H   H774      1.0  0.26102  0.27351  0.02386  1.0000
  S   S247      1.0  0.37574  0.38223  0.28563  1.0000
  C   C762      1.0  0.44662  0.35912  0.25951  1.0000
  S   S248      1.0  0.24161  0.03044  0.18313  1.0000
  H   H775      1.0  0.24053  0.43085  0.21627  1.0000
  C   C763      1.0  0.26517  0.42144  0.23955  1.0000
  S   S249      1.0  0.25077  0.44497  0.30345  1.0000
  C   C764      1.0  0.24354  0.44315  0.21938  1.0000
  C   C765      1.0  0.24788  0.04240  0.19734  1.0000
  C   C766      1.0  0.24383  0.19357  0.13691  1.0000
  S   S250      1.0  0.48559  0.29959  0.23938  1.0000
  H   H776      1.0  0.48302  0.36575  0.27479  1.0000
  S   S251      1.0  0.38899  0.29413  0.30449  1.0000
  S   S252      1.0  0.48486  0.26460  0.20766  1.0000
  C   C767      1.0  0.32753  0.20089  0.00339  1.0000
  H   H777      1.0  0.45608  0.38262  0.29556  1.0000
  H   H778      1.0  0.31789  0.19777  0.01747  1.0000
  C   C768      1.0  0.24614  0.07244  0.20590  1.0000
  C   C769      1.0  0.25076  0.09538  0.14897  1.0000
  H   H779      1.0  0.30497  0.17593  0.00952  1.0000
  Fe  Fe119     1.0  0.24207  0.14848  0.21120  1.0000
  H   H780      1.0  0.41072  0.37549  0.30642  1.0000
  S   S253      1.0  0.28782  0.46096  0.30510  1.0000
  H   H781      1.0  0.24109  0.11234  0.26411  1.0000
  Fe  Fe120     1.0  0.40596  0.31356  0.30811  1.0000
  C   C770      1.0  0.28429  0.37494  0.32250  1.0000
  C   C771      1.0  0.30831  0.33138  0.63278  1.0000
  S   S254      1.0  0.29413  0.31804  0.62840  1.0000
  N   N68       1.0  0.29422  0.27368  0.39568  1.0000
  H   H782      1.0  0.25855  0.38591  0.44771  1.0000
  H   H783      1.0  0.31981  0.40256  0.32651  1.0000
  H   H784      1.0  0.27469  0.40938  0.37799  1.0000
  H   H785      1.0  0.29032  0.33049  0.38746  1.0000
  H   H786      1.0  0.32794  0.30100  0.57040  1.0000
  H   H787      1.0  0.33494  0.31551  0.60134  1.0000
  S   S255      1.0  0.38066  0.33383  0.32067  1.0000
  Fe  Fe121     1.0  0.36367  0.31635  0.31413  1.0000
  C   C772      1.0  0.32711  0.34360  0.55939  1.0000
  H   H788      1.0  0.33589  0.35637  0.33908  1.0000
  C   C773      1.0  0.27668  0.26915  0.40137  1.0000
  H   H789      1.0  0.35091  0.36935  0.57310  1.0000
  Fe  Fe122     1.0  0.27939  0.32379  0.42706  1.0000
  Fe  Fe123     1.0  0.25911  0.45796  0.32315  1.0000
  S   S256      1.0  0.31106  0.31577  0.41780  1.0000
  S   S257      1.0  0.33453  0.31316  0.33104  1.0000
  N   N69       1.0  0.32657  0.32855  0.57479  1.0000
  C   C774      1.0  0.29482  0.27223  0.42810  1.0000
  C   C775      1.0  0.24947  0.40045  0.44797  1.0000
  H   H790      1.0  0.42024  0.33792  0.32821  1.0000
  C   C776      1.0  0.33576  0.35856  0.55857  1.0000
  H   H791      1.0  0.31761  0.27976  0.37274  1.0000
  H   H792      1.0  0.47365  0.30188  0.30975  1.0000
  H   H793      1.0  0.24552  0.36119  0.53956  1.0000
  Fe  Fe124     1.0  0.26962  0.35000  0.56836  1.0000
  S   S258      1.0  0.26239  0.32525  0.59191  1.0000
  S   S259      1.0  0.28514  0.34380  0.53968  1.0000
  H   H794      1.0  0.30631  0.31809  0.56679  1.0000
  H   H795      1.0  0.27012  0.26535  0.44897  1.0000
  Fe  Fe125     1.0  0.27482  0.33721  0.60930  1.0000
  C   C777      1.0  0.26307  0.40672  0.37360  1.0000
  C   C778      1.0  0.31809  0.36162  0.62709  1.0000
  S   S260      1.0  0.28455  0.36016  0.58503  1.0000
  C   C779      1.0  0.46504  0.34447  0.32314  1.0000
  H   H796      1.0  0.34494  0.37597  0.32178  1.0000
  H   H797      1.0  0.34776  0.30629  0.39380  1.0000
  C   C780      1.0  0.34430  0.34205  0.58867  1.0000
  H   H798      1.0  0.28647  0.41906  0.32639  1.0000
  S   S261      1.0  0.25555  0.40868  0.59579  1.0000
  H   H799      1.0  0.32014  0.42842  0.63831  1.0000
  H   H800      1.0  0.34088  0.35684  0.31396  1.0000
  C   C781      1.0  0.26787  0.26583  0.42062  1.0000
  C   C782      1.0  0.27701  0.26745  0.43404  1.0000
  C   C783      1.0  0.44518  0.34799  0.32741  1.0000
  C   C784      1.0  0.43556  0.33520  0.32479  1.0000
  C   C785      1.0  0.25205  0.43244  0.61959  1.0000
  C   C786      1.0  0.25193  0.35657  0.52635  1.0000
  C   C787      1.0  0.30519  0.35129  0.62617  1.0000
  C   C788      1.0  0.30992  0.39468  0.32540  1.0000
  H   H801      1.0  0.24597  0.45305  0.63730  1.0000
  H   H802      1.0  0.25879  0.41041  0.44672  1.0000
  Fe  Fe126     1.0  0.24717  0.34365  0.45407  1.0000
  H   H803      1.0  0.29299  0.35878  0.62005  1.0000
  H   H804      1.0  0.31596  0.37691  0.62125  1.0000
  H   H805      1.0  0.33419  0.40545  0.63403  1.0000
  H   H806      1.0  0.26481  0.37824  0.39088  1.0000
  H   H807      1.0  0.47199  0.35513  0.36780  1.0000
  H   H808      1.0  0.27435  0.36704  0.32151  1.0000
  H   H809      1.0  0.30993  0.30781  0.59042  1.0000
  H   H810      1.0  0.31713  0.27901  0.40434  1.0000
  N   N70       1.0  0.31577  0.37585  0.32396  1.0000
  C   C789      1.0  0.24110  0.36002  0.51254  1.0000
  C   C790      1.0  0.30324  0.36594  0.32261  1.0000
  C   C791      1.0  0.24929  0.41486  0.61815  1.0000
  C   C792      1.0  0.31729  0.31306  0.57562  1.0000
  H   H811      1.0  0.33564  0.37075  0.54661  1.0000
  C   C793      1.0  0.47527  0.32798  0.31648  1.0000
  C   C794      1.0  0.26826  0.34476  0.49191  1.0000
  C   C795      1.0  0.27918  0.34158  0.50564  1.0000
  C   C796      1.0  0.27106  0.34753  0.52288  1.0000
  C   C797      1.0  0.25994  0.28517  0.63538  1.0000
  C   C798      1.0  0.25355  0.42102  0.36080  1.0000
  H   H812      1.0  0.27467  0.34024  0.47861  1.0000
  H   H813      1.0  0.29397  0.33457  0.50286  1.0000
  S   S262      1.0  0.26473  0.35459  0.42581  1.0000
  C   C799      1.0  0.27823  0.39417  0.32378  1.0000
  H   H814      1.0  0.48820  0.37122  0.35781  1.0000
  Fe  Fe127     1.0  0.25630  0.37821  0.59489  1.0000
  H   H815      1.0  0.29948  0.32826  0.35374  1.0000
  Fe  Fe128     1.0  0.24281  0.30916  0.44251  1.0000
  C   C800      1.0  0.24078  0.42276  0.41904  1.0000
  S   S263      1.0  0.47662  0.36108  0.32609  1.0000
  S   S264      1.0  0.25982  0.31651  0.41299  1.0000
  S   S265      1.0  0.26388  0.31348  0.45675  1.0000
  H   H816      1.0  0.30187  0.27412  0.43830  1.0000
  H   H817      1.0  0.35096  0.34129  0.60023  1.0000
  H   H818      1.0  0.43719  0.36066  0.33270  1.0000
  C   C801      1.0  0.30295  0.27736  0.37538  1.0000
  C   C802      1.0  0.33526  0.32749  0.58918  1.0000
  H   H819      1.0  0.32040  0.34437  0.54786  1.0000
  H   H820      1.0  0.30375  0.26499  0.36921  1.0000
  C   C803      1.0  0.32899  0.31656  0.35438  1.0000
  C   C804      1.0  0.34270  0.31089  0.36556  1.0000
  C   C805      1.0  0.33730  0.31145  0.38496  1.0000
  C   C806      1.0  0.31828  0.31804  0.39305  1.0000
  C   C807      1.0  0.30486  0.32478  0.38153  1.0000
  C   C808      1.0  0.31014  0.32378  0.36233  1.0000
  H   H821      1.0  0.35730  0.30528  0.35948  1.0000
  C   C809      1.0  0.30333  0.27517  0.40877  1.0000
  C   C810      1.0  0.34432  0.35778  0.57338  1.0000
  C   C811      1.0  0.44581  0.31844  0.31861  1.0000
  C   C812      1.0  0.29109  0.40413  0.32526  1.0000
  C   C813      1.0  0.33533  0.36582  0.32480  1.0000
  C   C814      1.0  0.24924  0.35415  0.49530  1.0000
  H   H822      1.0  0.25938  0.44131  0.60732  1.0000
  C   C815      1.0  0.25734  0.38913  0.38112  1.0000
  S   S266      1.0  0.24742  0.35577  0.62031  1.0000
  H   H823      1.0  0.26929  0.26828  0.39098  1.0000
  H   H824      1.0  0.29450  0.29047  0.36773  1.0000
  H   H825      1.0  0.47798  0.36675  0.38301  1.0000
  C   C816      1.0  0.24452  0.43909  0.63656  1.0000
  H   H826      1.0  0.25384  0.26247  0.42512  1.0000
  H   H827      1.0  0.31312  0.41542  0.62467  1.0000
  C   C817      1.0  0.48373  0.36010  0.37042  1.0000
  S   S267      1.0  0.25927  0.44379  0.35378  1.0000
  H   H828      1.0  0.30792  0.35096  0.32163  1.0000
  H   H829      1.0  0.25050  0.43137  0.41910  1.0000
  C   C818      1.0  0.31949  0.41397  0.63701  1.0000
  C   C819      1.0  0.46567  0.31484  0.31450  1.0000
  C   C820      1.0  0.24793  0.30170  0.64057  1.0000
  Fe  Fe129     1.0  0.24420  0.34687  0.41333  1.0000
  S   S268      1.0  0.43416  0.30144  0.31668  1.0000
  H   H830      1.0  0.26359  0.40134  0.32371  1.0000
  S   S269      1.0  0.35117  0.36502  0.63348  1.0000
  C   C821      1.0  0.33391  0.35217  0.63512  1.0000
  H   H831      1.0  0.27519  0.28355  0.63323  1.0000
  S   S270      1.0  0.24207  0.37039  0.57575  1.0000
  C   C822      1.0  0.24177  0.38591  0.37626  1.0000
  H   H832      1.0  0.26157  0.25812  0.62879  1.0000
  C   C823      1.0  0.25216  0.27092  0.63288  1.0000
  C   C824      1.0  0.32376  0.32198  0.64147  1.0000
  Fe  Fe130     1.0  0.28032  0.12164  0.84238  1.0000
  Fe  Fe131     1.0  0.40624  0.35363  0.66567  1.0000
  S   S271      1.0  0.39612  0.34156  0.69648  1.0000
  S   S272      1.0  0.27077  0.20297  0.94865  1.0000
  Fe  Fe132     1.0  0.38541  0.32175  0.68571  1.0000
  S   S273      1.0  0.39219  0.29030  0.69848  1.0000
  Fe  Fe133     1.0  0.36855  0.36170  0.69292  1.0000
  S   S274      1.0  0.35144  0.37968  0.71391  1.0000
  S   S275      1.0  0.25660  0.43820  0.69929  1.0000
  S   S276      1.0  0.24249  0.01303  0.80126  1.0000
  C   C825      1.0  0.34751  0.41100  0.68459  1.0000
  C   C826      1.0  0.45647  0.25621  0.79778  1.0000
  C   C827      1.0  0.33650  0.33240  0.64277  1.0000
  H   H833      1.0  0.42792  0.30160  0.70451  1.0000
  H   H834      1.0  0.48005  0.26873  0.79634  1.0000
  Fe  Fe134     1.0  0.37687  0.24412  0.80340  1.0000
  S   S277      1.0  0.39105  0.21828  0.79096  1.0000
  S   S278      1.0  0.37214  0.27497  0.78787  1.0000
  Fe  Fe135     1.0  0.36864  0.22003  0.84336  1.0000
  S   S279      1.0  0.38248  0.19199  0.83439  1.0000
  S   S280      1.0  0.35419  0.22447  0.87264  1.0000
  Fe  Fe136     1.0  0.40491  0.20816  0.81621  1.0000
  S   S281      1.0  0.43659  0.19821  0.81140  1.0000
  Fe  Fe137     1.0  0.36718  0.20483  0.81018  1.0000
  S   S282      1.0  0.34999  0.19218  0.79766  1.0000
  S   S283      1.0  0.39228  0.23504  0.82727  1.0000
  S   S284      1.0  0.35186  0.23169  0.82051  1.0000
  H   H835      1.0  0.38778  0.38912  0.69466  1.0000
  H   H836      1.0  0.31680  0.23392  0.85019  1.0000
  C   C828      1.0  0.30815  0.22313  0.85467  1.0000
  C   C829      1.0  0.32901  0.18999  0.95679  1.0000
  H   H837      1.0  0.29989  0.04613  0.78694  1.0000
  S   S285      1.0  0.47229  0.22210  0.86757  1.0000
  H   H838      1.0  0.34874  0.32503  0.64895  1.0000
  H   H839      1.0  0.26962  0.10485  0.77708  1.0000
  Fe  Fe138     1.0  0.27616  0.17739  0.93582  1.0000
  S   S286      1.0  0.30251  0.16500  0.91697  1.0000
  N   N71       1.0  0.40180  0.39427  0.71367  1.0000
  C   C830      1.0  0.34079  0.27571  0.75078  1.0000
  S   S287      1.0  0.30097  0.13278  0.85214  1.0000
  H   H840      1.0  0.29488  0.42997  0.70599  1.0000
  H   H841      1.0  0.27344  0.99769  0.82154  1.0000
  H   H842      1.0  0.28961  0.01366  0.83618  1.0000
  H   H843      1.0  0.31844  0.11563  0.88904  1.0000
  H   H844      1.0  0.33236  0.38747  0.66557  1.0000
  C   C831      1.0  0.34045  0.20748  0.88519  1.0000
  C   C832      1.0  0.32766  0.21054  0.90203  1.0000
  C   C833      1.0  0.31591  0.19754  0.91182  1.0000
  C   C834      1.0  0.31729  0.18121  0.90507  1.0000
  C   C835      1.0  0.33027  0.17798  0.88839  1.0000
  C   C836      1.0  0.34169  0.19124  0.87832  1.0000
  H   H845      1.0  0.32660  0.22319  0.90727  1.0000
  H   H846      1.0  0.30594  0.20017  0.92462  1.0000
  H   H847      1.0  0.33134  0.16540  0.88306  1.0000
  H   H848      1.0  0.35144  0.18886  0.86529  1.0000
  C   C837      1.0  0.33701  0.17506  0.81273  1.0000
  C   C838      1.0  0.32420  0.16918  0.80576  1.0000
  C   C839      1.0  0.31325  0.15598  0.81760  1.0000
  C   C840      1.0  0.31515  0.14850  0.83646  1.0000
  C   C841      1.0  0.32805  0.15428  0.84339  1.0000
  C   C842      1.0  0.33891  0.16757  0.83160  1.0000
  H   H849      1.0  0.32267  0.17492  0.79118  1.0000
  H   H850      1.0  0.30330  0.15164  0.81215  1.0000
  H   H851      1.0  0.32964  0.14853  0.85795  1.0000
  H   H852      1.0  0.34875  0.17198  0.83710  1.0000
  C   C843      1.0  0.44677  0.20351  0.82763  1.0000
  C   C844      1.0  0.43615  0.20611  0.84555  1.0000
  C   C845      1.0  0.44432  0.21120  0.85798  1.0000
  C   C846      1.0  0.46292  0.21423  0.85233  1.0000
  C   C847      1.0  0.47353  0.21147  0.83447  1.0000
  C   C848      1.0  0.46557  0.20588  0.82225  1.0000
  H   H853      1.0  0.42168  0.20409  0.84987  1.0000
  H   H854      1.0  0.43607  0.21310  0.87186  1.0000
  H   H855      1.0  0.44007  0.41483  0.70092  1.0000
  H   H856      1.0  0.47381  0.20387  0.80839  1.0000
  C   C849      1.0  0.24842  0.06066  0.75866  1.0000
  S   S288      1.0  0.35646  0.34057  0.68552  1.0000
  H   H857      1.0  0.31820  0.21248  0.82875  1.0000
  C   C850      1.0  0.28635  0.07609  0.78282  1.0000
  C   C851      1.0  0.30639  0.38333  0.68530  1.0000
  S   S289      1.0  0.27277  0.09558  0.86390  1.0000
  C   C852      1.0  0.38832  0.28648  0.72325  1.0000
  C   C853      1.0  0.37820  0.30135  0.73252  1.0000
  C   C854      1.0  0.37398  0.29783  0.75242  1.0000
  C   C855      1.0  0.37967  0.27942  0.76308  1.0000
  C   C856      1.0  0.39027  0.26470  0.75378  1.0000
  C   C857      1.0  0.39459  0.26823  0.73386  1.0000
  H   H858      1.0  0.37307  0.31541  0.72444  1.0000
  H   H859      1.0  0.36575  0.30925  0.75958  1.0000
  H   H860      1.0  0.39500  0.25059  0.76186  1.0000
  H   H861      1.0  0.40252  0.25674  0.72670  1.0000
  C   C858      1.0  0.44603  0.36572  0.67028  1.0000
  C   C859      1.0  0.43949  0.36056  0.68992  1.0000
  C   C860      1.0  0.44860  0.36405  0.70251  1.0000
  C   C861      1.0  0.46439  0.37262  0.69550  1.0000
  S   S290      1.0  0.25004  0.13734  0.84282  1.0000
  C   C862      1.0  0.46200  0.37403  0.66330  1.0000
  H   H862      1.0  0.42742  0.35395  0.69550  1.0000
  H   H863      1.0  0.44337  0.36019  0.71769  1.0000
  C   C863      1.0  0.31693  0.17703  0.96223  1.0000
  H   H864      1.0  0.26092  0.11951  0.95169  1.0000
  C   C864      1.0  0.33894  0.40128  0.70224  1.0000
  C   C865      1.0  0.32006  0.40842  0.71016  1.0000
  C   C866      1.0  0.30951  0.42465  0.69992  1.0000
  S   S291      1.0  0.26414  0.15832  0.96259  1.0000
  H   H865      1.0  0.31342  0.40113  0.72395  1.0000
  H   H866      1.0  0.29098  0.10491  0.88839  1.0000
  S   S292      1.0  0.28400  0.05277  0.83910  1.0000
  N   N72       1.0  0.44512  0.26098  0.83509  1.0000
  C   C867      1.0  0.46118  0.26671  0.82387  1.0000
  C   C868      1.0  0.43427  0.25353  0.82787  1.0000
  C   C869      1.0  0.46715  0.26435  0.80508  1.0000
  C   C870      1.0  0.43984  0.25089  0.80917  1.0000
  C   C871      1.0  0.43903  0.26358  0.85474  1.0000
  Fe  Fe139     1.0  0.24345  0.45937  0.71803  1.0000
  H   H867      1.0  0.42150  0.24908  0.83675  1.0000
  H   H868      1.0  0.43155  0.24428  0.80374  1.0000
  H   H869      1.0  0.42877  0.27742  0.85538  1.0000
  H   H870      1.0  0.43236  0.25160  0.86410  1.0000
  H   H871      1.0  0.45133  0.26329  0.86067  1.0000
  N   N73       1.0  0.28719  0.19445  0.86710  1.0000
  C   C872      1.0  0.27631  0.17916  0.87392  1.0000
  C   C873      1.0  0.46290  0.31932  0.67029  1.0000
  H   H872      1.0  0.29552  0.07982  0.78980  1.0000
  C   C874      1.0  0.44085  0.30706  0.69810  1.0000
  H   H873      1.0  0.40900  0.40312  0.66570  1.0000
  C   C875      1.0  0.45204  0.30911  0.70949  1.0000
  H   H874      1.0  0.37495  0.21114  0.76089  1.0000
  C   C876      1.0  0.41083  0.40318  0.67965  1.0000
  H   H875      1.0  0.26102  0.18540  0.87433  1.0000
  H   H876      1.0  0.25264  0.06758  0.81954  1.0000
  H   H877      1.0  0.34146  0.20798  0.96623  1.0000
  C   C877      1.0  0.31792  0.43373  0.68185  1.0000
  C   C878      1.0  0.30900  0.21110  0.84275  1.0000
  C   C879      1.0  0.28467  0.10770  0.90248  1.0000
  H   H878      1.0  0.36396  0.24647  0.72020  1.0000
  C   C880      1.0  0.28887  0.41000  0.65785  1.0000
  C   C881      1.0  0.29635  0.22102  0.87265  1.0000
  H   H879      1.0  0.37408  0.21480  0.73639  1.0000
  H   H880      1.0  0.33585  0.19400  0.94197  1.0000
  H   H881      1.0  0.31350  0.37327  0.69608  1.0000
  C   C882      1.0  0.44628  0.31222  0.67838  1.0000
  Fe  Fe140     1.0  0.27197  0.08404  0.83944  1.0000
  S   S293      1.0  0.25396  0.47582  0.66326  1.0000
  S   S294      1.0  0.30478  0.45295  0.66804  1.0000
  C   C883      1.0  0.33215  0.19782  0.97057  1.0000
  C   C884      1.0  0.25967  0.08484  0.76749  1.0000
  H   H882      1.0  0.27832  0.17114  0.88839  1.0000
  C   C885      1.0  0.33700  0.42712  0.67436  1.0000
  Fe  Fe141     1.0  0.27423  0.45966  0.68226  1.0000
  H   H883      1.0  0.35410  0.20863  0.75483  1.0000
  H   H884      1.0  0.26157  0.09346  0.90646  1.0000
  C   C886      1.0  0.27779  0.40193  0.67485  1.0000
  S   S295      1.0  0.47493  0.37798  0.71136  1.0000
  S   S296      1.0  0.37950  0.37546  0.66288  1.0000
  N   N74       1.0  0.26170  0.06610  0.76667  1.0000
  C   C887      1.0  0.34071  0.26206  0.76780  1.0000
  H   H885      1.0  0.34884  0.23228  0.78062  1.0000
  H   H886      1.0  0.33500  0.26646  0.78129  1.0000
  H   H887      1.0  0.31423  0.17098  0.95166  1.0000
  N   N75       1.0  0.35710  0.23735  0.75043  1.0000
  C   C888      1.0  0.28665  0.38863  0.68871  1.0000
  H   H888      1.0  0.29574  0.23020  0.88207  1.0000
  H   H889      1.0  0.34974  0.28062  0.72027  1.0000
  C   C889      1.0  0.26876  0.01289  0.82125  1.0000
  H   H890      1.0  0.33511  0.29079  0.75097  1.0000
  C   C890      1.0  0.27208  0.04169  0.82902  1.0000
  H   H891      1.0  0.34364  0.43436  0.66054  1.0000
  C   C891      1.0  0.42558  0.41051  0.68138  1.0000
  C   C892      1.0  0.42822  0.40981  0.69941  1.0000
  H   H892      1.0  0.24662  0.10061  0.93833  1.0000
  Fe  Fe142     1.0  0.25124  0.12174  0.82007  1.0000
  C   C893      1.0  0.30961  0.12506  0.89888  1.0000
  C   C894      1.0  0.28439  0.12197  0.92756  1.0000
  H   H893      1.0  0.46109  0.25392  0.78337  1.0000
  C   C895      1.0  0.26778  0.11576  0.93804  1.0000
  H   H894      1.0  0.36227  0.40633  0.67880  1.0000
  S   S297      1.0  0.43462  0.36205  0.65409  1.0000
  H   H895      1.0  0.41857  0.40075  0.72944  1.0000
  N   N76       1.0  0.29270  0.11775  0.91009  1.0000
  Fe  Fe143     1.0  0.24290  0.11064  0.86322  1.0000
  H   H896      1.0  0.46959  0.27298  0.82945  1.0000
  C   C896      1.0  0.46856  0.31630  0.70093  1.0000
  C   C897      1.0  0.34886  0.24281  0.76735  1.0000
  H   H897      1.0  0.27796  0.03753  0.77228  1.0000
  C   C898      1.0  0.34899  0.27000  0.73356  1.0000
  C   C899      1.0  0.39900  0.39510  0.69605  1.0000
  S   S298      1.0  0.28242  0.10853  0.81763  1.0000
  H   H898      1.0  0.46716  0.37806  0.64812  1.0000
  H   H899      1.0  0.39431  0.38335  0.74377  1.0000
  N   N77       1.0  0.47368  0.32146  0.68156  1.0000
  S   S299      1.0  0.24117  0.09658  0.84086  1.0000
  C   C900      1.0  0.25384  0.02362  0.81238  1.0000
  H   H900      1.0  0.29875  0.18778  0.83971  1.0000
  C   C901      1.0  0.47114  0.37749  0.67588  1.0000
  H   H901      1.0  0.27727  0.20458  0.89291  1.0000
  H   H902      1.0  0.47714  0.31802  0.70984  1.0000
  H   H903      1.0  0.38777  0.37145  0.72913  1.0000
  H   H904      1.0  0.29050  0.13028  0.93344  1.0000
  C   C902      1.0  0.27791  0.02195  0.82951  1.0000
  C   C903      1.0  0.29813  0.19694  0.84914  1.0000
  C   C904      1.0  0.36547  0.21703  0.75050  1.0000
  C   C905      1.0  0.28595  0.20647  0.87870  1.0000
  C   C906      1.0  0.38911  0.38565  0.73052  1.0000
  C   C907      1.0  0.35718  0.25064  0.73364  1.0000
  C   C908      1.0  0.26817  0.10110  0.91265  1.0000
  Fe  Fe144     1.0  0.36920  0.35309  0.65549  1.0000
  H   H905      1.0  0.30531  0.13959  0.89018  1.0000
  H   H906      1.0  0.32620  0.30658  0.64670  1.0000
  C   C909      1.0  0.25976  0.10511  0.93057  1.0000
  H   H907      1.0  0.27823  0.38265  0.70217  1.0000
  H   H908      1.0  0.37472  0.39506  0.73197  1.0000
  S   S300      1.0  0.39733  0.33245  0.65486  1.0000
  H   H909      1.0  0.28103  0.16854  0.86463  1.0000
  C   C910      1.0  0.27636  0.05241  0.77289  1.0000
  N   N78       1.0  0.30821  0.40464  0.65457  1.0000
  H   H910      1.0  0.46677  0.32365  0.65494  1.0000
  H   H911      1.0  0.31864  0.12601  0.90817  1.0000
  C   C911      1.0  0.31701  0.39150  0.66803  1.0000
  H   H912      1.0  0.25290  0.05847  0.87082  1.0000
  C   C912      1.0  0.25700  0.05233  0.82034  1.0000
  H   H913      1.0  0.26243  0.40629  0.67739  1.0000
  S   S301      1.0  0.24959  0.18667  0.92446  1.0000
  H   H914      1.0  0.48788  0.21355  0.83007  1.0000
  Fe  Fe145     1.0  0.24271  0.21050  0.93998  1.0000
  H   H915      1.0  0.44787  0.30526  0.72485  1.0000
  C   C913      1.0  0.27178  0.09008  0.77580  1.0000
  H   H916      1.0  0.43750  0.31100  0.66940  1.0000
  C   C914      1.0  0.41610  0.40161  0.71552  1.0000
  H   H917      1.0  0.48308  0.38445  0.67034  1.0000
  C   C915      1.0  0.28884  0.05718  0.78115  1.0000
  H   H918      1.0  0.25441  0.06023  0.74347  1.0000
  H   H919      1.0  0.43530  0.41617  0.66878  1.0000
  C   C916      1.0  0.24794  0.04332  0.81200  1.0000
  S   S302      1.0  0.26356  0.47901  0.70287  1.0000
  H   H920      1.0  0.28190  0.42074  0.64736  1.0000
  H   H921      1.0  0.24835  0.09580  0.76211  1.0000
  H   H922      1.0  0.30902  0.48297  0.68553  1.0000
  H   H923      1.0  0.24082  0.13765  0.88998  1.0000
  H   H924      1.0  0.25056  0.01938  0.87512  1.0000
  H   H925      1.0  0.24541  0.04635  0.76661  1.0000
  H   H926      1.0  0.24075  0.04637  0.89330  1.0000
  H   H927      1.0  0.25382  0.31289  0.64245  1.0000
  Fe  Fe146     1.0  0.25639  0.18474  0.97480  1.0000
  C   C917      1.0  0.32505  0.93874  0.17029  1.0000
  S   S303      1.0  0.39546  0.73209  0.27775  1.0000
  C   C918      1.0  0.35699  0.92564  0.15568  1.0000
  H   H928      1.0  0.33136  0.77098  0.30525  1.0000
  C   C919      1.0  0.26568  0.91853  0.12166  1.0000
  H   H929      1.0  0.33228  0.92708  0.14512  1.0000
  H   H930      1.0  0.40629  0.68893  0.26007  1.0000
  Fe  Fe147     1.0  0.37840  0.70938  0.29067  1.0000
  S   S304      1.0  0.36429  0.70021  0.27240  1.0000
  H   H931      1.0  0.38960  0.71261  0.23756  1.0000
  S   S305      1.0  0.28224  0.98358  0.18125  1.0000
  S   S306      1.0  0.28326  0.51765  0.28197  1.0000
  H   H932      1.0  0.43201  0.78743  0.27697  1.0000
  S   S307      1.0  0.26643  0.63586  0.25765  1.0000
  S   S308      1.0  0.29320  0.60700  0.29682  1.0000
  Fe  Fe148     1.0  0.27147  0.63267  0.28699  1.0000
  C   C920      1.0  0.25551  0.93328  0.15467  1.0000
  H   H933      1.0  0.33703  0.68452  0.26370  1.0000
  H   H934      1.0  0.26943  0.91321  0.10872  1.0000
  C   C921      1.0  0.26701  0.75554  0.00131  1.0000
  Fe  Fe149     1.0  0.41528  0.71475  0.29683  1.0000
  Fe  Fe150     1.0  0.38279  0.88067  0.19976  1.0000
  S   S309      1.0  0.37639  0.85687  0.22461  1.0000
  S   S310      1.0  0.39658  0.90250  0.20395  1.0000
  Fe  Fe151     1.0  0.36334  0.86820  0.17521  1.0000
  S   S311      1.0  0.35597  0.84273  0.19770  1.0000
  S   S312      1.0  0.35168  0.88021  0.14846  1.0000
  Fe  Fe152     1.0  0.34789  0.86275  0.21761  1.0000
  S   S313      1.0  0.31985  0.86511  0.23784  1.0000
  Fe  Fe153     1.0  0.38528  0.83872  0.20275  1.0000
  S   S314      1.0  0.40434  0.81016  0.21099  1.0000
  S   S315      1.0  0.35316  0.88853  0.19496  1.0000
  S   S316      1.0  0.39378  0.86228  0.17813  1.0000
  H   H935      1.0  0.38351  0.74658  0.22050  1.0000
  C   C922      1.0  0.24977  0.83046  0.03683  1.0000
  Fe  Fe154     1.0  0.37998  0.74542  0.30238  1.0000
  Fe  Fe155     1.0  0.27546  0.96411  0.20976  1.0000
  S   S317      1.0  0.29559  0.95442  0.22958  1.0000
  S   S318      1.0  0.26708  0.94306  0.19849  1.0000
  Fe  Fe156     1.0  0.28076  0.84407  0.11511  1.0000
  S   S319      1.0  0.27748  0.87400  0.09746  1.0000
  S   S320      1.0  0.30594  0.82941  0.12874  1.0000
  H   H936      1.0  0.29283  0.84265  0.18964  1.0000
  C   C923      1.0  0.29865  0.89531  0.17495  1.0000
  Fe  Fe157     1.0  0.26512  0.86244  0.07939  1.0000
  S   S321      1.0  0.27274  0.86968  0.04734  1.0000
  H   H937      1.0  0.24186  0.74945  0.99750  1.0000
  C   C924      1.0  0.27426  0.76555  0.01026  1.0000
  S   S322      1.0  0.27108  0.83192  0.09547  1.0000
  N   N79       1.0  0.28714  0.86965  0.17051  1.0000
  C   C925      1.0  0.26533  0.85587  0.03575  1.0000
  C   C926      1.0  0.34093  0.64573  0.30047  1.0000
  C   C927      1.0  0.33208  0.94227  0.18439  1.0000
  C   C928      1.0  0.26190  0.77671  0.02262  1.0000
  S   S323      1.0  0.28267  0.65293  0.29695  1.0000
  C   C929      1.0  0.27136  0.93768  0.14086  1.0000
  H   H938      1.0  0.46165  0.84529  0.17446  1.0000
  H   H939      1.0  0.32394  0.65518  0.27910  1.0000
  H   H940      1.0  0.47883  0.83124  0.18883  1.0000
  S   S324      1.0  0.48451  0.89778  0.17129  1.0000
  H   H941      1.0  0.47016  0.86419  0.21110  1.0000
  C   C930      1.0  0.43917  0.83976  0.20847  1.0000
  C   C931      1.0  0.46870  0.84513  0.18592  1.0000
  C   C932      1.0  0.45770  0.85802  0.21490  1.0000
  C   C933      1.0  0.24743  0.75692  0.00482  1.0000
  C   C934      1.0  0.31235  0.88942  0.23869  1.0000
  C   C935      1.0  0.29343  0.89854  0.23859  1.0000
  C   C936      1.0  0.28802  0.91853  0.23654  1.0000
  C   C937      1.0  0.30145  0.92930  0.23494  1.0000
  C   C938      1.0  0.32009  0.92002  0.23621  1.0000
  C   C939      1.0  0.32563  0.90012  0.23770  1.0000
  H   H942      1.0  0.28315  0.89027  0.23934  1.0000
  H   H943      1.0  0.27349  0.92561  0.23609  1.0000
  H   H944      1.0  0.33035  0.92828  0.23546  1.0000
  H   H945      1.0  0.34024  0.89306  0.23795  1.0000
  C   C940      1.0  0.33869  0.86609  0.14345  1.0000
  C   C941      1.0  0.34066  0.84648  0.15164  1.0000
  C   C942      1.0  0.33053  0.83538  0.14703  1.0000
  C   C943      1.0  0.31816  0.84386  0.13446  1.0000
  C   C944      1.0  0.31599  0.86353  0.12648  1.0000
  C   C945      1.0  0.32637  0.87457  0.13081  1.0000
  H   H946      1.0  0.35036  0.83974  0.16114  1.0000
  H   H947      1.0  0.33236  0.82015  0.15321  1.0000
  H   H948      1.0  0.30657  0.87025  0.11675  1.0000
  H   H949      1.0  0.32478  0.88974  0.12444  1.0000
  C   C946      1.0  0.42113  0.90029  0.19511  1.0000
  C   C947      1.0  0.43181  0.90647  0.20433  1.0000
  H   H950      1.0  0.27681  0.87097  0.14595  1.0000
  C   C948      1.0  0.46013  0.89880  0.18055  1.0000
  C   C949      1.0  0.44939  0.89292  0.17113  1.0000
  C   C950      1.0  0.42999  0.89329  0.17860  1.0000
  H   H951      1.0  0.28888  0.93341  0.11374  1.0000
  C   C951      1.0  0.26799  0.86033  0.01584  1.0000
  H   H952      1.0  0.45611  0.88796  0.15810  1.0000
  H   H953      1.0  0.42179  0.88878  0.17123  1.0000
  C   C952      1.0  0.26127  0.85006  0.00646  1.0000
  H   H954      1.0  0.25477  0.61993  0.23239  1.0000
  C   C953      1.0  0.44465  0.86064  0.23171  1.0000
  S   S325      1.0  0.44591  0.71358  0.28264  1.0000
  H   H955      1.0  0.41830  0.85465  0.24980  1.0000
  C   C954      1.0  0.29442  0.85747  0.18544  1.0000
  H   H956      1.0  0.42753  0.68352  0.24238  1.0000
  C   C955      1.0  0.27775  0.55258  0.29046  1.0000
  C   C956      1.0  0.46052  0.71082  0.29860  1.0000
  Fe  Fe158     1.0  0.24814  0.87820  0.11539  1.0000
  S   S326      1.0  0.24595  0.98045  0.21800  1.0000
  H   H957      1.0  0.28234  0.55767  0.27533  1.0000
  C   C957      1.0  0.27586  0.86313  0.16102  1.0000
  H   H958      1.0  0.45943  0.91027  0.20445  1.0000
  C   C958      1.0  0.39486  0.80101  0.23485  1.0000
  C   C959      1.0  0.40603  0.78660  0.24610  1.0000
  C   C960      1.0  0.39826  0.77938  0.26518  1.0000
  C   C961      1.0  0.37941  0.78679  0.27306  1.0000
  C   C962      1.0  0.36847  0.80152  0.26192  1.0000
  C   C963      1.0  0.37609  0.80842  0.24280  1.0000
  H   H959      1.0  0.42065  0.78109  0.24012  1.0000
  H   H960      1.0  0.40686  0.76819  0.27384  1.0000
  H   H961      1.0  0.35392  0.80731  0.26783  1.0000
  H   H962      1.0  0.36725  0.81929  0.23417  1.0000
  C   C964      1.0  0.35562  0.67906  0.28314  1.0000
  H   H963      1.0  0.25919  0.66489  0.21991  1.0000
  C   C965      1.0  0.43976  0.78155  0.28840  1.0000
  C   C966      1.0  0.43968  0.76280  0.29879  1.0000
  C   C967      1.0  0.33447  0.65833  0.28473  1.0000
  C   C968      1.0  0.34196  0.67488  0.27596  1.0000
  S   S327      1.0  0.25206  0.84880  0.13401  1.0000
  H   H964      1.0  0.28100  0.84760  0.16088  1.0000
  H   H965      1.0  0.44713  0.86873  0.24070  1.0000
  C   C969      1.0  0.48933  0.71543  0.30466  1.0000
  H   H966      1.0  0.45035  0.80718  0.28461  1.0000
  C   C970      1.0  0.25642  0.84073  0.04619  1.0000
  H   H967      1.0  0.43203  0.75390  0.29544  1.0000
  H   H968      1.0  0.31305  0.88831  0.19822  1.0000
  S   S328      1.0  0.28498  0.95201  0.14447  1.0000
  H   H969      1.0  0.25420  0.83722  0.06151  1.0000
  C   C971      1.0  0.43023  0.72382  0.23811  1.0000
  H   H970      1.0  0.27492  0.87200  0.00767  1.0000
  N   N80       1.0  0.41669  0.71321  0.24158  1.0000
  C   C972      1.0  0.42861  0.85262  0.23687  1.0000
  C   C973      1.0  0.30594  0.88305  0.19031  1.0000
  H   H971      1.0  0.30995  0.94238  0.17065  1.0000
  H   H972      1.0  0.42841  0.69139  0.26311  1.0000
  Fe  Fe159     1.0  0.27090  0.96393  0.17066  1.0000
  N   N81       1.0  0.32327  0.83401  0.07689  1.0000
  C   C974      1.0  0.33373  0.83975  0.08610  1.0000
  C   C975      1.0  0.31498  0.84682  0.06289  1.0000
  C   C976      1.0  0.33579  0.85883  0.08166  1.0000
  C   C977      1.0  0.31676  0.86601  0.05807  1.0000
  C   C978      1.0  0.32715  0.87205  0.06761  1.0000
  C   C979      1.0  0.32132  0.81392  0.08197  1.0000
  H   H973      1.0  0.34013  0.82964  0.09736  1.0000
  H   H974      1.0  0.30668  0.84236  0.05550  1.0000
  H   H975      1.0  0.34373  0.86337  0.08936  1.0000
  H   H976      1.0  0.30979  0.87618  0.04723  1.0000
  H   H977      1.0  0.32835  0.88697  0.06423  1.0000
  H   H978      1.0  0.31618  0.80957  0.09759  1.0000
  H   H979      1.0  0.31091  0.81160  0.07499  1.0000
  H   H980      1.0  0.33522  0.80448  0.07774  1.0000
  H   H981      1.0  0.28369  0.89783  0.15324  1.0000
  C   C980      1.0  0.47793  0.71664  0.29193  1.0000
  H   H982      1.0  0.40765  0.76631  0.21470  1.0000
  S   S329      1.0  0.24096  0.98055  0.17531  1.0000
  H   H983      1.0  0.25146  0.93883  0.16748  1.0000
  H   H984      1.0  0.28938  0.76500  0.00732  1.0000
  C   C981      1.0  0.45133  0.90544  0.19725  1.0000
  C   C982      1.0  0.42598  0.84188  0.22534  1.0000
  H   H985      1.0  0.27641  0.74720  0.99128  1.0000
  H   H986      1.0  0.47684  0.85682  0.18043  1.0000
  H   H987      1.0  0.37244  0.94394  0.19442  1.0000
  H   H988      1.0  0.44326  0.71760  0.24335  1.0000
  C   C983      1.0  0.35809  0.94049  0.19953  1.0000
  C   C984      1.0  0.39678  0.74024  0.22521  1.0000
  H   H989      1.0  0.43781  0.75150  0.22598  1.0000
  H   H990      1.0  0.43689  0.83147  0.19955  1.0000
  C   C985      1.0  0.41032  0.75129  0.22198  1.0000
  H   H991      1.0  0.26288  0.85394  0.99116  1.0000
  H   H992      1.0  0.25264  0.95105  0.25728  1.0000
  H   H993      1.0  0.37861  0.92527  0.17007  1.0000
  H   H994      1.0  0.26073  0.86567  0.16836  1.0000
  H   H995      1.0  0.42497  0.91205  0.21701  1.0000
  C   C986      1.0  0.27657  0.93012  0.12443  1.0000
  C   C987      1.0  0.30397  0.86397  0.19553  1.0000
  C   C988      1.0  0.25186  0.83531  0.01700  1.0000
  C   C989      1.0  0.24961  0.91449  0.13536  1.0000
  C   C990      1.0  0.27662  0.53328  0.29771  1.0000
  H   H996      1.0  0.26481  0.65382  0.18979  1.0000
  C   C991      1.0  0.32556  0.80752  0.30788  1.0000
  H   H997      1.0  0.35910  0.92701  0.21063  1.0000
  C   C992      1.0  0.40030  0.72104  0.23492  1.0000
  C   C993      1.0  0.33760  0.93029  0.15591  1.0000
  C   C994      1.0  0.42723  0.74301  0.22833  1.0000
  C   C995      1.0  0.41992  0.69326  0.25224  1.0000
  H   H998      1.0  0.32217  0.94846  0.19573  1.0000
  H   H999      1.0  0.31405  0.53500  0.30573  1.0000
  Fe  Fe160     1.0  0.27259  0.49007  0.29205  1.0000
  C   C996      1.0  0.44993  0.79264  0.29275  1.0000
  H   H1000     1.0  0.34850  0.95232  0.20612  1.0000
  H   H1001     1.0  0.48253  0.72228  0.27691  1.0000
  H   H1002     1.0  0.30971  0.85434  0.20742  1.0000
  H   H1003     1.0  0.41381  0.83519  0.22943  1.0000
  N   N82       1.0  0.45468  0.84801  0.20333  1.0000
  H   H1004     1.0  0.36677  0.91847  0.14490  1.0000
  C   C997      1.0  0.24483  0.92156  0.15201  1.0000
  C   C998      1.0  0.24732  0.66440  0.21431  1.0000
  C   C999      1.0  0.28923  0.88830  0.16518  1.0000
  H   H1005     1.0  0.30018  0.91015  0.17061  1.0000
  N   N83       1.0  0.35112  0.93780  0.18399  1.0000
  C   C1000     1.0  0.36357  0.92953  0.16992  1.0000
  H   H1006     1.0  0.24431  0.78778  0.07029  1.0000
  H   H1007     1.0  0.24210  0.54008  0.28851  1.0000
  H   H1008     1.0  0.26722  0.78501  0.02929  1.0000
  Fe  Fe161     1.0  0.24182  0.83986  0.11266  1.0000
  C   C1001     1.0  0.25047  0.65801  0.19755  1.0000
  H   H1009     1.0  0.32694  0.80527  0.29339  1.0000
  H   H1010     1.0  0.27361  0.58023  0.29688  1.0000
  S   S330      1.0  0.36917  0.77718  0.29653  1.0000
  H   H1011     1.0  0.24538  0.81002  0.08953  1.0000
  C   C1002     1.0  0.27297  0.56536  0.30269  1.0000
  H   H1012     1.0  0.33616  0.59831  0.28461  1.0000
  C   C1003     1.0  0.24439  0.63145  0.25771  1.0000
  C   C1004     1.0  0.24240  0.77776  0.02578  1.0000
  H   H1013     1.0  0.33432  0.55663  0.28357  1.0000
  H   H1014     1.0  0.25103  0.48701  0.23309  1.0000
  H   H1015     1.0  0.24386  0.58285  0.27310  1.0000
  C   C1005     1.0  0.36197  0.66651  0.29897  1.0000
  H   H1016     1.0  0.24244  0.81911  0.04508  1.0000
  H   H1017     1.0  0.35422  0.58925  0.29850  1.0000
  H   H1018     1.0  0.35511  0.57820  0.27954  1.0000
  S   S331      1.0  0.48596  0.83485  0.24907  1.0000
  S   S332      1.0  0.24070  0.82392  0.00634  1.0000
  H   H1019     1.0  0.30727  0.68804  0.30557  1.0000
  S   S333      1.0  0.39965  0.69051  0.30763  1.0000
  C   C1006     1.0  0.34537  0.58501  0.29105  1.0000
  C   C1007     1.0  0.45990  0.78476  0.30748  1.0000
  C   C1008     1.0  0.24245  0.62395  0.24308  1.0000
  H   H1020     1.0  0.37249  0.66960  0.30461  1.0000
  C   C1009     1.0  0.32919  0.55815  0.29820  1.0000
  N   N84       1.0  0.33363  0.57202  0.30434  1.0000
  C   C1010     1.0  0.35480  0.64977  0.30747  1.0000
  Fe  Fe162     1.0  0.24865  0.82377  0.97490  1.0000
  C   C1011     1.0  0.26583  0.53963  0.32952  1.0000
  H   H1021     1.0  0.26375  0.77612  0.47446  1.0000
  S   S334      1.0  0.26450  0.57395  0.33801  1.0000
  C   C1012     1.0  0.24434  0.73829  0.50800  1.0000
  C   C1013     1.0  0.29863  0.75043  0.50782  1.0000
  C   C1014     1.0  0.26799  0.65751  0.38622  1.0000
  C   C1015     1.0  0.26276  0.65569  0.37011  1.0000
  H   H1022     1.0  0.24974  0.73724  0.53519  1.0000
  C   C1016     1.0  0.27025  0.52687  0.31722  1.0000
  S   S335      1.0  0.37162  0.69278  0.35960  1.0000
  C   C1017     1.0  0.30913  0.67298  0.59262  1.0000
  C   C1018     1.0  0.45467  0.70346  0.31800  1.0000
  H   H1023     1.0  0.32185  0.67796  0.59173  1.0000
  C   C1019     1.0  0.32626  0.57456  0.32254  1.0000
  H   H1024     1.0  0.25981  0.78638  0.50462  1.0000
  H   H1025     1.0  0.30766  0.75609  0.60869  1.0000
  C   C1020     1.0  0.31698  0.75839  0.33288  1.0000
  C   C1021     1.0  0.25441  0.69026  0.36061  1.0000
  C   C1022     1.0  0.28244  0.66000  0.61109  1.0000
  C   C1023     1.0  0.31777  0.54585  0.31065  1.0000
  H   H1026     1.0  0.31197  0.73317  0.48707  1.0000
  S   S336      1.0  0.26989  0.79605  0.55180  1.0000
  H   H1027     1.0  0.30817  0.74273  0.51739  1.0000
  Fe  Fe163     1.0  0.28324  0.74144  0.41065  1.0000
  S   S337      1.0  0.28024  0.71581  0.43451  1.0000
  S   S338      1.0  0.30928  0.75381  0.39936  1.0000
  S   S339      1.0  0.25586  0.75968  0.42189  1.0000
  H   H1028     1.0  0.24900  0.70300  0.35081  1.0000
  Fe  Fe164     1.0  0.26577  0.70756  0.41572  1.0000
  H   H1029     1.0  0.30823  0.56510  0.34951  1.0000
  S   S340      1.0  0.27105  0.73205  0.39113  1.0000
  Fe  Fe165     1.0  0.29357  0.73084  0.59288  1.0000
  S   S341      1.0  0.27026  0.75574  0.59982  1.0000
  S   S342      1.0  0.31615  0.71513  0.60970  1.0000
  Fe  Fe166     1.0  0.27753  0.72638  0.56100  1.0000
  S   S343      1.0  0.28207  0.62039  0.33748  1.0000
  S   S344      1.0  0.28448  0.70876  0.53860  1.0000
  Fe  Fe167     1.0  0.27391  0.76566  0.56809  1.0000
  C   C1024     1.0  0.30893  0.79494  0.34000  1.0000
  Fe  Fe168     1.0  0.25120  0.73860  0.59651  1.0000
  C   C1025     1.0  0.25190  0.80691  0.58528  1.0000
  S   S345      1.0  0.29911  0.74238  0.56132  1.0000
  S   S346      1.0  0.27400  0.71283  0.59205  1.0000
  H   H1030     1.0  0.29294  0.66803  0.63890  1.0000
  H   H1031     1.0  0.31698  0.77474  0.62666  1.0000
  H   H1032     1.0  0.33066  0.70297  0.31172  1.0000
  N   N85       1.0  0.29864  0.66600  0.60993  1.0000
  S   S347      1.0  0.24893  0.62780  0.31329  1.0000
  C   C1026     1.0  0.26619  0.67572  0.38968  1.0000
  H   H1033     1.0  0.31270  0.64932  0.63212  1.0000
  H   H1034     1.0  0.29974  0.75749  0.44929  1.0000
  C   C1027     1.0  0.25952  0.69207  0.37675  1.0000
  C   C1028     1.0  0.41242  0.73857  0.63768  1.0000
  H   H1035     1.0  0.31482  0.67412  0.62526  1.0000
  C   C1029     1.0  0.25038  0.73083  0.49153  1.0000
  H   H1036     1.0  0.46504  0.74683  0.34346  1.0000
  C   C1030     1.0  0.25454  0.73135  0.52262  1.0000
  C   C1031     1.0  0.27078  0.71681  0.52095  1.0000
  C   C1032     1.0  0.27657  0.70898  0.50467  1.0000
  C   C1033     1.0  0.26642  0.71601  0.48994  1.0000
  H   H1037     1.0  0.26148  0.53451  0.34467  1.0000
  Fe  Fe169     1.0  0.30204  0.62665  0.30951  1.0000
  H   H1038     1.0  0.28903  0.69759  0.50335  1.0000
  H   H1039     1.0  0.27099  0.70995  0.47740  1.0000
  C   C1034     1.0  0.30659  0.76165  0.35059  1.0000
  C   C1035     1.0  0.25156  0.80927  0.56614  1.0000
  H   H1040     1.0  0.26411  0.79810  0.59081  1.0000
  C   C1036     1.0  0.30258  0.78000  0.35424  1.0000
  H   H1041     1.0  0.32914  0.58601  0.32723  1.0000
  H   H1042     1.0  0.26920  0.51200  0.32290  1.0000
  Fe  Fe170     1.0  0.25161  0.73337  0.44448  1.0000
  H   H1043     1.0  0.28213  0.76971  0.52612  1.0000
  C   C1037     1.0  0.48346  0.70812  0.32408  1.0000
  C   C1038     1.0  0.27598  0.66154  0.59465  1.0000
  S   S348      1.0  0.40085  0.72976  0.32087  1.0000
  H   H1044     1.0  0.27690  0.75070  0.45685  1.0000
  H   H1045     1.0  0.28140  0.67057  0.56406  1.0000
  N   N86       1.0  0.40423  0.75798  0.64109  1.0000
  C   C1039     1.0  0.44978  0.75543  0.31342  1.0000
  H   H1046     1.0  0.30608  0.80909  0.34308  1.0000
  C   C1040     1.0  0.35516  0.70976  0.37135  1.0000
  C   C1041     1.0  0.35501  0.72938  0.36453  1.0000
  C   C1042     1.0  0.34143  0.74289  0.37371  1.0000
  C   C1043     1.0  0.32749  0.73683  0.38921  1.0000
  C   C1044     1.0  0.32755  0.71724  0.39590  1.0000
  C   C1045     1.0  0.34163  0.70371  0.38725  1.0000
  H   H1047     1.0  0.36550  0.73414  0.35231  1.0000
  H   H1048     1.0  0.34144  0.75803  0.36850  1.0000
  H   H1049     1.0  0.31692  0.71245  0.40793  1.0000
  H   H1050     1.0  0.34192  0.68856  0.39282  1.0000
  C   C1046     1.0  0.37812  0.78511  0.64133  1.0000
  C   C1047     1.0  0.30378  0.66948  0.33337  1.0000
  C   C1048     1.0  0.46621  0.70196  0.33069  1.0000
  H   H1051     1.0  0.48569  0.75057  0.32526  1.0000
  C   C1049     1.0  0.30320  0.67448  0.57587  1.0000
  H   H1052     1.0  0.35985  0.64004  0.31963  1.0000
  C   C1050     1.0  0.26754  0.55883  0.32230  1.0000
  H   H1053     1.0  0.46163  0.69625  0.34570  1.0000
  H   H1054     1.0  0.34109  0.70442  0.63580  1.0000
  H   H1055     1.0  0.30213  0.74986  0.36170  1.0000
  S   S349      1.0  0.24652  0.67031  0.33868  1.0000
  H   H1056     1.0  0.26344  0.64159  0.36798  1.0000
  C   C1051     1.0  0.24168  0.70199  0.63494  1.0000
  Fe  Fe171     1.0  0.26204  0.64566  0.32437  1.0000
  C   C1052     1.0  0.32355  0.72895  0.62123  1.0000
  C   C1053     1.0  0.31690  0.74882  0.61857  1.0000
  S   S350      1.0  0.27167  0.67761  0.41057  1.0000
  C   C1054     1.0  0.29077  0.74870  0.46077  1.0000
  C   C1055     1.0  0.30510  0.66426  0.62734  1.0000
  Fe  Fe172     1.0  0.24304  0.74761  0.40498  1.0000
  Fe  Fe173     1.0  0.38308  0.70727  0.32994  1.0000
  C   C1056     1.0  0.31129  0.68379  0.31930  1.0000
  S   S351      1.0  0.25271  0.75058  0.56544  1.0000
  C   C1057     1.0  0.28644  0.66886  0.57694  1.0000
  H   H1057     1.0  0.30118  0.53906  0.33900  1.0000
  N   N87       1.0  0.32226  0.67214  0.35416  1.0000
  C   C1058     1.0  0.30944  0.66381  0.35082  1.0000
  C   C1059     1.0  0.32965  0.68625  0.34048  1.0000
  Fe  Fe174     1.0  0.27118  0.60311  0.32363  1.0000
  C   C1060     1.0  0.47144  0.75779  0.33195  1.0000
  H   H1058     1.0  0.29757  0.73327  0.46162  1.0000
  C   C1061     1.0  0.32730  0.66666  0.37287  1.0000
  H   H1059     1.0  0.29372  0.66273  0.33073  1.0000
  H   H1060     1.0  0.25781  0.70614  0.37935  1.0000
  H   H1061     1.0  0.30358  0.65263  0.36165  1.0000
  H   H1062     1.0  0.41060  0.73751  0.62372  1.0000
  H   H1063     1.0  0.29498  0.78247  0.36820  1.0000
  H   H1064     1.0  0.31748  0.67612  0.38223  1.0000
  H   H1065     1.0  0.32636  0.65153  0.37976  1.0000
  H   H1066     1.0  0.34212  0.66791  0.37164  1.0000
  N   N88       1.0  0.28817  0.75419  0.47894  1.0000
  C   C1062     1.0  0.27373  0.76898  0.48369  1.0000
  C   C1063     1.0  0.30064  0.74503  0.49068  1.0000
  N   N89       1.0  0.31873  0.79174  0.32249  1.0000
  C   C1064     1.0  0.28392  0.76543  0.51281  1.0000
  H   H1067     1.0  0.47317  0.76880  0.33868  1.0000
  S   S352      1.0  0.33195  0.62484  0.31160  1.0000
  C   C1065     1.0  0.27137  0.77481  0.50070  1.0000
  H   H1068     1.0  0.42781  0.73439  0.63786  1.0000
  C   C1066     1.0  0.33573  0.71975  0.63388  1.0000
  H   H1069     1.0  0.32060  0.74405  0.33011  1.0000
  C   C1067     1.0  0.32224  0.75938  0.62872  1.0000
  H   H1070     1.0  0.28564  0.53112  0.63002  1.0000
  H   H1071     1.0  0.33986  0.69280  0.34313  1.0000
  H   H1072     1.0  0.44965  0.74087  0.32140  1.0000
  N   N90       1.0  0.45976  0.76635  0.31757  1.0000
  H   H1073     1.0  0.44128  0.69885  0.32325  1.0000
  H   H1074     1.0  0.27302  0.64479  0.39626  1.0000
  H   H1075     1.0  0.31116  0.68060  0.56217  1.0000
  H   H1076     1.0  0.26280  0.65734  0.59568  1.0000
  S   S353      1.0  0.36076  0.72449  0.31361  1.0000
  C   C1068     1.0  0.32435  0.69222  0.32281  1.0000
  H   H1077     1.0  0.46786  0.79343  0.31070  1.0000
  H   H1078     1.0  0.36391  0.79184  0.63898  1.0000
  H   H1079     1.0  0.27425  0.65421  0.62480  1.0000
  C   C1069     1.0  0.31458  0.56269  0.33528  1.0000
  C   C1070     1.0  0.25571  0.67209  0.35741  1.0000
  H   H1080     1.0  0.33973  0.80834  0.30939  1.0000
  S   S354      1.0  0.24456  0.48811  0.31178  1.0000
  C   C1071     1.0  0.38654  0.76681  0.63769  1.0000
  H   H1081     1.0  0.25317  0.70914  0.63309  1.0000
  C   C1072     1.0  0.31054  0.54810  0.32933  1.0000
  H   H1082     1.0  0.37864  0.75956  0.63251  1.0000
  C   C1073     1.0  0.32302  0.77368  0.31891  1.0000
  H   H1083     1.0  0.31564  0.82150  0.30893  1.0000
  S   S355      1.0  0.37590  0.72133  0.72395  1.0000
  S   S356      1.0  0.34495  0.76751  0.74184  1.0000
  S   S357      1.0  0.34403  0.68570  0.72479  1.0000
  H   H1084     1.0  0.34868  0.69330  0.68377  1.0000
  S   S358      1.0  0.37315  0.71884  0.68121  1.0000
  C   C1074     1.0  0.48177  0.83188  0.82388  1.0000
  H   H1085     1.0  0.39324  0.72546  0.77477  1.0000
  Fe  Fe175     1.0  0.28776  0.63884  0.68484  1.0000
  S   S359      1.0  0.25907  0.65816  0.68786  1.0000
  S   S360      1.0  0.31236  0.65347  0.67141  1.0000
  Fe  Fe176     1.0  0.27192  0.60266  0.69884  1.0000
  C   C1075     1.0  0.24390  0.53917  0.68742  1.0000
  S   S361      1.0  0.27723  0.57049  0.70812  1.0000
  C   C1076     1.0  0.24512  0.90363  0.90115  1.0000
  H   H1086     1.0  0.42758  0.75961  0.65169  1.0000
  C   C1077     1.0  0.30257  0.53133  0.67982  1.0000
  S   S362      1.0  0.28148  0.62004  0.71381  1.0000
  Fe  Fe177     1.0  0.36798  0.81391  0.82492  1.0000
  S   S363      1.0  0.38112  0.83332  0.83350  1.0000
  S   S364      1.0  0.34511  0.79843  0.84396  1.0000
  Fe  Fe178     1.0  0.39067  0.82118  0.78439  1.0000
  S   S365      1.0  0.40522  0.84189  0.78954  1.0000
  S   S366      1.0  0.40023  0.81103  0.75682  1.0000
  Fe  Fe179     1.0  0.40866  0.82043  0.81657  1.0000
  S   S367      1.0  0.43575  0.81068  0.82773  1.0000
  Fe  Fe180     1.0  0.37646  0.85330  0.80596  1.0000
  S   S368      1.0  0.36514  0.88388  0.80925  1.0000
  S   S369      1.0  0.39608  0.79883  0.81044  1.0000
  S   S370      1.0  0.36144  0.83471  0.79826  1.0000
  H   H1087     1.0  0.27946  0.90198  0.75663  1.0000
  H   H1088     1.0  0.30554  0.54209  0.68550  1.0000
  Fe  Fe181     1.0  0.26674  0.94176  0.79939  1.0000
  S   S371      1.0  0.28869  0.92377  0.78062  1.0000
  S   S372      1.0  0.27039  0.95809  0.81919  1.0000
  C   C1078     1.0  0.30436  0.49821  0.67999  1.0000
  N   N91       1.0  0.39762  0.86581  0.84629  1.0000
  Fe  Fe182     1.0  0.25192  0.63772  0.71543  1.0000
  Fe  Fe183     1.0  0.27741  0.81807  0.93836  1.0000
  S   S373      1.0  0.25636  0.81320  0.92441  1.0000
  S   S374      1.0  0.30759  0.82040  0.92413  1.0000
  N   N92       1.0  0.24949  0.90632  0.76098  1.0000
  S   S375      1.0  0.33948  0.76361  0.65509  1.0000
  C   C1079     1.0  0.37081  0.85767  0.87043  1.0000
  H   H1089     1.0  0.46816  0.81028  0.78758  1.0000
  S   S376      1.0  0.25896  0.84445  0.94829  1.0000
  H   H1090     1.0  0.27582  0.86687  0.89977  1.0000
  H   H1091     1.0  0.27056  0.90874  0.73508  1.0000
  H   H1092     1.0  0.28267  0.84222  0.89843  1.0000
  C   C1080     1.0  0.29897  0.71842  0.70508  1.0000
  C   C1081     1.0  0.26759  0.91105  0.74977  1.0000
  C   C1082     1.0  0.28798  0.69785  0.69192  1.0000
  H   H1093     1.0  0.35573  0.86082  0.87643  1.0000
  Fe  Fe184     1.0  0.35366  0.74768  0.67975  1.0000
  S   S377      1.0  0.33599  0.74012  0.70881  1.0000
  H   H1094     1.0  0.33672  0.67990  0.66318  1.0000
  C   C1083     1.0  0.24564  0.59198  0.75216  1.0000
  H   H1095     1.0  0.43215  0.78448  0.77015  1.0000
  H   H1096     1.0  0.28343  0.68455  0.69375  1.0000
  H   H1097     1.0  0.34990  0.72291  0.65425  1.0000
  C   C1084     1.0  0.34022  0.75543  0.80038  1.0000
  C   C1085     1.0  0.29365  0.50433  0.66584  1.0000
  H   H1098     1.0  0.47236  0.80514  0.83606  1.0000
  C   C1086     1.0  0.46974  0.80295  0.74401  1.0000
  H   H1099     1.0  0.39762  0.74879  0.76129  1.0000
  H   H1100     1.0  0.24131  0.88036  0.92545  1.0000
  H   H1101     1.0  0.37635  0.83102  0.89077  1.0000
  S   S378      1.0  0.25132  0.93236  0.86996  1.0000
  C   C1087     1.0  0.38778  0.79424  0.64877  1.0000
  C   C1088     1.0  0.33495  0.80410  0.86650  1.0000
  C   C1089     1.0  0.34188  0.81653  0.87293  1.0000
  C   C1090     1.0  0.33346  0.82118  0.89071  1.0000
  C   C1091     1.0  0.31784  0.81368  0.90215  1.0000
  C   C1092     1.0  0.31076  0.80129  0.89579  1.0000
  C   C1093     1.0  0.31942  0.79639  0.87805  1.0000
  H   H1102     1.0  0.35381  0.82245  0.86433  1.0000
  H   H1103     1.0  0.33897  0.83072  0.89561  1.0000
  H   H1104     1.0  0.29881  0.79530  0.90461  1.0000
  H   H1105     1.0  0.31399  0.78670  0.87323  1.0000
  C   C1094     1.0  0.34427  0.89525  0.80071  1.0000
  C   C1095     1.0  0.33935  0.88877  0.78703  1.0000
  C   C1096     1.0  0.32238  0.89781  0.78072  1.0000
  C   C1097     1.0  0.31015  0.91314  0.78829  1.0000
  C   C1098     1.0  0.31510  0.91961  0.80196  1.0000
  C   C1099     1.0  0.33221  0.91078  0.80804  1.0000
  H   H1106     1.0  0.34871  0.87697  0.78111  1.0000
  H   H1107     1.0  0.31870  0.89282  0.77004  1.0000
  H   H1108     1.0  0.30590  0.93156  0.80769  1.0000
  H   H1109     1.0  0.33600  0.91592  0.81855  1.0000
  C   C1100     1.0  0.45189  0.82607  0.82150  1.0000
  C   C1101     1.0  0.46904  0.81960  0.82782  1.0000
  H   H1110     1.0  0.26735  0.51896  0.64567  1.0000
  N   N93       1.0  0.29081  0.70980  0.67439  1.0000
  C   C1102     1.0  0.46023  0.85720  0.80730  1.0000
  C   C1103     1.0  0.44768  0.84479  0.81091  1.0000
  H   H1111     1.0  0.28685  0.55211  0.66037  1.0000
  N   N94       1.0  0.45464  0.79420  0.74847  1.0000
  H   H1112     1.0  0.45676  0.87178  0.79939  1.0000
  H   H1113     1.0  0.43465  0.84981  0.80573  1.0000
  C   C1104     1.0  0.34550  0.76557  0.81081  1.0000
  H   H1114     1.0  0.48153  0.73460  0.69259  1.0000
  H   H1115     1.0  0.25634  0.67454  0.64831  1.0000
  Fe  Fe185     1.0  0.39051  0.73104  0.69373  1.0000
  Fe  Fe186     1.0  0.24584  0.79551  0.95299  1.0000
  H   H1116     1.0  0.41071  0.82356  0.87600  1.0000
  N   N95       1.0  0.37231  0.74916  0.78280  1.0000
  H   H1117     1.0  0.26593  0.54336  0.64553  1.0000
  C   C1105     1.0  0.25268  0.53007  0.70282  1.0000
  C   C1106     1.0  0.46448  0.80564  0.77662  1.0000
  C   C1107     1.0  0.26293  0.55926  0.70108  1.0000
  C   C1108     1.0  0.26227  0.54003  0.70955  1.0000
  C   C1109     1.0  0.46654  0.73532  0.69829  1.0000
  S   S379      1.0  0.26884  0.79786  0.96600  1.0000
  H   H1118     1.0  0.44088  0.79424  0.79544  1.0000
  H   H1119     1.0  0.25471  0.90947  0.78661  1.0000
  Fe  Fe187     1.0  0.35649  0.75023  0.71910  1.0000
  C   C1110     1.0  0.35999  0.78083  0.74464  1.0000
  C   C1111     1.0  0.35373  0.79152  0.75886  1.0000
  C   C1112     1.0  0.36599  0.80091  0.76261  1.0000
  C   C1113     1.0  0.38449  0.79989  0.75193  1.0000
  C   C1114     1.0  0.39067  0.78951  0.73743  1.0000
  C   C1115     1.0  0.37845  0.77993  0.73382  1.0000
  H   H1120     1.0  0.33945  0.79229  0.76722  1.0000
  H   H1121     1.0  0.36110  0.80893  0.77374  1.0000
  H   H1122     1.0  0.40498  0.78868  0.72912  1.0000
  H   H1123     1.0  0.38342  0.77161  0.72289  1.0000
  C   C1116     1.0  0.33615  0.67602  0.70980  1.0000
  C   C1117     1.0  0.32513  0.66198  0.71780  1.0000
  C   C1118     1.0  0.31789  0.65476  0.70615  1.0000
  C   C1119     1.0  0.32207  0.66123  0.68641  1.0000
  C   C1120     1.0  0.33342  0.67493  0.67841  1.0000
  C   C1121     1.0  0.34023  0.68251  0.69007  1.0000
  H   H1124     1.0  0.32197  0.65689  0.73306  1.0000
  H   H1125     1.0  0.30919  0.64415  0.71245  1.0000
  H   H1126     1.0  0.39715  0.89314  0.82708  1.0000
  C   C1122     1.0  0.43574  0.73237  0.69524  1.0000
  C   C1123     1.0  0.45515  0.73174  0.68782  1.0000
  C   C1124     1.0  0.38237  0.84094  0.87846  1.0000
  C   C1125     1.0  0.45855  0.73933  0.71632  1.0000
  C   C1126     1.0  0.43908  0.74023  0.72362  1.0000
  C   C1127     1.0  0.42767  0.73688  0.71306  1.0000
  H   H1127     1.0  0.46147  0.72825  0.67405  1.0000
  H   H1128     1.0  0.47790  0.80555  0.72954  1.0000
  H   H1129     1.0  0.43286  0.74335  0.73755  1.0000
  H   H1130     1.0  0.41271  0.73747  0.71884  1.0000
  S   S380      1.0  0.42200  0.72728  0.68199  1.0000
  S   S381      1.0  0.28066  0.62002  0.66952  1.0000
  H   H1131     1.0  0.29024  0.49365  0.66046  1.0000
  C   C1128     1.0  0.44914  0.79666  0.78104  1.0000
  C   C1129     1.0  0.40906  0.84944  0.85408  1.0000
  H   H1132     1.0  0.29027  0.69219  0.72127  1.0000
  H   H1133     1.0  0.40536  0.72805  0.64911  1.0000
  C   C1130     1.0  0.37764  0.75892  0.79309  1.0000
  C   C1131     1.0  0.40573  0.78504  0.65238  1.0000
  C   C1132     1.0  0.37869  0.86996  0.85417  1.0000
  C   C1133     1.0  0.47729  0.85081  0.81382  1.0000
  H   H1134     1.0  0.30280  0.72134  0.71694  1.0000
  S   S382      1.0  0.24193  0.61874  0.70292  1.0000
  C   C1134     1.0  0.36433  0.76724  0.80724  1.0000
  C   C1135     1.0  0.29734  0.72613  0.67195  1.0000
  H   H1135     1.0  0.31659  0.50730  0.69842  1.0000
  H   H1136     1.0  0.33507  0.77225  0.82160  1.0000
  C   C1136     1.0  0.29190  0.53692  0.66566  1.0000
  H   H1137     1.0  0.36844  0.77512  0.81533  1.0000
  H   H1138     1.0  0.32558  0.75422  0.80285  1.0000
  C   C1137     1.0  0.28843  0.70428  0.65782  1.0000
  Fe  Fe188     1.0  0.24640  0.98068  0.80893  1.0000
  C   C1138     1.0  0.30868  0.51183  0.68714  1.0000
  C   C1139     1.0  0.47489  0.80877  0.75800  1.0000
  C   C1140     1.0  0.30162  0.73065  0.68719  1.0000
  C   C1141     1.0  0.44434  0.79108  0.76669  1.0000
  Fe  Fe189     1.0  0.35663  0.71196  0.71109  1.0000
  H   H1139     1.0  0.42038  0.87839  0.82785  1.0000
  H   H1140     1.0  0.25398  0.90917  0.90688  1.0000
  H   H1141     1.0  0.26949  0.53269  0.72113  1.0000
  H   H1142     1.0  0.36948  0.88255  0.84756  1.0000
  H   H1143     1.0  0.43784  0.80149  0.72771  1.0000
  H   H1144     1.0  0.39218  0.76063  0.79016  1.0000
  H   H1145     1.0  0.46083  0.78596  0.72177  1.0000
  C   C1142     1.0  0.34082  0.73024  0.64427  1.0000
  C   C1143     1.0  0.29187  0.70205  0.70754  1.0000
  H   H1146     1.0  0.44230  0.77636  0.73905  1.0000
  C   C1144     1.0  0.40163  0.83676  0.87025  1.0000
  H   H1147     1.0  0.26131  0.85648  0.89089  1.0000
  H   H1148     1.0  0.40471  0.87268  0.81626  1.0000
  H   H1149     1.0  0.26747  0.92633  0.74900  1.0000
  H   H1150     1.0  0.27739  0.69554  0.66181  1.0000
  S   S383      1.0  0.37234  0.76069  0.68975  1.0000
  H   H1151     1.0  0.34965  0.73951  0.77820  1.0000
  C   C1145     1.0  0.40540  0.87812  0.82854  1.0000
  H   H1152     1.0  0.30738  0.74333  0.68496  1.0000
  H   H1153     1.0  0.30210  0.69570  0.65149  1.0000
  C   C1146     1.0  0.38651  0.74020  0.76827  1.0000
  C   C1147     1.0  0.27612  0.52954  0.64425  1.0000
  H   H1154     1.0  0.37994  0.73941  0.75679  1.0000
  C   C1148     1.0  0.44861  0.78934  0.73346  1.0000
  C   C1149     1.0  0.35393  0.74711  0.78647  1.0000
  H   H1155     1.0  0.42395  0.84583  0.84758  1.0000
  H   H1156     1.0  0.29966  0.73556  0.65808  1.0000
  C   C1150     1.0  0.24097  0.91274  0.88323  1.0000
  S   S384      1.0  0.47248  0.74291  0.73031  1.0000
  N   N96       1.0  0.28668  0.86201  0.87166  1.0000
  C   C1151     1.0  0.28512  0.88097  0.86280  1.0000
  C   C1152     1.0  0.29734  0.84802  0.86215  1.0000
  C   C1153     1.0  0.29472  0.88633  0.84404  1.0000
  C   C1154     1.0  0.30740  0.85284  0.84351  1.0000
  C   C1155     1.0  0.30599  0.87213  0.83441  1.0000
  C   C1156     1.0  0.27607  0.85665  0.89111  1.0000
  H   H1157     1.0  0.27644  0.89209  0.87019  1.0000
  H   H1158     1.0  0.29811  0.83303  0.86897  1.0000
  H   H1159     1.0  0.29337  0.90139  0.83705  1.0000
  H   H1160     1.0  0.31619  0.84164  0.83620  1.0000
  H   H1161     1.0  0.31354  0.87605  0.81990  1.0000
  S   S385      1.0  0.24493  0.96569  0.78701  1.0000
  N   N97       1.0  0.28726  0.52346  0.65913  1.0000
  Fe  Fe190     1.0  0.25134  0.63786  0.67511  1.0000
  H   H1162     1.0  0.25365  0.58364  0.67978  1.0000
  H   H1163     1.0  0.25609  0.58711  0.74034  1.0000
  H   H1164     1.0  0.38116  0.80819  0.65216  1.0000
  H   H1165     1.0  0.25213  0.51536  0.70960  1.0000
  C   C1157     1.0  0.24490  0.90634  0.77996  1.0000
  Fe  Fe191     1.0  0.24735  0.94430  0.83983  1.0000
  C   C1158     1.0  0.25330  0.56875  0.68634  1.0000
  S   S386      1.0  0.24551  0.92631  0.82081  1.0000
  H   H1166     1.0  0.41319  0.79174  0.65865  1.0000
  C   C1159     1.0  0.41380  0.76682  0.64841  1.0000
  H   H1167     1.0  0.28427  0.71709  0.64675  1.0000
  Fe  Fe192     1.0  0.24163  0.49380  0.68536  1.0000
  H   H1168     1.0  0.26364  0.60698  0.75825  1.0000
  H   H1169     1.0  0.48682  0.81580  0.75432  1.0000
  C   C1160     1.0  0.24381  0.55869  0.67951  1.0000
  C   C1161     1.0  0.24987  0.60310  0.76241  1.0000
  C   C1162     1.0  0.24143  0.62116  0.78764  1.0000
  H   H1170     1.0  0.25115  0.61201  0.79703  1.0000
  H   H1171     1.0  0.24024  0.90345  0.73725  1.0000
  H   H1172     1.0  0.24832  0.63267  0.77755  1.0000
  C   C1163     1.0  0.33402  0.75009  0.64177  1.0000
  C   C1164     1.0  0.24345  0.68245  0.64362  1.0000
  H   H1173     1.0  0.60358  0.19768  0.98595  1.0000
  Fe  Fe193     1.0  0.53401  0.27804  0.18448  1.0000
  S   S387      1.0  0.52341  0.25773  0.17430  1.0000
  S   S388      1.0  0.56395  0.28246  0.17487  1.0000
  N   N98       1.0  0.70841  0.47887  0.28272  1.0000
  Fe  Fe194     1.0  0.51389  0.24544  0.20519  1.0000
  S   S389      1.0  0.51935  0.21327  0.21496  1.0000
  S   S390      1.0  0.52637  0.26432  0.21527  1.0000
  C   C1165     1.0  0.72480  0.47719  0.26919  1.0000
  Fe  Fe195     1.0  0.62983  0.27825  0.07972  1.0000
  S   S391      1.0  0.64207  0.24670  0.08345  1.0000
  S   S392      1.0  0.59820  0.28824  0.08703  1.0000
  Fe  Fe196     1.0  0.66862  0.28907  0.06622  1.0000
  S   S393      1.0  0.68398  0.25842  0.06969  1.0000
  S   S394      1.0  0.68546  0.31230  0.05362  1.0000
  Fe  Fe197     1.0  0.66207  0.25502  0.05582  1.0000
  S   S395      1.0  0.67247  0.24050  0.03099  1.0000
  Fe  Fe198     1.0  0.66247  0.25338  0.09688  1.0000
  S   S396      1.0  0.66745  0.23854  0.12614  1.0000
  S   S397      1.0  0.64792  0.28609  0.05074  1.0000
  S   S398      1.0  0.64909  0.28461  0.09464  1.0000
  C   C1166     1.0  0.69525  0.10899  0.26720  1.0000
  N   N99       1.0  0.68911  0.42429  0.22550  1.0000
  S   S399      1.0  0.65774  0.45874  0.28192  1.0000
  H   H1174     1.0  0.71903  0.08752  0.23894  1.0000
  H   H1175     1.0  0.66355  0.34534  0.09975  1.0000
  S   S400      1.0  0.65511  0.10990  0.19840  1.0000
  S   S401      1.0  0.61561  0.14248  0.19474  1.0000
  Fe  Fe199     1.0  0.62409  0.11215  0.21063  1.0000
  Fe  Fe200     1.0  0.64690  0.14106  0.18459  1.0000
  S   S402      1.0  0.65715  0.15239  0.15335  1.0000
  S   S403      1.0  0.65051  0.15170  0.20868  1.0000
  H   H1176     1.0  0.59167  0.30777  0.20499  1.0000
  S   S404      1.0  0.65101  0.01881  0.17442  1.0000
  C   C1167     1.0  0.68716  0.11742  0.25115  1.0000
  C   C1168     1.0  0.70357  0.13903  0.26586  1.0000
  C   C1169     1.0  0.60335  0.42391  0.27880  1.0000
  C   C1170     1.0  0.58854  0.43502  0.28955  1.0000
  H   H1177     1.0  0.69481  0.09423  0.27425  1.0000
  H   H1178     1.0  0.52054  0.30956  0.21627  1.0000
  C   C1171     1.0  0.55888  0.26331  0.24366  1.0000
  H   H1179     1.0  0.56856  0.26671  0.21342  1.0000
  H   H1180     1.0  0.64246  0.34991  0.11751  1.0000
  S   S405      1.0  0.72144  0.33014  0.11310  1.0000
  H   H1181     1.0  0.63528  0.18527  0.24058  1.0000
  N   N100      1.0  0.57441  0.28849  0.22362  1.0000
  C   C1172     1.0  0.65375  0.06083  0.22998  1.0000
  H   H1182     1.0  0.64811  0.07388  0.23544  1.0000
  C   C1173     1.0  0.61800  0.32879  0.07550  1.0000
  S   S406      1.0  0.71087  0.15379  0.27636  1.0000
  H   H1183     1.0  0.70936  0.11332  0.28715  1.0000
  C   C1174     1.0  0.49938  0.31524  0.26126  1.0000
  Fe  Fe201     1.0  0.49853  0.28478  0.21489  1.0000
  Fe  Fe202     1.0  0.53958  0.34778  0.28151  1.0000
  H   H1184     1.0  0.73130  0.35377  0.01817  1.0000
  N   N101      1.0  0.69894  0.28904  0.97779  1.0000
  H   H1185     1.0  0.68163  0.14310  0.22977  1.0000
  H   H1186     1.0  0.69590  0.16220  0.24282  1.0000
  C   C1175     1.0  0.61968  0.06992  0.20197  1.0000
  C   C1176     1.0  0.63642  0.07091  0.18826  1.0000
  C   C1177     1.0  0.64555  0.05541  0.17938  1.0000
  C   C1178     1.0  0.63803  0.03882  0.18417  1.0000
  C   C1179     1.0  0.62087  0.03816  0.19730  1.0000
  C   C1180     1.0  0.61176  0.05364  0.20621  1.0000
  H   H1187     1.0  0.64243  0.08354  0.18455  1.0000
  H   H1188     1.0  0.65866  0.05615  0.16901  1.0000
  H   H1189     1.0  0.61464  0.02573  0.20067  1.0000
  H   H1190     1.0  0.67327  0.19071  0.01017  1.0000
  C   C1181     1.0  0.69533  0.31745  0.07012  1.0000
  C   C1182     1.0  0.69067  0.30912  0.08943  1.0000
  C   C1183     1.0  0.69848  0.31346  0.10255  1.0000
  C   C1184     1.0  0.71139  0.32569  0.09635  1.0000
  C   C1185     1.0  0.71621  0.33387  0.07700  1.0000
  C   C1186     1.0  0.70800  0.32993  0.06392  1.0000
  H   H1191     1.0  0.68111  0.29930  0.09432  1.0000
  H   H1192     1.0  0.69482  0.30701  0.11751  1.0000
  C   C1187     1.0  0.65422  0.24874  0.98251  1.0000
  C   C1188     1.0  0.72797  0.41074  0.29967  1.0000
  C   C1189     1.0  0.65789  0.24750  0.01427  1.0000
  H   H1193     1.0  0.59102  0.44697  0.29363  1.0000
  H   H1194     1.0  0.50303  0.24414  0.15175  1.0000
  C   C1190     1.0  0.73167  0.27354  0.09906  1.0000
  C   C1191     1.0  0.62689  0.25892  0.00602  1.0000
  C   C1192     1.0  0.63852  0.25519  0.01923  1.0000
  S   S407      1.0  0.51807  0.37493  0.28484  1.0000
  Fe  Fe203     1.0  0.63962  0.48089  0.29831  1.0000
  H   H1195     1.0  0.61179  0.26420  0.01012  1.0000
  H   H1196     1.0  0.63236  0.25761  0.03345  1.0000
  C   C1193     1.0  0.66480  0.21455  0.13353  1.0000
  C   C1194     1.0  0.66144  0.20615  0.15299  1.0000
  C   C1195     1.0  0.65922  0.18702  0.15922  1.0000
  C   C1196     1.0  0.66069  0.17612  0.14600  1.0000
  C   C1197     1.0  0.66426  0.18448  0.12653  1.0000
  C   C1198     1.0  0.66608  0.20374  0.12030  1.0000
  H   H1197     1.0  0.66056  0.21446  0.16324  1.0000
  H   H1198     1.0  0.65658  0.18068  0.17421  1.0000
  H   H1199     1.0  0.66544  0.17608  0.11625  1.0000
  H   H1200     1.0  0.66883  0.21009  0.10526  1.0000
  C   C1199     1.0  0.57321  0.28319  0.15057  1.0000
  C   C1200     1.0  0.56126  0.28739  0.13772  1.0000
  C   C1201     1.0  0.56901  0.28874  0.11821  1.0000
  C   C1202     1.0  0.58870  0.28546  0.11159  1.0000
  C   C1203     1.0  0.60059  0.28076  0.12458  1.0000
  C   C1204     1.0  0.59287  0.27986  0.14398  1.0000
  H   H1201     1.0  0.54604  0.29003  0.14273  1.0000
  H   H1202     1.0  0.55974  0.29240  0.10823  1.0000
  H   H1203     1.0  0.61574  0.27794  0.11973  1.0000
  H   H1204     1.0  0.60217  0.27650  0.15388  1.0000
  C   C1205     1.0  0.54246  0.20310  0.21928  1.0000
  C   C1206     1.0  0.55138  0.18447  0.21666  1.0000
  C   C1207     1.0  0.56978  0.17633  0.22011  1.0000
  C   C1208     1.0  0.57916  0.18666  0.22659  1.0000
  C   C1209     1.0  0.57017  0.20517  0.22937  1.0000
  C   C1210     1.0  0.55198  0.21338  0.22563  1.0000
  H   H1205     1.0  0.54410  0.17634  0.21188  1.0000
  H   H1206     1.0  0.57654  0.16196  0.21806  1.0000
  H   H1207     1.0  0.54513  0.22744  0.22822  1.0000
  H   H1208     1.0  0.59089  0.28803  0.19565  1.0000
  S   S408      1.0  0.54618  0.33679  0.25459  1.0000
  H   H1209     1.0  0.67201  0.01544  0.20889  1.0000
  H   H1210     1.0  0.72431  0.44245  0.24971  1.0000
  H   H1211     1.0  0.72619  0.34329  0.07211  1.0000
  H   H1212     1.0  0.73380  0.39585  0.12508  1.0000
  H   H1213     1.0  0.71171  0.33634  0.04896  1.0000
  C   C1211     1.0  0.59986  0.40855  0.27340  1.0000
  H   H1214     1.0  0.69715  0.44587  0.27671  1.0000
  C   C1212     1.0  0.53131  0.32212  0.23313  1.0000
  C   C1213     1.0  0.51828  0.31339  0.22981  1.0000
  C   C1214     1.0  0.64171  0.17651  0.25238  1.0000
  C   C1215     1.0  0.68760  0.13655  0.24228  1.0000
  N   N102      1.0  0.65028  0.02994  0.22822  1.0000
  H   H1215     1.0  0.73093  0.28197  0.10968  1.0000
  C   C1216     1.0  0.66572  0.24441  0.99586  1.0000
  C   C1217     1.0  0.64403  0.12684  0.28244  1.0000
  H   H1216     1.0  0.66887  0.41346  0.27223  1.0000
  H   H1217     1.0  0.63035  0.12701  0.29286  1.0000
  C   C1218     1.0  0.72530  0.07455  0.24801  1.0000
  C   C1219     1.0  0.66699  0.02799  0.21517  1.0000
  C   C1220     1.0  0.66132  0.19337  0.00342  1.0000
  C   C1221     1.0  0.64711  0.18822  0.98010  1.0000
  H   H1218     1.0  0.69130  0.44716  0.20130  1.0000
  H   H1219     1.0  0.59839  0.32233  0.10201  1.0000
  C   C1222     1.0  0.58166  0.40424  0.27887  1.0000
  H   H1220     1.0  0.68066  0.23835  0.99199  1.0000
  C   C1223     1.0  0.50222  0.31003  0.24381  1.0000
  S   S409      1.0  0.54374  0.41082  0.29662  1.0000
  C   C1224     1.0  0.62954  0.20984  0.00006  1.0000
  C   C1225     1.0  0.73637  0.42754  0.14986  1.0000
  H   H1221     1.0  0.72102  0.27451  0.06718  1.0000
  C   C1226     1.0  0.63877  0.15781  0.26015  1.0000
  H   H1222     1.0  0.71854  0.41656  0.21340  1.0000
  H   H1223     1.0  0.49775  0.22237  0.18366  1.0000
  Fe  Fe204     1.0  0.63231  0.44504  0.29080  1.0000
  H   H1224     1.0  0.66885  0.43973  0.20806  1.0000
  C   C1227     1.0  0.65795  0.15352  0.28242  1.0000
  H   H1225     1.0  0.68964  0.42500  0.19672  1.0000
  C   C1228     1.0  0.70898  0.47065  0.30280  1.0000
  C   C1229     1.0  0.70116  0.31214  0.00079  1.0000
  S   S410      1.0  0.50708  0.30041  0.18484  1.0000
  H   H1226     1.0  0.65906  0.34271  0.07080  1.0000
  N   N103      1.0  0.63098  0.20110  0.98557  1.0000
  H   H1227     1.0  0.65570  0.11756  0.28944  1.0000
  C   C1230     1.0  0.63517  0.33449  0.06675  1.0000
  N   N104      1.0  0.64718  0.14645  0.27470  1.0000
  Fe  Fe205     1.0  0.49547  0.27867  0.17751  1.0000
  C   C1231     1.0  0.61479  0.20515  0.97644  1.0000
  C   C1232     1.0  0.71720  0.05833  0.25347  1.0000
  Fe  Fe206     1.0  0.73245  0.13998  0.29494  1.0000
  H   H1228     1.0  0.61125  0.39996  0.26501  1.0000
  H   H1229     1.0  0.68826  0.27058  0.00353  1.0000
  H   H1230     1.0  0.67050  0.17734  0.28060  1.0000
  C   C1233     1.0  0.52868  0.32715  0.25061  1.0000
  H   H1231     1.0  0.62988  0.15239  0.25429  1.0000
  C   C1234     1.0  0.65098  0.33950  0.10862  1.0000
  C   C1235     1.0  0.61162  0.32699  0.09509  1.0000
  C   C1236     1.0  0.69346  0.28373  0.99711  1.0000
  H   H1232     1.0  0.66064  0.43038  0.24126  1.0000
  H   H1233     1.0  0.61787  0.32860  0.12102  1.0000
  H   H1234     1.0  0.64050  0.33556  0.05158  1.0000
  H   H1235     1.0  0.70456  0.05902  0.24853  1.0000
  C   C1237     1.0  0.71263  0.40598  0.24366  1.0000
  C   C1238     1.0  0.70994  0.43549  0.27889  1.0000
  H   H1236     1.0  0.65589  0.19797  0.25365  1.0000
  S   S411      1.0  0.56152  0.35600  0.29184  1.0000
  H   H1237     1.0  0.61681  0.22019  0.00427  1.0000
  C   C1239     1.0  0.63467  0.25539  0.98771  1.0000
  C   C1240     1.0  0.56678  0.41561  0.28932  1.0000
  C   C1241     1.0  0.66116  0.17218  0.27503  1.0000
  S   S412      1.0  0.73343  0.45637  0.21029  1.0000
  N   N105      1.0  0.61022  0.20422  0.16062  1.0000
  C   C1242     1.0  0.61463  0.18933  0.15152  1.0000
  C   C1243     1.0  0.60977  0.22267  0.15040  1.0000
  C   C1244     1.0  0.61830  0.19275  0.13169  1.0000
  C   C1245     1.0  0.61337  0.22661  0.13053  1.0000
  C   C1246     1.0  0.61765  0.21153  0.12115  1.0000
  C   C1247     1.0  0.60711  0.20026  0.18140  1.0000
  H   H1238     1.0  0.61590  0.17461  0.15953  1.0000
  H   H1239     1.0  0.60678  0.23446  0.15755  1.0000
  H   H1240     1.0  0.62235  0.18079  0.12459  1.0000
  H   H1241     1.0  0.61315  0.24122  0.12244  1.0000
  H   H1242     1.0  0.62087  0.21433  0.10575  1.0000
  H   H1243     1.0  0.60141  0.18698  0.18793  1.0000
  H   H1244     1.0  0.62069  0.19833  0.18583  1.0000
  H   H1245     1.0  0.59658  0.21208  0.18724  1.0000
  C   C1248     1.0  0.69457  0.29513  0.00890  1.0000
  C   C1249     1.0  0.64571  0.33835  0.07777  1.0000
  H   H1246     1.0  0.71704  0.01757  0.28539  1.0000
  C   C1250     1.0  0.51261  0.32378  0.26467  1.0000
  C   C1251     1.0  0.62270  0.33059  0.10573  1.0000
  C   C1252     1.0  0.66259  0.18433  0.98879  1.0000
  C   C1253     1.0  0.70354  0.11974  0.27450  1.0000
  H   H1247     1.0  0.65629  0.32571  0.11799  1.0000
  S   S413      1.0  0.67634  0.10382  0.24264  1.0000
  H   H1248     1.0  0.64354  0.21322  0.02055  1.0000
  H   H1249     1.0  0.70218  0.32111  0.00976  1.0000
  H   H1250     1.0  0.54348  0.32503  0.22208  1.0000
  C   C1254     1.0  0.58234  0.29848  0.20454  1.0000
  Fe  Fe207     1.0  0.61958  0.15121  0.21972  1.0000
  H   H1251     1.0  0.55334  0.25066  0.24521  1.0000
  C   C1255     1.0  0.56757  0.27242  0.22572  1.0000
  H   H1252     1.0  0.72002  0.45722  0.30446  1.0000
  H   H1253     1.0  0.59865  0.05291  0.21659  1.0000
  C   C1256     1.0  0.73910  0.29166  0.04626  1.0000
  C   C1257     1.0  0.73834  0.40724  0.12818  1.0000
  C   C1258     1.0  0.64462  0.20602  0.00926  1.0000
  C   C1259     1.0  0.65311  0.18366  0.25980  1.0000
  S   S414      1.0  0.60896  0.08810  0.21495  1.0000
  C   C1260     1.0  0.69583  0.14730  0.24959  1.0000
  S   S415      1.0  0.62617  0.42929  0.27175  1.0000
  H   H1254     1.0  0.57907  0.39239  0.27466  1.0000
  H   H1255     1.0  0.70137  0.98857  0.22629  1.0000
  C   C1261     1.0  0.72539  0.43363  0.26359  1.0000
  H   H1256     1.0  0.54986  0.26431  0.27336  1.0000
  H   H1257     1.0  0.56218  0.29374  0.26920  1.0000
  C   C1262     1.0  0.71125  0.42403  0.29694  1.0000
  H   H1258     1.0  0.64230  0.00621  0.22346  1.0000
  C   C1263     1.0  0.67988  0.41392  0.25938  1.0000
  N   N106      1.0  0.63948  0.33625  0.09702  1.0000
  C   C1264     1.0  0.64366  0.04604  0.23570  1.0000
  C   C1265     1.0  0.67532  0.42354  0.24176  1.0000
  S   S416      1.0  0.60212  0.17710  0.23130  1.0000
  H   H1259     1.0  0.57730  0.21318  0.23448  1.0000
  C   C1266     1.0  0.69866  0.40508  0.26030  1.0000
  H   H1260     1.0  0.69035  0.04115  0.19832  1.0000
  C   C1267     1.0  0.56403  0.28730  0.25716  1.0000
  C   C1268     1.0  0.55699  0.27092  0.25944  1.0000
  H   H1261     1.0  0.63018  0.04784  0.24567  1.0000
  H   H1262     1.0  0.60979  0.32541  0.06722  1.0000
  H   H1263     1.0  0.67850  0.07056  0.21180  1.0000
  H   H1264     1.0  0.51044  0.32763  0.27819  1.0000
  H   H1265     1.0  0.57061  0.30751  0.19748  1.0000
  C   C1269     1.0  0.63974  0.01439  0.23472  1.0000
  H   H1266     1.0  0.57753  0.30910  0.23737  1.0000
  C   C1270     1.0  0.67743  0.04251  0.20912  1.0000
  C   C1271     1.0  0.67075  0.05901  0.21662  1.0000
  C   C1272     1.0  0.57276  0.29595  0.23905  1.0000
  H   H1267     1.0  0.69029  0.29079  0.02421  1.0000
  H   H1268     1.0  0.62422  0.02016  0.23802  1.0000
  C   C1273     1.0  0.70758  0.41575  0.22628  1.0000
  H   H1269     1.0  0.70246  0.39789  0.27393  1.0000
  S   S417      1.0  0.72657  0.43410  0.17197  1.0000
  Fe  Fe208     1.0  0.65574  0.12063  0.22361  1.0000
  S   S418      1.0  0.62507  0.12108  0.23681  1.0000
  H   H1270     1.0  0.70168  0.02845  0.26896  1.0000
  H   H1271     1.0  0.71709  0.27137  0.10071  1.0000
  H   H1272     1.0  0.72737  0.39952  0.24428  1.0000
  C   C1274     1.0  0.57027  0.43109  0.29449  1.0000
  C   C1275     1.0  0.68438  0.43457  0.20706  1.0000
  Fe  Fe209     1.0  0.64233  0.99021  0.18690  1.0000
  C   C1276     1.0  0.70632  0.31765  0.98106  1.0000
  H   H1273     1.0  0.66482  0.14453  0.29383  1.0000
  H   H1274     1.0  0.64378  0.12008  0.27087  1.0000
  H   H1275     1.0  0.67551  0.17446  0.98408  1.0000
  C   C1277     1.0  0.73211  0.28239  0.06480  1.0000
  H   H1276     1.0  0.72021  0.40553  0.15606  1.0000
  C   C1278     1.0  0.71673  0.02485  0.27031  1.0000
  H   H1277     1.0  0.73437  0.41117  0.03343  1.0000
  Fe  Fe210     1.0  0.53890  0.38156  0.29793  1.0000
  N   N107      1.0  0.72500  0.04197  0.26497  1.0000
  H   H1278     1.0  0.73752  0.48386  0.23925  1.0000
  C   C1279     1.0  0.48995  0.23888  0.15725  1.0000
  C   C1280     1.0  0.73060  0.41278  0.14569  1.0000
  S   S419      1.0  0.61331  0.46889  0.30455  1.0000
  H   H1279     1.0  0.72489  0.01457  0.26111  1.0000
  H   H1280     1.0  0.52040  0.98821  0.20160  1.0000
  H   H1281     1.0  0.73812  0.46919  0.27312  1.0000
  H   H1282     1.0  0.55880  0.44000  0.30248  1.0000
  N   N108      1.0  0.73876  0.28371  0.07975  1.0000
  H   H1283     1.0  0.64416  0.00437  0.24756  1.0000
  H   H1284     1.0  0.73343  0.29104  0.03450  1.0000
  S   S420      1.0  0.61953  0.98501  0.21290  1.0000
  H   H1285     1.0  0.56466  0.40393  0.32844  1.0000
  Fe  Fe211     1.0  0.60340  0.34278  0.41835  1.0000
  S   S421      1.0  0.63124  0.34388  0.39802  1.0000
  S   S422      1.0  0.57671  0.35522  0.40679  1.0000
  Fe  Fe212     1.0  0.62166  0.32742  0.45295  1.0000
  S   S423      1.0  0.65099  0.32685  0.43525  1.0000
  S   S424      1.0  0.62007  0.31772  0.48459  1.0000
  Fe  Fe213     1.0  0.63830  0.35555  0.41943  1.0000
  S   S425      1.0  0.65389  0.37955  0.41063  1.0000
  Fe  Fe214     1.0  0.64122  0.31505  0.41570  1.0000
  S   S426      1.0  0.66153  0.29289  0.40059  1.0000
  S   S427      1.0  0.60962  0.35718  0.43841  1.0000
  S   S428      1.0  0.61276  0.31278  0.43469  1.0000
  Fe  Fe215     1.0  0.63388  0.33735  0.59084  1.0000
  S   S429      1.0  0.61534  0.36527  0.58046  1.0000
  H   H1286     1.0  0.73130  0.27027  0.57345  1.0000
  Fe  Fe216     1.0  0.66936  0.35311  0.57673  1.0000
  S   S430      1.0  0.65409  0.38256  0.56471  1.0000
  S   S431      1.0  0.70094  0.34658  0.57357  1.0000
  Fe  Fe217     1.0  0.63276  0.37818  0.59202  1.0000
  S   S432      1.0  0.61920  0.40184  0.60797  1.0000
  Fe  Fe218     1.0  0.63807  0.36712  0.55412  1.0000
  S   S433      1.0  0.63040  0.37831  0.52529  1.0000
  S   S434      1.0  0.64923  0.34992  0.60501  1.0000
  S   S435      1.0  0.65548  0.33805  0.56351  1.0000
  C   C1281     1.0  0.73234  0.28810  0.39863  1.0000
  S   S436      1.0  0.64045  0.42654  0.31771  1.0000
  C   C1282     1.0  0.66530  0.27352  0.59956  1.0000
  C   C1283     1.0  0.72223  0.28023  0.43276  1.0000
  H   H1287     1.0  0.52474  0.30512  0.35550  1.0000
  C   C1284     1.0  0.73386  0.08554  0.36677  1.0000
  Fe  Fe219     1.0  0.62354  0.45123  0.33085  1.0000
  S   S437      1.0  0.60493  0.44593  0.35978  1.0000
  C   C1285     1.0  0.51052  0.34334  0.38598  1.0000
  C   C1286     1.0  0.52621  0.32838  0.38851  1.0000
  H   H1288     1.0  0.54386  0.30325  0.37884  1.0000
  H   H1289     1.0  0.70833  0.36493  0.60294  1.0000
  N   N109      1.0  0.71480  0.29927  0.39709  1.0000
  H   H1290     1.0  0.59274  0.35540  0.32738  1.0000
  S   S438      1.0  0.56722  0.32230  0.34045  1.0000
  C   C1287     1.0  0.72297  0.28714  0.60761  1.0000
  S   S439      1.0  0.70184  0.22070  0.45344  1.0000
  H   H1291     1.0  0.61480  0.43130  0.62824  1.0000
  H   H1292     1.0  0.69380  0.28747  0.62165  1.0000
  H   H1293     1.0  0.50711  0.35446  0.39405  1.0000
  C   C1288     1.0  0.73202  0.15418  0.39059  1.0000
  S   S440      1.0  0.69254  0.42643  0.31647  1.0000
  C   C1289     1.0  0.73633  0.27852  0.41647  1.0000
  C   C1290     1.0  0.58512  0.30710  0.62060  1.0000
  H   H1294     1.0  0.63753  0.39304  0.44817  1.0000
  H   H1295     1.0  0.68710  0.29969  0.55898  1.0000
  H   H1296     1.0  0.72832  0.37527  0.60099  1.0000
  C   C1291     1.0  0.65403  0.22973  0.42853  1.0000
  C   C1292     1.0  0.55624  0.39479  0.62716  1.0000
  C   C1293     1.0  0.70930  0.32390  0.58704  1.0000
  C   C1294     1.0  0.69673  0.31356  0.60062  1.0000
  C   C1295     1.0  0.59885  0.31768  0.61844  1.0000
  H   H1297     1.0  0.68171  0.31947  0.60306  1.0000
  S   S441      1.0  0.52844  0.33019  0.30985  1.0000
  C   C1296     1.0  0.67331  0.27394  0.41585  1.0000
  C   C1297     1.0  0.66562  0.26954  0.43532  1.0000
  C   C1298     1.0  0.67471  0.25343  0.44703  1.0000
  C   C1299     1.0  0.69173  0.24211  0.43935  1.0000
  C   C1300     1.0  0.69984  0.24719  0.42007  1.0000
  C   C1301     1.0  0.69049  0.26286  0.40827  1.0000
  H   H1298     1.0  0.65237  0.27815  0.44125  1.0000
  H   H1299     1.0  0.66841  0.24957  0.46197  1.0000
  H   H1300     1.0  0.71295  0.23865  0.41403  1.0000
  H   H1301     1.0  0.69653  0.26633  0.39323  1.0000
  C   C1302     1.0  0.62102  0.33487  0.49668  1.0000
  C   C1303     1.0  0.62594  0.32870  0.51457  1.0000
  C   C1304     1.0  0.62815  0.34200  0.52385  1.0000
  C   C1305     1.0  0.62536  0.36156  0.51530  1.0000
  C   C1306     1.0  0.61969  0.36780  0.49778  1.0000
  C   C1307     1.0  0.61760  0.35450  0.48847  1.0000
  H   H1302     1.0  0.62838  0.31356  0.52111  1.0000
  H   H1303     1.0  0.63226  0.33705  0.53746  1.0000
  H   H1304     1.0  0.61727  0.38293  0.49121  1.0000
  H   H1305     1.0  0.61347  0.35945  0.47488  1.0000
  C   C1308     1.0  0.64042  0.39905  0.39737  1.0000
  C   C1309     1.0  0.62074  0.40392  0.40349  1.0000
  C   C1310     1.0  0.60990  0.41895  0.39235  1.0000
  C   C1311     1.0  0.61865  0.42859  0.37472  1.0000
  C   C1312     1.0  0.63835  0.42385  0.36876  1.0000
  C   C1313     1.0  0.64925  0.40930  0.38020  1.0000
  H   H1306     1.0  0.61385  0.39617  0.41685  1.0000
  H   H1307     1.0  0.59471  0.42272  0.39718  1.0000
  H   H1308     1.0  0.64530  0.43116  0.35523  1.0000
  H   H1309     1.0  0.66445  0.40550  0.37535  1.0000
  H   H1310     1.0  0.68732  0.31068  0.41175  1.0000
  H   H1311     1.0  0.58853  0.29504  0.61380  1.0000
  C   C1314     1.0  0.66741  0.28746  0.58281  1.0000
  H   H1312     1.0  0.72127  0.29226  0.55945  1.0000
  H   H1313     1.0  0.57462  0.41507  0.61867  1.0000
  Fe  Fe220     1.0  0.50800  0.35781  0.31377  1.0000
  H   H1314     1.0  0.69055  0.38722  0.57304  1.0000
  H   H1315     1.0  0.56414  0.42268  0.35157  1.0000
  H   H1316     1.0  0.64069  0.25446  0.41002  1.0000
  H   H1317     1.0  0.72054  0.30244  0.36689  1.0000
  C   C1315     1.0  0.67923  0.43000  0.58631  1.0000
  C   C1316     1.0  0.62885  0.42244  0.62824  1.0000
  C   C1317     1.0  0.57062  0.33215  0.35809  1.0000
  C   C1318     1.0  0.58433  0.32202  0.36888  1.0000
  C   C1319     1.0  0.58667  0.32920  0.38360  1.0000
  C   C1320     1.0  0.57500  0.34635  0.38782  1.0000
  C   C1321     1.0  0.56143  0.35656  0.37692  1.0000
  C   C1322     1.0  0.55943  0.34961  0.36195  1.0000
  H   H1318     1.0  0.59311  0.30852  0.36594  1.0000
  H   H1319     1.0  0.59721  0.32126  0.39196  1.0000
  H   H1320     1.0  0.55249  0.36992  0.38005  1.0000
  H   H1321     1.0  0.54893  0.35761  0.35375  1.0000
  H   H1322     1.0  0.67131  0.20537  0.44348  1.0000
  H   H1323     1.0  0.71667  0.06689  0.36520  1.0000
  N   N110      1.0  0.58725  0.38146  0.33707  1.0000
  C   C1323     1.0  0.59967  0.37456  0.34913  1.0000
  C   C1324     1.0  0.57454  0.39847  0.33793  1.0000
  C   C1325     1.0  0.59939  0.38469  0.36264  1.0000
  C   C1326     1.0  0.57405  0.40907  0.35108  1.0000
  C   C1327     1.0  0.58652  0.40206  0.36353  1.0000
  H   H1324     1.0  0.60970  0.36103  0.34855  1.0000
  C   C1328     1.0  0.70453  0.29200  0.43108  1.0000
  H   H1325     1.0  0.69334  0.29324  0.44359  1.0000
  H   H1326     1.0  0.58620  0.41009  0.37386  1.0000
  H   H1327     1.0  0.65413  0.35899  0.44879  1.0000
  N   N111      1.0  0.68320  0.21150  0.41379  1.0000
  C   C1329     1.0  0.68139  0.22322  0.39644  1.0000
  N   N112      1.0  0.65744  0.37685  0.46532  1.0000
  C   C1330     1.0  0.66598  0.23872  0.39480  1.0000
  H   H1328     1.0  0.72192  0.09689  0.37054  1.0000
  C   C1331     1.0  0.65228  0.24201  0.41099  1.0000
  C   C1332     1.0  0.73093  0.06875  0.36381  1.0000
  C   C1333     1.0  0.71681  0.37567  0.59392  1.0000
  C   C1334     1.0  0.68124  0.26037  0.60474  1.0000
  H   H1329     1.0  0.66492  0.24848  0.38119  1.0000
  H   H1330     1.0  0.65762  0.38364  0.61209  1.0000
  C   C1335     1.0  0.65296  0.39564  0.61904  1.0000
  H   H1331     1.0  0.69288  0.43691  0.60503  1.0000
  C   C1336     1.0  0.66965  0.21442  0.42967  1.0000
  H   H1332     1.0  0.66117  0.39750  0.43947  1.0000
  H   H1333     1.0  0.69210  0.22090  0.38382  1.0000
  H   H1334     1.0  0.61837  0.47481  0.37040  1.0000
  H   H1335     1.0  0.67901  0.39056  0.62862  1.0000
  H   H1336     1.0  0.71194  0.48116  0.30928  1.0000
  C   C1337     1.0  0.69137  0.39827  0.57972  1.0000
  C   C1338     1.0  0.69274  0.42636  0.59736  1.0000
  C   C1339     1.0  0.63478  0.40703  0.61901  1.0000
  C   C1340     1.0  0.66514  0.39968  0.62827  1.0000
  H   H1337     1.0  0.69605  0.30855  0.37780  1.0000
  H   H1338     1.0  0.66895  0.44348  0.58515  1.0000
  H   H1339     1.0  0.71540  0.05103  0.32353  1.0000
  H   H1340     1.0  0.55065  0.39776  0.64124  1.0000
  C   C1341     1.0  0.57622  0.33817  0.63837  1.0000
  C   C1342     1.0  0.66307  0.37764  0.48110  1.0000
  C   C1343     1.0  0.66969  0.36076  0.49352  1.0000
  C   C1344     1.0  0.67045  0.34303  0.48975  1.0000
  H   H1341     1.0  0.66171  0.39132  0.48465  1.0000
  H   H1342     1.0  0.67320  0.36147  0.50651  1.0000
  H   H1343     1.0  0.67465  0.32986  0.49974  1.0000
  N   N113      1.0  0.70444  0.39474  0.59075  1.0000
  Fe  Fe221     1.0  0.73290  0.21165  0.44164  1.0000
  H   H1344     1.0  0.65501  0.29753  0.57862  1.0000
  H   H1345     1.0  0.71673  0.15796  0.39434  1.0000
  H   H1346     1.0  0.71125  0.19705  0.40281  1.0000
  H   H1347     1.0  0.71162  0.32450  0.37549  1.0000
  C   C1345     1.0  0.65872  0.35954  0.46122  1.0000
  H   H1348     1.0  0.59848  0.37617  0.30938  1.0000
  H   H1349     1.0  0.67984  0.24956  0.61783  1.0000
  N   N114      1.0  0.70113  0.27575  0.57709  1.0000
  C   C1346     1.0  0.70526  0.40851  0.59953  1.0000
  C   C1347     1.0  0.69949  0.19542  0.41544  1.0000
  N   N115      1.0  0.55778  0.37680  0.60412  1.0000
  C   C1348     1.0  0.57036  0.38687  0.59127  1.0000
  C   C1349     1.0  0.55049  0.38079  0.62180  1.0000
  C   C1350     1.0  0.57655  0.40084  0.59625  1.0000
  H   H1350     1.0  0.65130  0.27307  0.60850  1.0000
  C   C1351     1.0  0.56955  0.40466  0.61440  1.0000
  C   C1352     1.0  0.55292  0.36107  0.59905  1.0000
  H   H1351     1.0  0.57609  0.38375  0.57722  1.0000
  H   H1352     1.0  0.49659  0.33139  0.35209  1.0000
  H   H1353     1.0  0.58714  0.40827  0.58632  1.0000
  H   H1354     1.0  0.72353  0.37121  0.58016  1.0000
  H   H1355     1.0  0.60898  0.37909  0.37246  1.0000
  H   H1356     1.0  0.54137  0.35519  0.61000  1.0000
  H   H1357     1.0  0.54824  0.36606  0.58528  1.0000
  H   H1358     1.0  0.56554  0.34910  0.59790  1.0000
  C   C1353     1.0  0.73071  0.04739  0.31964  1.0000
  H   H1359     1.0  0.71143  0.25137  0.59738  1.0000
  C   C1354     1.0  0.52050  0.31552  0.36448  1.0000
  H   H1360     1.0  0.66782  0.41843  0.56908  1.0000
  C   C1355     1.0  0.70116  0.30173  0.41303  1.0000
  Fe  Fe222     1.0  0.54818  0.34109  0.32067  1.0000
  C   C1356     1.0  0.71997  0.27703  0.56518  1.0000
  H   H1361     1.0  0.72269  0.26976  0.55320  1.0000
  H   H1362     1.0  0.64376  0.23251  0.44129  1.0000
  H   H1363     1.0  0.71507  0.40555  0.60890  1.0000
  S   S442      1.0  0.72611  0.01083  0.32387  1.0000
  H   H1364     1.0  0.54050  0.37287  0.63203  1.0000
  C   C1357     1.0  0.59436  0.33336  0.62717  1.0000
  H   H1365     1.0  0.57417  0.37375  0.31873  1.0000
  H   H1366     1.0  0.73115  0.20565  0.52542  1.0000
  S   S443      1.0  0.72661  0.13727  0.36432  1.0000
  C   C1358     1.0  0.53121  0.31443  0.37765  1.0000
  C   C1359     1.0  0.69912  0.26152  0.59311  1.0000
  S   S444      1.0  0.73089  0.26333  0.61911  1.0000
  C   C1360     1.0  0.70359  0.29539  0.61115  1.0000
  C   C1361     1.0  0.67856  0.41592  0.57734  1.0000
  C   C1362     1.0  0.68554  0.28849  0.57173  1.0000
  H   H1367     1.0  0.70525  0.19464  0.42803  1.0000
  S   S445      1.0  0.52658  0.36703  0.32736  1.0000
  S   S446      1.0  0.62141  0.31135  0.60446  1.0000
  H   H1368     1.0  0.60496  0.34155  0.62555  1.0000
  H   H1369     1.0  0.64565  0.40706  0.45942  1.0000
  S   S447      1.0  0.64808  0.46519  0.32584  1.0000
  H   H1370     1.0  0.66489  0.32869  0.47073  1.0000
  C   C1363     1.0  0.72875  0.31600  0.58404  1.0000
  S   S448      1.0  0.73020  0.11541  0.32021  1.0000
  N   N116      1.0  0.49983  0.34408  0.37332  1.0000
  H   H1371     1.0  0.53492  0.32802  0.39826  1.0000
  C   C1364     1.0  0.66502  0.34237  0.47345  1.0000
  C   C1365     1.0  0.65015  0.39455  0.45253  1.0000
  C   C1366     1.0  0.58825  0.37117  0.32242  1.0000
  C   C1367     1.0  0.71062  0.30921  0.37836  1.0000
  C   C1368     1.0  0.50473  0.33051  0.36252  1.0000
  H   H1372     1.0  0.69517  0.18170  0.41701  1.0000
  C   C1369     1.0  0.73983  0.02839  0.31863  1.0000
  C   C1370     1.0  0.56683  0.31234  0.63119  1.0000
  H   H1373     1.0  0.73857  0.32398  0.57365  1.0000
  H   H1374     1.0  0.72906  0.40193  0.31365  1.0000
  H   H1375     1.0  0.55618  0.30430  0.63252  1.0000
  C   C1371     1.0  0.64114  0.42662  0.63728  1.0000
  C   C1372     1.0  0.65938  0.41535  0.63715  1.0000
  H   H1376     1.0  0.72500  0.27235  0.44662  1.0000
  H   H1377     1.0  0.73408  0.07630  0.31639  1.0000
  H   H1378     1.0  0.73641  0.16671  0.41183  1.0000
  C   C1373     1.0  0.73556  0.29761  0.59422  1.0000
  H   H1379     1.0  0.73756  0.21211  0.55401  1.0000
  C   C1374     1.0  0.56239  0.32774  0.64023  1.0000
  Fe  Fe223     1.0  0.66421  0.44211  0.31013  1.0000
  H   H1380     1.0  0.69531  0.46657  0.31088  1.0000
  H   H1381     1.0  0.49055  0.32513  0.31310  1.0000
  S   S449      1.0  0.73973  0.15828  0.31051  1.0000
  S   S450      1.0  0.52051  0.34087  0.70432  1.0000
  Fe  Fe224     1.0  0.54399  0.38508  0.68472  1.0000
  S   S451      1.0  0.56066  0.35502  0.68510  1.0000
  S   S452      1.0  0.56029  0.40849  0.66990  1.0000
  Fe  Fe225     1.0  0.53682  0.35052  0.67504  1.0000
  S   S453      1.0  0.67557  0.42082  0.64728  1.0000
  Fe  Fe226     1.0  0.54286  0.34840  0.71429  1.0000
  S   S454      1.0  0.55694  0.32891  0.73753  1.0000
  S   S455      1.0  0.52150  0.38116  0.67198  1.0000
  Fe  Fe227     1.0  0.67011  0.44242  0.70709  1.0000
  S   S456      1.0  0.67897  0.45693  0.67664  1.0000
  S   S457      1.0  0.69180  0.43151  0.72567  1.0000
  Fe  Fe228     1.0  0.63015  0.44448  0.70263  1.0000
  S   S458      1.0  0.63567  0.45977  0.67207  1.0000
  S   S459      1.0  0.60222  0.43626  0.71808  1.0000
  Fe  Fe229     1.0  0.66319  0.43830  0.66995  1.0000
  H   H1382     1.0  0.49092  0.33749  0.65834  1.0000
  C   C1375     1.0  0.55120  0.16420  0.81566  1.0000
  C   C1376     1.0  0.53322  0.29412  0.78426  1.0000
  S   S460      1.0  0.65679  0.42195  0.70003  1.0000
  S   S461      1.0  0.64271  0.46352  0.71275  1.0000
  Fe  Fe230     1.0  0.53831  0.23065  0.83178  1.0000
  S   S462      1.0  0.56191  0.21164  0.81567  1.0000
  H   H1383     1.0  0.69401  0.02928  0.76513  1.0000
  S   S463      1.0  0.54099  0.26022  0.83186  1.0000
  Fe  Fe231     1.0  0.63425  0.25355  0.90265  1.0000
  S   S464      1.0  0.66101  0.23131  0.89825  1.0000
  S   S465      1.0  0.62151  0.26664  0.87669  1.0000
  Fe  Fe232     1.0  0.64743  0.21427  0.92566  1.0000
  S   S466      1.0  0.64364  0.18404  0.93082  1.0000
  Fe  Fe233     1.0  0.67116  0.24480  0.91646  1.0000
  S   S467      1.0  0.70104  0.24951  0.91064  1.0000
  Fe  Fe234     1.0  0.62855  0.12366  0.85137  1.0000
  S   S468      1.0  0.64871  0.10715  0.87062  1.0000
  S   S469      1.0  0.59751  0.13236  0.86318  1.0000
  Fe  Fe235     1.0  0.65902  0.12560  0.81574  1.0000
  S   S470      1.0  0.68177  0.10955  0.83186  1.0000
  S   S471      1.0  0.66689  0.13524  0.78404  1.0000
  Fe  Fe236     1.0  0.66144  0.09033  0.84762  1.0000
  S   S472      1.0  0.67298  0.05857  0.85075  1.0000
  Fe  Fe237     1.0  0.66703  0.12797  0.85299  1.0000
  S   S473      1.0  0.68443  0.14351  0.86180  1.0000
  S   S474      1.0  0.63964  0.10509  0.82986  1.0000
  S   S475      1.0  0.64593  0.14579  0.83549  1.0000
  C   C1377     1.0  0.72036  0.09272  0.76591  1.0000
  S   S476      1.0  0.61282  0.01369  0.84803  1.0000
  S   S477      1.0  0.73954  0.36061  0.92728  1.0000
  C   C1378     1.0  0.72825  0.12327  0.79056  1.0000
  S   S478      1.0  0.71186  0.33031  0.91492  1.0000
  S   S479      1.0  0.73729  0.46058  0.85163  1.0000
  H   H1384     1.0  0.56949  0.41918  0.72890  1.0000
  H   H1385     1.0  0.63426  0.15538  0.91739  1.0000
  H   H1386     1.0  0.55298  0.40789  0.71034  1.0000
  C   C1379     1.0  0.51413  0.30334  0.78704  1.0000
  Fe  Fe238     1.0  0.52717  0.25297  0.86261  1.0000
  S   S480      1.0  0.52638  0.22277  0.86302  1.0000
  C   C1380     1.0  0.68616  0.11807  0.77578  1.0000
  C   C1381     1.0  0.69032  0.09993  0.78748  1.0000
  C   C1382     1.0  0.70748  0.08733  0.78264  1.0000
  C   C1383     1.0  0.60664  0.37448  0.65849  1.0000
  C   C1384     1.0  0.71563  0.11029  0.75344  1.0000
  C   C1385     1.0  0.69846  0.12300  0.75839  1.0000
  H   H1387     1.0  0.68055  0.09583  0.80059  1.0000
  H   H1388     1.0  0.71118  0.07383  0.79236  1.0000
  C   C1386     1.0  0.62916  0.38399  0.67108  1.0000
  H   H1389     1.0  0.69519  0.13699  0.74926  1.0000
  C   C1387     1.0  0.65613  0.04568  0.85125  1.0000
  C   C1388     1.0  0.66216  0.02722  0.84741  1.0000
  C   C1389     1.0  0.64893  0.01724  0.84646  1.0000
  C   C1390     1.0  0.62960  0.02559  0.84972  1.0000
  C   C1391     1.0  0.62353  0.04384  0.85402  1.0000
  C   C1392     1.0  0.63679  0.05395  0.85462  1.0000
  H   H1390     1.0  0.67712  0.02076  0.84488  1.0000
  H   H1391     1.0  0.65369  0.00304  0.84342  1.0000
  H   H1392     1.0  0.60857  0.05029  0.85667  1.0000
  H   H1393     1.0  0.63203  0.06810  0.85784  1.0000
  C   C1393     1.0  0.70404  0.27131  0.91375  1.0000
  C   C1394     1.0  0.68842  0.28576  0.91838  1.0000
  C   C1395     1.0  0.69102  0.30376  0.91878  1.0000
  C   C1396     1.0  0.70929  0.30729  0.91513  1.0000
  C   C1397     1.0  0.70498  0.30593  0.96970  1.0000
  C   C1398     1.0  0.72236  0.27475  0.91040  1.0000
  H   H1394     1.0  0.67430  0.28326  0.92131  1.0000
  H   H1395     1.0  0.67882  0.31499  0.92195  1.0000
  H   H1396     1.0  0.52659  0.19567  0.82156  1.0000
  C   C1399     1.0  0.72303  0.12117  0.68609  1.0000
  C   C1400     1.0  0.65513  0.17265  0.91178  1.0000
  C   C1401     1.0  0.64726  0.15899  0.90826  1.0000
  C   C1402     1.0  0.65603  0.15013  0.89278  1.0000
  C   C1403     1.0  0.67297  0.15454  0.88110  1.0000
  C   C1404     1.0  0.68094  0.16806  0.88475  1.0000
  C   C1405     1.0  0.67194  0.17725  0.89994  1.0000
  H   H1397     1.0  0.64983  0.13968  0.89009  1.0000
  H   H1398     1.0  0.69409  0.17145  0.87579  1.0000
  H   H1399     1.0  0.67820  0.18762  0.90270  1.0000
  C   C1406     1.0  0.56062  0.26044  0.88332  1.0000
  C   C1407     1.0  0.56684  0.26198  0.89891  1.0000
  C   C1408     1.0  0.58562  0.26349  0.89707  1.0000
  C   C1409     1.0  0.59818  0.26387  0.87949  1.0000
  C   C1410     1.0  0.59200  0.26230  0.86386  1.0000
  C   C1411     1.0  0.57334  0.26025  0.86584  1.0000
  C   C1412     1.0  0.73765  0.10696  0.80162  1.0000
  H   H1400     1.0  0.59019  0.26490  0.90915  1.0000
  H   H1401     1.0  0.60171  0.26247  0.85024  1.0000
  H   H1402     1.0  0.56876  0.25892  0.85376  1.0000
  C   C1413     1.0  0.57222  0.19018  0.82941  1.0000
  C   C1414     1.0  0.56286  0.18293  0.84776  1.0000
  C   C1415     1.0  0.57087  0.16531  0.85824  1.0000
  C   C1416     1.0  0.58816  0.15474  0.85028  1.0000
  C   C1417     1.0  0.59747  0.16184  0.83185  1.0000
  C   C1418     1.0  0.58954  0.17960  0.82146  1.0000
  H   H1403     1.0  0.54914  0.19046  0.85368  1.0000
  H   H1404     1.0  0.56351  0.15967  0.87239  1.0000
  H   H1405     1.0  0.61045  0.15340  0.82532  1.0000
  H   H1406     1.0  0.59669  0.18497  0.80712  1.0000
  C   C1419     1.0  0.69369  0.44650  0.73959  1.0000
  C   C1420     1.0  0.70834  0.44078  0.74974  1.0000
  C   C1421     1.0  0.68147  0.46439  0.73998  1.0000
  H   H1407     1.0  0.71783  0.42695  0.74948  1.0000
  H   H1408     1.0  0.59933  0.48095  0.75281  1.0000
  C   C1422     1.0  0.54630  0.30178  0.76874  1.0000
  C   C1423     1.0  0.54027  0.31855  0.75588  1.0000
  H   H1409     1.0  0.55181  0.17592  0.80326  1.0000
  N   N117      1.0  0.53659  0.16563  0.83108  1.0000
  C   C1424     1.0  0.71350  0.11254  0.70374  1.0000
  H   H1410     1.0  0.59307  0.47495  0.69403  1.0000
  Fe  Fe239     1.0  0.73930  0.33300  0.92018  1.0000
  S   S481      1.0  0.52772  0.37886  0.71483  1.0000
  Fe  Fe240     1.0  0.72892  0.47859  0.78385  1.0000
  C   C1425     1.0  0.54913  0.33079  0.79635  1.0000
  C   C1426     1.0  0.52155  0.32191  0.82051  1.0000
  H   H1411     1.0  0.72557  0.11446  0.74045  1.0000
  C   C1427     1.0  0.67576  0.99148  0.73588  1.0000
  C   C1428     1.0  0.53601  0.15101  0.84687  1.0000
  H   H1412     1.0  0.67014  0.46889  0.73225  1.0000
  S   S482      1.0  0.53674  0.25939  0.88608  1.0000
  C   C1429     1.0  0.50803  0.31994  0.77400  1.0000
  C   C1430     1.0  0.52108  0.32749  0.75835  1.0000
  H   H1413     1.0  0.57289  0.35013  0.64524  1.0000
  H   H1414     1.0  0.51637  0.34050  0.74846  1.0000
  C   C1431     1.0  0.62285  0.38693  0.70366  1.0000
  C   C1432     1.0  0.71616  0.46992  0.69341  1.0000
  H   H1415     1.0  0.71605  0.45784  0.68778  1.0000
  C   C1433     1.0  0.71617  0.09256  0.70895  1.0000
  H   H1416     1.0  0.67734  0.00597  0.73452  1.0000
  C   C1434     1.0  0.72501  0.29264  0.91129  1.0000
  S   S483      1.0  0.64286  0.00020  0.76142  1.0000
  H   H1417     1.0  0.61896  0.37044  0.64715  1.0000
  C   C1435     1.0  0.57132  0.41660  0.68352  1.0000
  C   C1436     1.0  0.58697  0.42507  0.67440  1.0000
  C   C1437     1.0  0.59658  0.43102  0.68491  1.0000
  C   C1438     1.0  0.59028  0.42901  0.70458  1.0000
  C   C1439     1.0  0.57442  0.42080  0.71369  1.0000
  C   C1440     1.0  0.56509  0.41437  0.70322  1.0000
  H   H1418     1.0  0.59189  0.42672  0.65919  1.0000
  H   H1419     1.0  0.60888  0.43706  0.67774  1.0000
  C   C1441     1.0  0.52472  0.30416  0.85215  1.0000
  C   C1442     1.0  0.63450  0.38872  0.68558  1.0000
  H   H1420     1.0  0.63393  0.29980  0.88507  1.0000
  C   C1443     1.0  0.73726  0.38548  0.86494  1.0000
  C   C1444     1.0  0.66939  0.27904  0.86698  1.0000
  H   H1421     1.0  0.56077  0.32025  0.78968  1.0000
  C   C1445     1.0  0.69900  0.47107  0.75996  1.0000
  N   N118      1.0  0.73763  0.09006  0.67901  1.0000
  H   H1422     1.0  0.53873  0.33630  0.78687  1.0000
  C   C1446     1.0  0.52124  0.18271  0.83048  1.0000
  H   H1423     1.0  0.64822  0.18112  0.96873  1.0000
  H   H1424     1.0  0.71154  0.16745  0.78554  1.0000
  H   H1425     1.0  0.66008  0.27082  0.86527  1.0000
  H   H1426     1.0  0.51258  0.32870  0.81023  1.0000
  C   C1447     1.0  0.56589  0.13338  0.83232  1.0000
  H   H1427     1.0  0.70442  0.12132  0.71354  1.0000
  H   H1428     1.0  0.53798  0.28117  0.79410  1.0000
  H   H1429     1.0  0.70891  0.31039  0.95437  1.0000
  H   H1430     1.0  0.66050  0.24657  0.96832  1.0000
  C   C1448     1.0  0.68853  0.27052  0.86649  1.0000
  H   H1431     1.0  0.62648  0.39115  0.71491  1.0000
  H   H1432     1.0  0.70813  0.27858  0.95211  1.0000
  Fe  Fe241     1.0  0.63423  0.24840  0.94465  1.0000
  H   H1433     1.0  0.58777  0.37163  0.69457  1.0000
  H   H1434     1.0  0.56692  0.31268  0.82471  1.0000
  C   C1449     1.0  0.72581  0.46703  0.70793  1.0000
  H   H1435     1.0  0.49840  0.31271  0.84236  1.0000
  H   H1436     1.0  0.72658  0.37793  0.86404  1.0000
  H   H1437     1.0  0.71528  0.27413  0.86934  1.0000
  H   H1438     1.0  0.49329  0.33802  0.68132  1.0000
  H   H1439     1.0  0.64742  0.39406  0.68265  1.0000
  H   H1440     1.0  0.73061  0.06592  0.70057  1.0000
  H   H1441     1.0  0.59676  0.37925  0.72087  1.0000
  H   H1442     1.0  0.72146  0.13668  0.68212  1.0000
  H   H1443     1.0  0.57807  0.14741  0.80417  1.0000
  H   H1444     1.0  0.51498  0.18578  0.84490  1.0000
  H   H1445     1.0  0.63656  0.43877  0.64402  1.0000
  H   H1446     1.0  0.73912  0.18866  0.66382  1.0000
  H   H1447     1.0  0.72274  0.44879  0.76715  1.0000
  H   H1448     1.0  0.70183  0.04673  0.78547  1.0000
  H   H1449     1.0  0.69062  0.15697  0.79421  1.0000
  H   H1450     1.0  0.59870  0.36269  0.66330  1.0000
  H   H1451     1.0  0.55484  0.34305  0.79684  1.0000
  H   H1452     1.0  0.70539  0.14876  0.82397  1.0000
  H   H1453     1.0  0.73083  0.43549  0.88857  1.0000
  Fe  Fe242     1.0  0.65070  0.47688  0.68181  1.0000
  C   C1450     1.0  0.71460  0.13714  0.81756  1.0000
  S   S484      1.0  0.51010  0.24041  0.82340  1.0000
  S   S485      1.0  0.62010  0.23580  0.92913  1.0000
  H   H1454     1.0  0.56872  0.19516  0.88041  1.0000
  Fe  Fe243     1.0  0.51131  0.26917  0.82674  1.0000
  H   H1455     1.0  0.51861  0.29709  0.86636  1.0000
  S   S486      1.0  0.64551  0.26871  0.91835  1.0000
  S   S487      1.0  0.66036  0.22513  0.94352  1.0000
  H   H1456     1.0  0.55706  0.26214  0.91247  1.0000
  C   C1451     1.0  0.71112  0.45312  0.75976  1.0000
  C   C1452     1.0  0.56608  0.14809  0.81607  1.0000
  C   C1453     1.0  0.54403  0.30428  0.84712  1.0000
  H   H1457     1.0  0.52440  0.15211  0.85907  1.0000
  N   N119      1.0  0.71650  0.13784  0.79868  1.0000
  Fe  Fe244     1.0  0.50671  0.37195  0.70210  1.0000
  H   H1458     1.0  0.73918  0.29524  0.90853  1.0000
  C   C1454     1.0  0.51338  0.31300  0.83877  1.0000
  C   C1455     1.0  0.55073  0.13476  0.84780  1.0000
  H   H1459     1.0  0.56112  0.29475  0.76672  1.0000
  S   S488      1.0  0.60771  0.98881  0.81127  1.0000
  C   C1456     1.0  0.72834  0.08146  0.69631  1.0000
  C   C1457     1.0  0.68401  0.47653  0.75033  1.0000
  N   N120      1.0  0.66243  0.29732  0.86991  1.0000
  C   C1458     1.0  0.67405  0.30739  0.87280  1.0000
  S   S489      1.0  0.53911  0.33445  0.65267  1.0000
  C   C1459     1.0  0.69333  0.29941  0.87213  1.0000
  H   H1460     1.0  0.73036  0.40059  0.86589  1.0000
  H   H1461     1.0  0.50364  0.31648  0.67216  1.0000
  H   H1462     1.0  0.63703  0.30204  0.85989  1.0000
  H   H1463     1.0  0.66845  0.32157  0.87591  1.0000
  H   H1464     1.0  0.73900  0.40980  0.83119  1.0000
  H   H1465     1.0  0.70245  0.30721  0.87488  1.0000
  C   C1460     1.0  0.64219  0.30567  0.87094  1.0000
  H   H1466     1.0  0.58922  0.47253  0.72761  1.0000
  C   C1461     1.0  0.70591  0.15447  0.78723  1.0000
  H   H1467     1.0  0.55290  0.29752  0.85750  1.0000
  H   H1468     1.0  0.58713  0.98805  0.87699  1.0000
  C   C1462     1.0  0.55182  0.31295  0.82861  1.0000
  N   N121      1.0  0.54059  0.32161  0.81557  1.0000
  H   H1469     1.0  0.63818  0.38552  0.65713  1.0000
  N   N122      1.0  0.65036  0.04092  0.79217  1.0000
  C   C1463     1.0  0.65448  0.05085  0.80313  1.0000
  C   C1464     1.0  0.66428  0.03340  0.77851  1.0000
  C   C1465     1.0  0.67304  0.05300  0.80096  1.0000
  C   C1466     1.0  0.68300  0.03533  0.77591  1.0000
  C   C1467     1.0  0.68737  0.04515  0.78727  1.0000
  C   C1468     1.0  0.63073  0.03919  0.79451  1.0000
  H   H1470     1.0  0.64342  0.05703  0.81381  1.0000
  H   H1471     1.0  0.66097  0.02583  0.76956  1.0000
  H   H1472     1.0  0.67627  0.06059  0.80996  1.0000
  S   S490      1.0  0.49752  0.26454  0.85761  1.0000
  H   H1473     1.0  0.62253  0.05277  0.78733  1.0000
  H   H1474     1.0  0.62994  0.02727  0.78843  1.0000
  H   H1475     1.0  0.62389  0.03603  0.80983  1.0000
  N   N123      1.0  0.61266  0.37778  0.67435  1.0000
  C   C1469     1.0  0.60118  0.37591  0.69205  1.0000
  S   S491      1.0  0.65225  0.98818  0.81009  1.0000
  C   C1470     1.0  0.60617  0.38027  0.70700  1.0000
  H   H1476     1.0  0.49327  0.32714  0.77612  1.0000
  H   H1477     1.0  0.70927  0.08570  0.72288  1.0000
  H   H1478     1.0  0.55076  0.12359  0.86065  1.0000
  N   N124      1.0  0.59426  0.20504  0.87483  1.0000
  C   C1471     1.0  0.60688  0.19258  0.86452  1.0000
  C   C1472     1.0  0.60040  0.21394  0.88530  1.0000
  C   C1473     1.0  0.62628  0.18902  0.86426  1.0000
  C   C1474     1.0  0.61971  0.21086  0.88520  1.0000
  C   C1475     1.0  0.63269  0.19843  0.87449  1.0000
  C   C1476     1.0  0.57407  0.20869  0.87454  1.0000
  H   H1479     1.0  0.60200  0.18532  0.85643  1.0000
  H   H1480     1.0  0.59042  0.22357  0.89374  1.0000
  H   H1481     1.0  0.63628  0.17896  0.85628  1.0000
  H   H1482     1.0  0.62457  0.21802  0.89342  1.0000
  H   H1483     1.0  0.64769  0.19591  0.87428  1.0000
  H   H1484     1.0  0.56534  0.21936  0.88313  1.0000
  H   H1485     1.0  0.57193  0.21446  0.85971  1.0000
  S   S492      1.0  0.49803  0.29530  0.80757  1.0000
  H   H1486     1.0  0.50992  0.18061  0.82457  1.0000
  Fe  Fe245     1.0  0.49820  0.23494  0.85467  1.0000
  H   H1487     1.0  0.63920  0.32157  0.86865  1.0000
  C   C1477     1.0  0.73535  0.10586  0.82103  1.0000
  H   H1488     1.0  0.57780  0.12126  0.83321  1.0000
  H   H1489     1.0  0.61893  0.20033  0.96275  1.0000
  C   C1478     1.0  0.49122  0.32864  0.67292  1.0000
  H   H1490     1.0  0.73025  0.12405  0.77550  1.0000
  C   C1479     1.0  0.69749  0.27700  0.96569  1.0000
  H   H1491     1.0  0.61602  0.98903  0.88684  1.0000
  Fe  Fe246     1.0  0.62473  0.99072  0.83109  1.0000
  C   C1480     1.0  0.72395  0.12114  0.82905  1.0000
  H   H1492     1.0  0.59744  0.38784  0.65213  1.0000
  C   C1481     1.0  0.72489  0.48245  0.71593  1.0000
  H   H1493     1.0  0.73455  0.26362  0.90690  1.0000
  H   H1494     1.0  0.70666  0.15216  0.77291  1.0000
  C   C1482     1.0  0.70056  0.28086  0.86895  1.0000
  H   H1495     1.0  0.73320  0.45272  0.71359  1.0000
  H   H1496     1.0  0.73162  0.47985  0.72789  1.0000
  H   H1497     1.0  0.69389  0.25578  0.86486  1.0000
  H   H1498     1.0  0.72181  0.12043  0.84418  1.0000
  H   H1499     1.0  0.68308  0.28103  0.96246  1.0000
  S   S493      1.0  0.61961  0.25765  0.97222  1.0000
  C   C1483     1.0  0.65972  0.98514  0.74777  1.0000
  C   C1484     1.0  0.73525  0.10964  0.67389  1.0000
  H   H1500     1.0  0.60889  0.22087  0.97324  1.0000
  H   H1501     1.0  0.70030  0.26155  0.97273  1.0000
  H   H1502     1.0  0.71140  0.33090  0.97458  1.0000
  Fe  Fe247     1.0  0.65421  0.89418  0.08960  1.0000
  S   S494      1.0  0.64322  0.87116  0.11300  1.0000
  S   S495      1.0  0.65674  0.92218  0.09421  1.0000
  Fe  Fe248     1.0  0.65840  0.87239  0.05882  1.0000
  S   S496      1.0  0.64748  0.84757  0.07950  1.0000
  S   S497      1.0  0.66967  0.87173  0.02791  1.0000
  Fe  Fe249     1.0  0.62593  0.87020  0.09295  1.0000
  S   S498      1.0  0.59468  0.87110  0.10183  1.0000
  Fe  Fe250     1.0  0.66585  0.85077  0.09744  1.0000
  S   S499      1.0  0.68423  0.82511  0.11252  1.0000
  S   S500      1.0  0.63518  0.89489  0.07052  1.0000
  S   S501      1.0  0.67849  0.87403  0.07574  1.0000
  C   C1485     1.0  0.71814  0.93992  0.20257  1.0000
  C   C1486     1.0  0.73113  0.83199  0.11684  1.0000
  C   C1487     1.0  0.73631  0.80087  0.07151  1.0000
  N   N125      1.0  0.72368  0.57557  0.26901  1.0000
  C   C1488     1.0  0.65174  0.66654  0.27247  1.0000
  H   H1503     1.0  0.59920  0.65955  0.25703  1.0000
  H   H1504     1.0  0.70778  0.86991  0.12482  1.0000
  C   C1489     1.0  0.61676  0.92363  0.14163  1.0000
  Fe  Fe251     1.0  0.53980  0.85806  0.20043  1.0000
  S   S502      1.0  0.53171  0.88998  0.19071  1.0000
  S   S503      1.0  0.56823  0.84068  0.18994  1.0000
  H   H1505     1.0  0.62440  0.91188  0.00050  1.0000
  H   H1506     1.0  0.70712  0.50179  0.22988  1.0000
  Fe  Fe252     1.0  0.52212  0.88970  0.22189  1.0000
  S   S504      1.0  0.52929  0.90908  0.23659  1.0000
  S   S505      1.0  0.51201  0.85279  0.19939  1.0000
  S   S506      1.0  0.53199  0.85798  0.23149  1.0000
  Fe  Fe253     1.0  0.65449  0.94747  0.18539  1.0000
  S   S507      1.0  0.63309  0.93925  0.21170  1.0000
  S   S508      1.0  0.67302  0.92248  0.17314  1.0000
  C   C1490     1.0  0.69163  0.48888  0.27769  1.0000
  Fe  Fe254     1.0  0.64191  0.96017  0.22311  1.0000
  S   S509      1.0  0.64930  0.95371  0.25203  1.0000
  Fe  Fe255     1.0  0.61331  0.96476  0.19849  1.0000
  S   S510      1.0  0.58604  0.96317  0.19177  1.0000
  C   C1491     1.0  0.52487  0.95986  0.17744  1.0000
  C   C1492     1.0  0.50508  0.83308  0.27633  1.0000
  H   H1507     1.0  0.54377  0.97629  0.19126  1.0000
  C   C1493     1.0  0.66906  0.96185  0.25333  1.0000
  C   C1494     1.0  0.49652  0.82315  0.26853  1.0000
  C   C1495     1.0  0.69889  0.56875  0.29625  1.0000
  C   C1496     1.0  0.67763  0.67162  0.24481  1.0000
  H   H1508     1.0  0.59127  0.69761  0.30522  1.0000
  H   H1509     1.0  0.61817  0.93859  0.16950  1.0000
  N   N126      1.0  0.69444  0.92302  0.22333  1.0000
  H   H1510     1.0  0.59793  0.89586  0.18214  1.0000
  H   H1511     1.0  0.64451  0.65433  0.27952  1.0000
  C   C1497     1.0  0.70330  0.93051  0.20535  1.0000
  C   C1498     1.0  0.54806  0.92092  0.22443  1.0000
  C   C1499     1.0  0.55407  0.92344  0.20470  1.0000
  C   C1500     1.0  0.56676  0.93555  0.19488  1.0000
  C   C1501     1.0  0.57402  0.94471  0.20476  1.0000
  C   C1502     1.0  0.56896  0.94129  0.22459  1.0000
  C   C1503     1.0  0.55580  0.92960  0.23438  1.0000
  H   H1512     1.0  0.54806  0.91708  0.19687  1.0000
  H   H1513     1.0  0.57039  0.93842  0.17951  1.0000
  H   H1514     1.0  0.57427  0.94858  0.23228  1.0000
  H   H1515     1.0  0.55118  0.92774  0.24965  1.0000
  H   H1516     1.0  0.72912  0.64048  0.27503  1.0000
  C   C1504     1.0  0.59614  0.89480  0.15419  1.0000
  C   C1505     1.0  0.51361  0.82351  0.29189  1.0000
  C   C1506     1.0  0.60172  0.90190  0.16705  1.0000
  N   N127      1.0  0.61181  0.91622  0.16068  1.0000
  C   C1507     1.0  0.67874  0.91340  0.22625  1.0000
  C   C1508     1.0  0.70336  0.81481  0.09645  1.0000
  C   C1509     1.0  0.70648  0.82362  0.07715  1.0000
  H   H1517     1.0  0.53385  0.96786  0.21559  1.0000
  C   C1510     1.0  0.71629  0.79840  0.10309  1.0000
  H   H1518     1.0  0.69637  0.83594  0.07179  1.0000
  H   H1519     1.0  0.63988  0.65289  0.24904  1.0000
  H   H1520     1.0  0.71381  0.79142  0.11798  1.0000
  C   C1511     1.0  0.58735  0.86163  0.12611  1.0000
  C   C1512     1.0  0.56831  0.86671  0.13491  1.0000
  C   C1513     1.0  0.56235  0.86014  0.15451  1.0000
  C   C1514     1.0  0.57540  0.84824  0.16531  1.0000
  C   C1515     1.0  0.59440  0.84290  0.15648  1.0000
  C   C1516     1.0  0.60041  0.84972  0.13690  1.0000
  H   H1521     1.0  0.55819  0.87592  0.12658  1.0000
  H   H1522     1.0  0.54764  0.86420  0.16121  1.0000
  H   H1523     1.0  0.60452  0.83369  0.16479  1.0000
  H   H1524     1.0  0.61509  0.84558  0.13014  1.0000
  C   C1517     1.0  0.66221  0.92185  0.11582  1.0000
  C   C1518     1.0  0.66671  0.90460  0.12875  1.0000
  C   C1519     1.0  0.67045  0.90484  0.14619  1.0000
  C   C1520     1.0  0.66915  0.92235  0.15094  1.0000
  C   C1521     1.0  0.66446  0.93957  0.13808  1.0000
  C   C1522     1.0  0.66130  0.93930  0.12043  1.0000
  H   H1525     1.0  0.66725  0.89113  0.12535  1.0000
  H   H1526     1.0  0.67397  0.89149  0.15616  1.0000
  H   H1527     1.0  0.66365  0.95312  0.14154  1.0000
  H   H1528     1.0  0.65784  0.95268  0.11045  1.0000
  C   C1523     1.0  0.65358  0.86882  0.01609  1.0000
  C   C1524     1.0  0.63412  0.87164  0.02383  1.0000
  C   C1525     1.0  0.62147  0.87102  0.01308  1.0000
  C   C1526     1.0  0.62829  0.86745  0.99470  1.0000
  H   H1529     1.0  0.70298  0.55989  0.27009  1.0000
  C   C1527     1.0  0.66039  0.86459  0.99806  1.0000
  H   H1530     1.0  0.62878  0.87483  0.03785  1.0000
  H   H1531     1.0  0.60638  0.87359  0.01890  1.0000
  H   H1532     1.0  0.72667  0.82583  0.13179  1.0000
  H   H1533     1.0  0.67545  0.86229  0.99208  1.0000
  C   C1528     1.0  0.49647  0.80372  0.27624  1.0000
  C   C1529     1.0  0.59007  0.68762  0.26367  1.0000
  N   N128      1.0  0.52150  0.96117  0.19604  1.0000
  C   C1530     1.0  0.58739  0.69828  0.27742  1.0000
  C   C1531     1.0  0.70823  0.56742  0.27761  1.0000
  C   C1532     1.0  0.53022  0.97408  0.20135  1.0000
  C   C1533     1.0  0.51629  0.94789  0.17215  1.0000
  C   C1534     1.0  0.72301  0.81679  0.06475  1.0000
  H   H1534     1.0  0.67791  0.62387  0.27602  1.0000
  C   C1535     1.0  0.70389  0.85893  0.11973  1.0000
  S   S511      1.0  0.69557  0.63258  0.30212  1.0000
  H   H1535     1.0  0.68941  0.62093  0.24258  1.0000
  H   H1536     1.0  0.52014  0.83124  0.29799  1.0000
  C   C1536     1.0  0.60120  0.90225  0.13474  1.0000
  C   C1537     1.0  0.68687  0.67017  0.22619  1.0000
  N   N129      1.0  0.65133  0.81737  0.01395  1.0000
  C   C1538     1.0  0.63228  0.82199  0.01429  1.0000
  C   C1539     1.0  0.66378  0.80970  0.99950  1.0000
  H   H1537     1.0  0.73704  0.54883  0.19947  1.0000
  C   C1540     1.0  0.63790  0.81161  0.98489  1.0000
  C   C1541     1.0  0.63777  0.91702  0.99792  1.0000
  C   C1542     1.0  0.65850  0.81995  0.02945  1.0000
  H   H1538     1.0  0.62237  0.82827  0.02559  1.0000
  H   H1539     1.0  0.67887  0.80595  0.99925  1.0000
  H   H1540     1.0  0.67542  0.90826  0.99346  1.0000
  C   C1543     1.0  0.69441  0.97939  0.23854  1.0000
  H   H1541     1.0  0.69869  0.92958  0.19303  1.0000
  H   H1542     1.0  0.67125  0.82647  0.02373  1.0000
  H   H1543     1.0  0.64787  0.82982  0.03788  1.0000
  H   H1544     1.0  0.66223  0.80590  0.03918  1.0000
  S   S512      1.0  0.61231  0.63409  0.28933  1.0000
  C   C1544     1.0  0.60317  0.65886  0.28481  1.0000
  C   C1545     1.0  0.50529  0.79411  0.29156  1.0000
  C   C1546     1.0  0.70288  0.63190  0.27797  1.0000
  C   C1547     1.0  0.60119  0.66965  0.29828  1.0000
  C   C1548     1.0  0.70529  0.57870  0.30598  1.0000
  C   C1549     1.0  0.69165  0.62661  0.26869  1.0000
  C   C1550     1.0  0.70037  0.92410  0.23881  1.0000
  H   H1545     1.0  0.48992  0.79602  0.27013  1.0000
  H   H1546     1.0  0.49152  0.93057  0.21584  1.0000
  H   H1547     1.0  0.66215  0.66576  0.28108  1.0000
  C   C1551     1.0  0.50945  0.95103  0.20966  1.0000
  H   H1548     1.0  0.68311  0.89781  0.23205  1.0000
  H   H1549     1.0  0.64330  0.91120  0.01127  1.0000
  C   C1552     1.0  0.50063  0.93897  0.20485  1.0000
  Fe  Fe256     1.0  0.50276  0.88481  0.19301  1.0000
  C   C1553     1.0  0.65308  0.65783  0.24264  1.0000
  H   H1550     1.0  0.68655  0.66027  0.20165  1.0000
  C   C1554     1.0  0.62531  0.81935  0.99969  1.0000
  H   H1551     1.0  0.68411  0.67727  0.25299  1.0000
  S   S513      1.0  0.72428  0.97728  0.25412  1.0000
  C   C1555     1.0  0.72455  0.48536  0.25000  1.0000
  H   H1552     1.0  0.66629  0.91962  0.23633  1.0000
  H   H1553     1.0  0.56361  0.80191  0.21148  1.0000
  C   C1556     1.0  0.72040  0.63627  0.26795  1.0000
  H   H1554     1.0  0.62485  0.93487  0.13658  1.0000
  C   C1557     1.0  0.71560  0.62951  0.23969  1.0000
  H   H1555     1.0  0.69280  0.86606  0.11124  1.0000
  C   C1558     1.0  0.69086  0.49722  0.25866  1.0000
  H   H1556     1.0  0.67407  0.91515  0.21280  1.0000
  H   H1557     1.0  0.72567  0.82410  0.04997  1.0000
  H   H1558     1.0  0.53444  0.96788  0.16665  1.0000
  H   H1559     1.0  0.67198  0.97982  0.22528  1.0000
  Fe  Fe257     1.0  0.50325  0.85571  0.22967  1.0000
  H   H1560     1.0  0.69313  0.91846  0.25306  1.0000
  H   H1561     1.0  0.50494  0.77925  0.29760  1.0000
  H   H1562     1.0  0.67866  0.49034  0.28838  1.0000
  H   H1563     1.0  0.65584  0.64981  0.21607  1.0000
  H   H1564     1.0  0.66979  0.94581  0.28196  1.0000
  H   H1565     1.0  0.58557  0.69450  0.25037  1.0000
  H   H1566     1.0  0.69918  0.95488  0.28318  1.0000
  C   C1559     1.0  0.65726  0.80670  0.98477  1.0000
  S   S514      1.0  0.65698  0.60353  0.30527  1.0000
  N   N130      1.0  0.66113  0.66518  0.25288  1.0000
  C   C1560     1.0  0.69807  0.62522  0.24964  1.0000
  N   N131      1.0  0.55810  0.80388  0.25746  1.0000
  C   C1561     1.0  0.56147  0.80952  0.23807  1.0000
  C   C1562     1.0  0.55425  0.78610  0.26619  1.0000
  C   C1563     1.0  0.56093  0.79729  0.22687  1.0000
  C   C1564     1.0  0.55369  0.77347  0.25541  1.0000
  C   C1565     1.0  0.55706  0.77913  0.23564  1.0000
  C   C1566     1.0  0.55911  0.81695  0.26873  1.0000
  H   H1567     1.0  0.56470  0.82355  0.23110  1.0000
  H   H1568     1.0  0.55164  0.78154  0.28155  1.0000
  N   N132      1.0  0.72064  0.84869  0.10834  1.0000
  H   H1569     1.0  0.55084  0.75930  0.26233  1.0000
  H   H1570     1.0  0.55679  0.76940  0.22714  1.0000
  H   H1571     1.0  0.54909  0.83086  0.26544  1.0000
  H   H1572     1.0  0.55522  0.81105  0.28428  1.0000
  H   H1573     1.0  0.57371  0.81958  0.26545  1.0000
  C   C1567     1.0  0.72610  0.85629  0.08941  1.0000
  H   H1574     1.0  0.61597  0.92236  0.11325  1.0000
  H   H1575     1.0  0.70042  0.67440  0.22011  1.0000
  H   H1576     1.0  0.63309  0.91517  0.17518  1.0000
  C   C1568     1.0  0.50406  0.93743  0.18597  1.0000
  S   S515      1.0  0.57594  0.72247  0.27342  1.0000
  C   C1569     1.0  0.67659  0.95526  0.26984  1.0000
  C   C1570     1.0  0.61162  0.91671  0.12838  1.0000
  C   C1571     1.0  0.73272  0.79134  0.09059  1.0000
  H   H1577     1.0  0.58815  0.88345  0.15924  1.0000
  H   H1578     1.0  0.59722  0.89671  0.12457  1.0000
  H   H1579     1.0  0.49742  0.92798  0.18207  1.0000
  H   H1580     1.0  0.64099  0.68015  0.27261  1.0000
  C   C1572     1.0  0.69320  0.96044  0.27058  1.0000
  H   H1581     1.0  0.60912  0.92072  0.18854  1.0000
  H   H1582     1.0  0.73081  0.58845  0.23975  1.0000
  S   S516      1.0  0.63992  0.51249  0.28743  1.0000
  C   C1573     1.0  0.51407  0.80391  0.29927  1.0000
  C   C1574     1.0  0.61838  0.92293  0.17415  1.0000
  C   C1575     1.0  0.70746  0.49541  0.24474  1.0000
  C   C1576     1.0  0.59772  0.66787  0.26747  1.0000
  H   H1583     1.0  0.72902  0.69547  0.07763  1.0000
  C   C1577     1.0  0.67907  0.66218  0.21582  1.0000
  C   C1578     1.0  0.72993  0.58550  0.27840  1.0000
  S   S517      1.0  0.66492  0.96618  0.19775  1.0000
  H   H1584     1.0  0.51918  0.94661  0.15745  1.0000
  C   C1579     1.0  0.71546  0.93299  0.23652  1.0000
  C   C1580     1.0  0.67053  0.90690  0.98148  1.0000
  H   H1585     1.0  0.63352  0.55258  0.28726  1.0000
  C   C1581     1.0  0.66197  0.65611  0.22400  1.0000
  C   C1582     1.0  0.70231  0.97228  0.25478  1.0000
  S   S518      1.0  0.72347  0.62783  0.21588  1.0000
  H   H1586     1.0  0.50490  0.84820  0.27056  1.0000
  C   C1583     1.0  0.72090  0.58714  0.29703  1.0000
  Fe  Fe258     1.0  0.55786  0.72857  0.30099  1.0000
  S   S519      1.0  0.49223  0.88747  0.22336  1.0000
  H   H1587     1.0  0.50708  0.95170  0.22448  1.0000
  H   H1588     1.0  0.72476  0.94630  0.18832  1.0000
  Fe  Fe259     1.0  0.73623  0.96748  0.28083  1.0000
  H   H1589     1.0  0.69728  0.84883  0.13208  1.0000
  H   H1590     1.0  0.71783  0.86954  0.08268  1.0000
  C   C1584     1.0  0.64082  0.54463  0.29865  1.0000
  S   S520      1.0  0.63448  0.97207  0.17148  1.0000
  H   H1591     1.0  0.71998  0.93407  0.24883  1.0000
  C   C1585     1.0  0.72675  0.63511  0.24881  1.0000
  C   C1586     1.0  0.59312  0.68933  0.29466  1.0000
  H   H1592     1.0  0.68660  0.56235  0.30310  1.0000
  C   C1587     1.0  0.67785  0.97423  0.23785  1.0000
  C   C1588     1.0  0.64604  0.52454  0.30172  1.0000
  H   H1593     1.0  0.67742  0.50502  0.25481  1.0000
  H   H1594     1.0  0.61028  0.82376  0.99958  1.0000
  C   C1589     1.0  0.64779  0.86398  0.98740  1.0000
  N   N133      1.0  0.65154  0.91041  0.98178  1.0000
  S   S521      1.0  0.52762  0.74400  0.30259  1.0000
  C   C1590     1.0  0.72419  0.94120  0.21830  1.0000
  S   S522      1.0  0.61231  0.86758  0.98103  1.0000
  H   H1595     1.0  0.72860  0.56388  0.24426  1.0000
  H   H1596     1.0  0.50271  0.71998  0.29941  1.0000
  H   H1597     1.0  0.73545  0.94872  0.21647  1.0000
  H   H1598     1.0  0.63458  0.93294  0.99519  1.0000
  C   C1591     1.0  0.73343  0.57416  0.24948  1.0000
  H   H1599     1.0  0.72560  0.59544  0.30427  1.0000
  Fe  Fe260     1.0  0.64702  0.72071  0.44913  1.0000
  S   S523      1.0  0.67583  0.71400  0.43082  1.0000
  S   S524      1.0  0.64376  0.71021  0.48092  1.0000
  Fe  Fe261     1.0  0.62906  0.74112  0.41501  1.0000
  S   S525      1.0  0.65673  0.73685  0.39436  1.0000
  S   S526      1.0  0.60314  0.75747  0.40326  1.0000
  Fe  Fe262     1.0  0.66105  0.70683  0.41182  1.0000
  S   S527      1.0  0.67407  0.68239  0.39656  1.0000
  Fe  Fe263     1.0  0.66862  0.74455  0.41536  1.0000
  S   S528      1.0  0.69122  0.76221  0.40627  1.0000
  S   S529      1.0  0.63271  0.71063  0.43164  1.0000
  S   S530      1.0  0.64038  0.75176  0.43453  1.0000
  S   S531      1.0  0.65760  0.76521  0.52581  1.0000
  H   H1600     1.0  0.54751  0.64959  0.32569  1.0000
  Fe  Fe264     1.0  0.63571  0.62516  0.35000  1.0000
  Fe  Fe265     1.0  0.55591  0.72389  0.34291  1.0000
  S   S532      1.0  0.62167  0.64057  0.37398  1.0000
  Fe  Fe266     1.0  0.64974  0.58814  0.33542  1.0000
  H   H1601     1.0  0.73571  0.95410  0.61840  1.0000
  S   S533      1.0  0.65684  0.55577  0.34195  1.0000
  C   C1592     1.0  0.56621  0.66228  0.36340  1.0000
  H   H1602     1.0  0.65817  0.65342  0.62485  1.0000
  H   H1603     1.0  0.72757  0.93462  0.36435  1.0000
  H   H1604     1.0  0.71863  0.83588  0.58259  1.0000
  S   S534      1.0  0.66402  0.60493  0.34657  1.0000
  S   S535      1.0  0.62079  0.60691  0.34141  1.0000
  H   H1605     1.0  0.70489  0.77634  0.63606  1.0000
  S   S536      1.0  0.66124  0.69080  0.60231  1.0000
  C   C1593     1.0  0.69380  0.71179  0.48640  1.0000
  C   C1594     1.0  0.72740  0.79705  0.52047  1.0000
  C   C1595     1.0  0.59725  0.52175  0.32143  1.0000
  H   H1606     1.0  0.62971  0.49784  0.38169  1.0000
  C   C1596     1.0  0.66964  0.80531  0.60273  1.0000
  S   S537      1.0  0.67187  0.73911  0.60710  1.0000
  C   C1597     1.0  0.72515  0.79147  0.61551  1.0000
  S   S538      1.0  0.64177  0.64367  0.32095  1.0000
  Fe  Fe267     1.0  0.72633  0.82249  0.45084  1.0000
  H   H1607     1.0  0.66012  0.49909  0.31868  1.0000
  S   S539      1.0  0.69861  0.81261  0.45959  1.0000
  H   H1608     1.0  0.60815  0.71002  0.61929  1.0000
  H   H1609     1.0  0.57168  0.66598  0.37380  1.0000
  H   H1610     1.0  0.59366  0.64695  0.35137  1.0000
  H   H1611     1.0  0.59563  0.78080  0.43236  1.0000
  H   H1612     1.0  0.65011  0.68782  0.35630  1.0000
  C   C1598     1.0  0.61549  0.68150  0.63601  1.0000
  C   C1599     1.0  0.57203  0.64688  0.33707  1.0000
  H   H1613     1.0  0.71391  0.82484  0.56630  1.0000
  H   H1614     1.0  0.60103  0.51043  0.31301  1.0000
  H   H1615     1.0  0.65574  0.80197  0.63222  1.0000
  C   C1600     1.0  0.63569  0.73548  0.35503  1.0000
  C   C1601     1.0  0.65943  0.52427  0.32819  1.0000
  C   C1602     1.0  0.69839  0.71128  0.46717  1.0000
  H   H1616     1.0  0.67400  0.82235  0.63906  1.0000
  C   C1603     1.0  0.58160  0.75518  0.62684  1.0000
  H   H1617     1.0  0.70009  0.75988  0.61322  1.0000
  H   H1618     1.0  0.60322  0.48627  0.34257  1.0000
  H   H1619     1.0  0.69093  0.77535  0.52633  1.0000
  C   C1604     1.0  0.71260  0.77885  0.62147  1.0000
  Fe  Fe268     1.0  0.66583  0.72100  0.59044  1.0000
  H   H1620     1.0  0.57697  0.71762  0.64083  1.0000
  H   H1621     1.0  0.57492  0.78755  0.45024  1.0000
  S   S540      1.0  0.73889  0.88877  0.42322  1.0000
  S   S541      1.0  0.55117  0.70523  0.32614  1.0000
  H   H1622     1.0  0.60253  0.72650  0.33690  1.0000
  Fe  Fe269     1.0  0.66076  0.75370  0.55630  1.0000
  C   C1605     1.0  0.60810  0.49640  0.34739  1.0000
  H   H1623     1.0  0.67319  0.79795  0.49819  1.0000
  Fe  Fe270     1.0  0.64751  0.76086  0.59677  1.0000
  C   C1606     1.0  0.70455  0.75892  0.48492  1.0000
  C   C1607     1.0  0.72563  0.95012  0.63142  1.0000
  H   H1624     1.0  0.57311  0.77665  0.43213  1.0000
  N   N134      1.0  0.69322  0.82478  0.59227  1.0000
  H   H1625     1.0  0.69997  0.84817  0.56982  1.0000
  C   C1608     1.0  0.70540  0.72635  0.45378  1.0000
  C   C1609     1.0  0.71991  0.81510  0.51048  1.0000
  C   C1610     1.0  0.62286  0.50277  0.36959  1.0000
  C   C1611     1.0  0.71997  0.77254  0.58977  1.0000
  Fe  Fe271     1.0  0.52149  0.72227  0.32959  1.0000
  H   H1626     1.0  0.60235  0.53445  0.31158  1.0000
  H   H1627     1.0  0.61156  0.69412  0.33169  1.0000
  H   H1628     1.0  0.58169  0.63876  0.32695  1.0000
  H   H1629     1.0  0.72271  0.76851  0.53374  1.0000
  C   C1612     1.0  0.64671  0.71695  0.35827  1.0000
  C   C1613     1.0  0.60560  0.77161  0.62739  1.0000
  H   H1630     1.0  0.69013  0.69602  0.61915  1.0000
  H   H1631     1.0  0.62539  0.53223  0.36490  1.0000
  C   C1614     1.0  0.60372  0.69949  0.63190  1.0000
  Fe  Fe272     1.0  0.66876  0.62203  0.31661  1.0000
  C   C1615     1.0  0.67291  0.67626  0.62041  1.0000
  S   S542      1.0  0.72999  0.84454  0.46449  1.0000
  C   C1616     1.0  0.67630  0.82002  0.62481  1.0000
  H   H1632     1.0  0.61068  0.68333  0.35655  1.0000
  C   C1617     1.0  0.65353  0.54425  0.32561  1.0000
  H   H1633     1.0  0.71432  0.76737  0.47406  1.0000
  C   C1618     1.0  0.69621  0.72747  0.49200  1.0000
  C   C1619     1.0  0.57877  0.65153  0.35069  1.0000
  H   H1634     1.0  0.70993  0.75443  0.49831  1.0000
  S   S543      1.0  0.71793  0.96758  0.30982  1.0000
  N   N135      1.0  0.69191  0.80423  0.51163  1.0000
  C   C1620     1.0  0.68621  0.68240  0.62630  1.0000
  S   S544      1.0  0.68592  0.73115  0.56349  1.0000
  C   C1621     1.0  0.69260  0.77659  0.42105  1.0000
  C   C1622     1.0  0.67836  0.77980  0.43699  1.0000
  C   C1623     1.0  0.68015  0.79110  0.44864  1.0000
  C   C1624     1.0  0.69631  0.79895  0.44459  1.0000
  C   C1625     1.0  0.71059  0.79561  0.42877  1.0000
  C   C1626     1.0  0.70864  0.78463  0.41693  1.0000
  H   H1635     1.0  0.66595  0.77366  0.44027  1.0000
  H   H1636     1.0  0.66902  0.79374  0.46081  1.0000
  H   H1637     1.0  0.72321  0.80141  0.42562  1.0000
  H   H1638     1.0  0.71977  0.78208  0.40470  1.0000
  C   C1627     1.0  0.57965  0.72188  0.37681  1.0000
  C   C1628     1.0  0.57302  0.74178  0.37401  1.0000
  C   C1629     1.0  0.58004  0.75267  0.38243  1.0000
  C   C1630     1.0  0.59397  0.74372  0.39326  1.0000
  C   C1631     1.0  0.60058  0.72387  0.39592  1.0000
  C   C1632     1.0  0.59326  0.71298  0.38793  1.0000
  H   H1639     1.0  0.56254  0.74877  0.36535  1.0000
  H   H1640     1.0  0.57489  0.76805  0.38029  1.0000
  H   H1641     1.0  0.61147  0.71685  0.40397  1.0000
  H   H1642     1.0  0.59855  0.69766  0.38993  1.0000
  C   C1633     1.0  0.65946  0.66979  0.39166  1.0000
  C   C1634     1.0  0.63992  0.67287  0.39903  1.0000
  C   C1635     1.0  0.62855  0.66331  0.39402  1.0000
  C   C1636     1.0  0.63652  0.65106  0.38124  1.0000
  C   C1637     1.0  0.65606  0.64791  0.37393  1.0000
  C   C1638     1.0  0.66751  0.65704  0.37934  1.0000
  H   H1643     1.0  0.63358  0.68255  0.40862  1.0000
  H   H1644     1.0  0.61351  0.66551  0.39997  1.0000
  H   H1645     1.0  0.66239  0.63845  0.36411  1.0000
  H   H1646     1.0  0.68262  0.65457  0.37360  1.0000
  C   C1639     1.0  0.64708  0.72572  0.49350  1.0000
  C   C1640     1.0  0.64696  0.71947  0.51301  1.0000
  C   C1641     1.0  0.64999  0.73152  0.52320  1.0000
  C   C1642     1.0  0.65282  0.74999  0.51392  1.0000
  C   C1643     1.0  0.65265  0.75633  0.49450  1.0000
  C   C1644     1.0  0.64999  0.74417  0.48428  1.0000
  H   H1647     1.0  0.64473  0.70519  0.52023  1.0000
  H   H1648     1.0  0.65012  0.72652  0.53820  1.0000
  H   H1649     1.0  0.65480  0.77060  0.48728  1.0000
  H   H1650     1.0  0.65035  0.74906  0.46926  1.0000
  C   C1645     1.0  0.53435  0.67959  0.37585  1.0000
  C   C1646     1.0  0.65562  0.51445  0.31636  1.0000
  N   N136      1.0  0.69720  0.87036  0.40791  1.0000
  C   C1647     1.0  0.69511  0.85182  0.41116  1.0000
  C   C1648     1.0  0.70148  0.88068  0.38971  1.0000
  C   C1649     1.0  0.69794  0.84292  0.39598  1.0000
  C   C1650     1.0  0.70443  0.87225  0.37420  1.0000
  C   C1651     1.0  0.70273  0.85321  0.37739  1.0000
  C   C1652     1.0  0.69457  0.87914  0.42411  1.0000
  H   H1651     1.0  0.69164  0.84365  0.42559  1.0000
  H   H1652     1.0  0.70309  0.89542  0.38706  1.0000
  H   H1653     1.0  0.69662  0.82808  0.39865  1.0000
  H   H1654     1.0  0.70833  0.88042  0.35982  1.0000
  H   H1655     1.0  0.70520  0.84642  0.36550  1.0000
  H   H1656     1.0  0.70356  0.86983  0.43419  1.0000
  H   H1657     1.0  0.69897  0.89325  0.41964  1.0000
  H   H1658     1.0  0.67948  0.88132  0.43156  1.0000
  H   H1659     1.0  0.69031  0.76842  0.48731  1.0000
  S   S545      1.0  0.57240  0.70786  0.36550  1.0000
  S   S546      1.0  0.52565  0.73937  0.34837  1.0000
  H   H1660     1.0  0.63911  0.74700  0.35915  1.0000
  H   H1661     1.0  0.57639  0.74732  0.61967  1.0000
  H   H1662     1.0  0.62900  0.67797  0.62654  1.0000
  C   C1653     1.0  0.54062  0.66349  0.34944  1.0000
  H   H1663     1.0  0.66225  0.80541  0.52037  1.0000
  H   H1664     1.0  0.69764  0.83696  0.61329  1.0000
  C   C1654     1.0  0.66618  0.80852  0.62102  1.0000
  Fe  Fe273     1.0  0.62944  0.62386  0.31198  1.0000
  Fe  Fe274     1.0  0.53437  0.75978  0.32102  1.0000
  H   H1665     1.0  0.52574  0.66840  0.34865  1.0000
  S   S547      1.0  0.52633  0.79181  0.31755  1.0000
  H   H1666     1.0  0.69202  0.72806  0.50694  1.0000
  C   C1655     1.0  0.67316  0.80783  0.50710  1.0000
  N   N137      1.0  0.54744  0.66832  0.36249  1.0000
  H   H1667     1.0  0.54199  0.68701  0.38169  1.0000
  H   H1668     1.0  0.52395  0.69098  0.36859  1.0000
  N   N138      1.0  0.62597  0.70564  0.34595  1.0000
  H   H1669     1.0  0.68778  0.70042  0.49683  1.0000
  C   C1656     1.0  0.61527  0.72382  0.34242  1.0000
  N   N139      1.0  0.70317  0.74215  0.47880  1.0000
  C   C1657     1.0  0.55284  0.65289  0.33640  1.0000
  H   H1670     1.0  0.60679  0.75761  0.60516  1.0000
  C   C1658     1.0  0.61980  0.68951  0.34313  1.0000
  C   C1659     1.0  0.62033  0.52206  0.36027  1.0000
  H   H1671     1.0  0.63210  0.67798  0.33934  1.0000
  H   H1672     1.0  0.52659  0.67008  0.38778  1.0000
  C   C1660     1.0  0.71699  0.78262  0.52598  1.0000
  H   H1673     1.0  0.70867  0.72636  0.43870  1.0000
  C   C1661     1.0  0.68331  0.81356  0.58843  1.0000
  S   S548      1.0  0.73156  0.85605  0.60703  1.0000
  C   C1662     1.0  0.69907  0.78654  0.52163  1.0000
  C   C1663     1.0  0.61659  0.48986  0.36322  1.0000
  C   C1664     1.0  0.61997  0.73901  0.34688  1.0000
  C   C1665     1.0  0.71569  0.93597  0.63316  1.0000
  S   S549      1.0  0.56530  0.74590  0.31733  1.0000
  H   H1674     1.0  0.69666  0.83235  0.49775  1.0000
  H   H1675     1.0  0.65889  0.71387  0.36481  1.0000
  H   H1676     1.0  0.61101  0.75325  0.34478  1.0000
  H   H1677     1.0  0.66658  0.51630  0.33968  1.0000
  C   C1666     1.0  0.66811  0.65846  0.62962  1.0000
  C   C1667     1.0  0.61179  0.52809  0.34447  1.0000
  C   C1668     1.0  0.68970  0.82824  0.61014  1.0000
  S   S550      1.0  0.64017  0.74200  0.58185  1.0000
  H   H1678     1.0  0.69615  0.69937  0.46267  1.0000
  H   H1679     1.0  0.66900  0.82268  0.49896  1.0000
  H   H1680     1.0  0.68613  0.81065  0.57435  1.0000
  C   C1669     1.0  0.70774  0.74174  0.45989  1.0000
  C   C1670     1.0  0.64162  0.70217  0.35356  1.0000
  N   N140      1.0  0.60617  0.51522  0.33800  1.0000
  H   H1681     1.0  0.71303  0.75345  0.44937  1.0000
  C   C1671     1.0  0.70703  0.83388  0.57698  1.0000
  C   C1672     1.0  0.59888  0.76103  0.61855  1.0000
  S   S551      1.0  0.62794  0.77780  0.61793  1.0000
  C   C1673     1.0  0.70214  0.81841  0.50595  1.0000
  S   S552      1.0  0.71725  0.76078  0.57341  1.0000
  H   H1682     1.0  0.60228  0.70750  0.48485  1.0000
  Fe  Fe275     1.0  0.68952  0.75144  0.57939  1.0000
  N   N141      1.0  0.58709  0.75763  0.45386  1.0000
  C   C1674     1.0  0.58429  0.74170  0.44977  1.0000
  C   C1675     1.0  0.59514  0.75590  0.46890  1.0000
  C   C1676     1.0  0.58947  0.72347  0.46096  1.0000
  C   C1677     1.0  0.60030  0.73792  0.48049  1.0000
  C   C1678     1.0  0.59758  0.72160  0.47638  1.0000
  C   C1679     1.0  0.58240  0.77662  0.44161  1.0000
  H   H1683     1.0  0.57838  0.74295  0.43755  1.0000
  H   H1684     1.0  0.59789  0.76842  0.47183  1.0000
  H   H1685     1.0  0.58771  0.71082  0.45737  1.0000
  H   H1686     1.0  0.60696  0.73651  0.49224  1.0000
  C   C1680     1.0  0.70983  0.76957  0.60855  1.0000
  S   S553      1.0  0.66569  0.77474  0.57039  1.0000
  H   H1687     1.0  0.61018  0.54306  0.33713  1.0000
  H   H1688     1.0  0.69797  0.58016  0.32032  1.0000
  H   H1689     1.0  0.66183  0.79631  0.59980  1.0000
  H   H1690     1.0  0.71818  0.92866  0.62162  1.0000
  C   C1681     1.0  0.73267  0.78499  0.58387  1.0000
  S   S554      1.0  0.72825  0.80307  0.63187  1.0000
  C   C1682     1.0  0.73304  0.91985  0.37067  1.0000
  H   H1691     1.0  0.72923  0.92543  0.39853  1.0000
  Fe  Fe276     1.0  0.73859  0.98315  0.31341  1.0000
  H   H1692     1.0  0.60534  0.66279  0.31170  1.0000
  H   H1693     1.0  0.72796  0.82637  0.50608  1.0000
  S   S555      1.0  0.49702  0.70714  0.34047  1.0000
  C   C1683     1.0  0.73394  0.91462  0.39001  1.0000
  H   H1694     1.0  0.58161  0.52545  0.32607  1.0000
  Fe  Fe277     1.0  0.73850  0.94051  0.31942  1.0000
  S   S556      1.0  0.73867  0.83654  0.42129  1.0000
  H   H1695     1.0  0.64905  0.71251  0.63963  1.0000
  C   C1684     1.0  0.73505  0.79464  0.59664  1.0000
  S   S557      1.0  0.73419  0.91126  0.33667  1.0000
  C   C1685     1.0  0.73825  0.90578  0.35985  1.0000
  C   C1686     1.0  0.69457  0.67077  0.64148  1.0000
  S   S558      1.0  0.73485  0.88718  0.64126  1.0000
  C   C1687     1.0  0.64443  0.55447  0.31065  1.0000
  H   H1696     1.0  0.63975  0.56989  0.30857  1.0000
  S   S559      1.0  0.50999  0.77183  0.69573  1.0000
  Fe  Fe278     1.0  0.54309  0.73260  0.72561  1.0000
  S   S560      1.0  0.55311  0.75783  0.70481  1.0000
  S   S561      1.0  0.56445  0.71259  0.74232  1.0000
  Fe  Fe279     1.0  0.52516  0.77516  0.71658  1.0000
  Fe  Fe280     1.0  0.53733  0.75201  0.68592  1.0000
  S   S562      1.0  0.55112  0.74920  0.65568  1.0000
  S   S563      1.0  0.52877  0.72555  0.70611  1.0000
  Fe  Fe281     1.0  0.63673  0.62557  0.71131  1.0000
  S   S564      1.0  0.65617  0.61012  0.68896  1.0000
  S   S565      1.0  0.60745  0.64067  0.70641  1.0000
  Fe  Fe282     1.0  0.66603  0.61498  0.73586  1.0000
  S   S566      1.0  0.68776  0.59906  0.71557  1.0000
  S   S567      1.0  0.67395  0.61358  0.76330  1.0000
  Fe  Fe283     1.0  0.67795  0.62386  0.69302  1.0000
  S   S568      1.0  0.69881  0.63940  0.67083  1.0000
  Fe  Fe284     1.0  0.66405  0.58673  0.71368  1.0000
  S   S569      1.0  0.66932  0.55428  0.71960  1.0000
  S   S570      1.0  0.65798  0.64094  0.71358  1.0000
  S   S571      1.0  0.64278  0.60106  0.73570  1.0000
  N   N142      1.0  0.60555  0.94033  0.88724  1.0000
  H   H1697     1.0  0.71229  0.68394  0.86632  1.0000
  H   H1698     1.0  0.58778  0.66230  0.67673  1.0000
  N   N143      1.0  0.58051  0.69043  0.65989  1.0000
  C   C1688     1.0  0.65248  0.52170  0.68455  1.0000
  N   N144      1.0  0.72475  0.93901  0.76820  1.0000
  C   C1689     1.0  0.66249  0.52267  0.71262  1.0000
  C   C1690     1.0  0.67608  0.64710  0.64506  1.0000
  C   C1691     1.0  0.60505  0.51224  0.70203  1.0000
  C   C1692     1.0  0.65111  0.54162  0.67848  1.0000
  H   H1699     1.0  0.58070  0.95671  0.87710  1.0000
  C   C1693     1.0  0.69010  0.97889  0.72620  1.0000
  Fe  Fe285     1.0  0.61452  0.95705  0.82291  1.0000
  S   S572      1.0  0.64112  0.95140  0.80084  1.0000
  S   S573      1.0  0.59223  0.93928  0.83579  1.0000
  Fe  Fe286     1.0  0.65542  0.95651  0.82135  1.0000
  S   S574      1.0  0.68367  0.93924  0.82639  1.0000
  H   H1700     1.0  0.65250  0.55523  0.76078  1.0000
  H   H1701     1.0  0.63820  0.95850  0.89710  1.0000
  S   S575      1.0  0.62953  0.95939  0.84427  1.0000
  Fe  Fe287     1.0  0.65576  0.86747  0.91692  1.0000
  S   S576      1.0  0.67950  0.88326  0.90708  1.0000
  S   S577      1.0  0.59814  0.87673  0.89296  1.0000
  S   S578      1.0  0.64810  0.84882  0.90201  1.0000
  Fe  Fe288     1.0  0.56085  0.86798  0.79966  1.0000
  S   S579      1.0  0.53829  0.86790  0.82628  1.0000
  S   S580      1.0  0.57705  0.89151  0.78455  1.0000
  Fe  Fe289     1.0  0.55841  0.82837  0.79664  1.0000
  S   S581      1.0  0.53618  0.82459  0.82335  1.0000
  S   S582      1.0  0.57046  0.80492  0.78018  1.0000
  Fe  Fe290     1.0  0.55359  0.83747  0.83521  1.0000
  S   S583      1.0  0.56239  0.82427  0.86337  1.0000
  S   S584      1.0  0.54425  0.85815  0.78435  1.0000
  S   S585      1.0  0.57705  0.83839  0.80944  1.0000
  H   H1702     1.0  0.70117  0.75461  0.88130  1.0000
  C   C1694     1.0  0.70561  0.94503  0.76943  1.0000
  C   C1695     1.0  0.71341  0.77291  0.90568  1.0000
  C   C1696     1.0  0.70623  0.48827  0.68661  1.0000
  C   C1697     1.0  0.59212  0.67286  0.66417  1.0000
  C   C1698     1.0  0.70640  0.76315  0.92398  1.0000
  C   C1699     1.0  0.68126  0.56647  0.78292  1.0000
  C   C1700     1.0  0.69518  0.53676  0.77355  1.0000
  H   H1703     1.0  0.68295  0.76278  0.94804  1.0000
  C   C1701     1.0  0.71253  0.69357  0.87497  1.0000
  H   H1704     1.0  0.55400  0.94309  0.79779  1.0000
  H   H1705     1.0  0.65922  0.49696  0.70651  1.0000
  H   H1706     1.0  0.51212  0.78758  0.79406  1.0000
  C   C1702     1.0  0.65809  0.51227  0.70171  1.0000
  H   H1707     1.0  0.57033  0.76713  0.81248  1.0000
  H   H1708     1.0  0.71974  0.67078  0.89849  1.0000
  Fe  Fe291     1.0  0.73387  0.95380  0.70901  1.0000
  C   C1703     1.0  0.68479  0.79791  0.90784  1.0000
  C   C1704     1.0  0.70254  0.79025  0.89759  1.0000
  H   H1709     1.0  0.67651  0.81133  0.90156  1.0000
  H   H1710     1.0  0.70792  0.79786  0.88345  1.0000
  C   C1705     1.0  0.58728  0.86198  0.88603  1.0000
  C   C1706     1.0  0.58897  0.84240  0.89427  1.0000
  C   C1707     1.0  0.58094  0.83095  0.88751  1.0000
  C   C1708     1.0  0.57155  0.83896  0.87229  1.0000
  C   C1709     1.0  0.56997  0.85852  0.86407  1.0000
  C   C1710     1.0  0.57766  0.86999  0.87106  1.0000
  H   H1711     1.0  0.59643  0.83608  0.90582  1.0000
  H   H1712     1.0  0.58218  0.81581  0.89393  1.0000
  H   H1713     1.0  0.56282  0.86481  0.85235  1.0000
  H   H1714     1.0  0.57644  0.88506  0.86467  1.0000
  H   H1715     1.0  0.69790  0.92115  0.69295  1.0000
  C   C1711     1.0  0.65771  0.96642  0.74949  1.0000
  C   C1712     1.0  0.67179  0.95399  0.73943  1.0000
  C   C1713     1.0  0.68814  0.96011  0.72807  1.0000
  H   H1716     1.0  0.64521  0.96157  0.75847  1.0000
  H   H1717     1.0  0.67022  0.93948  0.74088  1.0000
  C   C1714     1.0  0.58780  0.92664  0.82112  1.0000
  C   C1715     1.0  0.57525  0.91410  0.82897  1.0000
  C   C1716     1.0  0.57205  0.90307  0.81791  1.0000
  C   C1717     1.0  0.58103  0.90494  0.79877  1.0000
  C   C1718     1.0  0.59321  0.91789  0.79074  1.0000
  C   C1719     1.0  0.59673  0.92864  0.80194  1.0000
  H   H1718     1.0  0.56800  0.91291  0.84368  1.0000
  H   H1719     1.0  0.56258  0.89322  0.82420  1.0000
  H   H1720     1.0  0.60014  0.91944  0.77589  1.0000
  H   H1721     1.0  0.60632  0.93844  0.79574  1.0000
  C   C1720     1.0  0.68203  0.92344  0.84869  1.0000
  C   C1721     1.0  0.66562  0.91610  0.85764  1.0000
  C   C1722     1.0  0.66479  0.90338  0.87551  1.0000
  C   C1723     1.0  0.68022  0.89841  0.88450  1.0000
  C   C1724     1.0  0.69648  0.90586  0.87555  1.0000
  C   C1725     1.0  0.69748  0.91814  0.85760  1.0000
  H   H1722     1.0  0.65379  0.91989  0.85063  1.0000
  H   H1723     1.0  0.65230  0.89744  0.88232  1.0000
  H   H1724     1.0  0.70843  0.90198  0.88245  1.0000
  H   H1725     1.0  0.71016  0.92374  0.85071  1.0000
  S   S586      1.0  0.51921  0.80317  0.72559  1.0000
  C   C1726     1.0  0.60977  0.66811  0.65232  1.0000
  C   C1727     1.0  0.71253  0.54940  0.78951  1.0000
  C   C1728     1.0  0.69550  0.96014  0.77836  1.0000
  H   H1726     1.0  0.70669  0.52431  0.77287  1.0000
  C   C1729     1.0  0.71676  0.68619  0.89299  1.0000
  S   S587      1.0  0.61398  0.84148  0.94051  1.0000
  H   H1727     1.0  0.67445  0.49026  0.75075  1.0000
  C   C1730     1.0  0.69184  0.62585  0.76118  1.0000
  C   C1731     1.0  0.69541  0.64097  0.74573  1.0000
  C   C1732     1.0  0.70999  0.65040  0.74422  1.0000
  C   C1733     1.0  0.72116  0.64455  0.75801  1.0000
  C   C1734     1.0  0.71764  0.62932  0.77336  1.0000
  C   C1735     1.0  0.70288  0.62013  0.77505  1.0000
  H   H1728     1.0  0.68678  0.64559  0.73510  1.0000
  C   C1736     1.0  0.54013  0.77358  0.79909  1.0000
  H   H1729     1.0  0.49475  0.82688  0.82917  1.0000
  H   H1730     1.0  0.70014  0.60847  0.78706  1.0000
  H   H1731     1.0  0.56452  0.70200  0.68370  1.0000
  H   H1732     1.0  0.54031  0.78371  0.80720  1.0000
  C   C1737     1.0  0.62135  0.94070  0.89308  1.0000
  H   H1733     1.0  0.57787  0.74270  0.80947  1.0000
  C   C1738     1.0  0.67770  0.89829  0.95097  1.0000
  H   H1734     1.0  0.51198  0.76548  0.77413  1.0000
  H   H1735     1.0  0.65348  0.89998  0.93966  1.0000
  H   H1736     1.0  0.60698  0.52095  0.68770  1.0000
  H   H1737     1.0  0.72576  0.54224  0.78096  1.0000
  S   S588      1.0  0.73821  0.63845  0.81072  1.0000
  C   C1739     1.0  0.65575  0.55200  0.68933  1.0000
  C   C1740     1.0  0.66166  0.54246  0.70633  1.0000
  H   H1738     1.0  0.64670  0.54900  0.66522  1.0000
  H   H1739     1.0  0.65509  0.56729  0.68436  1.0000
  C   C1741     1.0  0.53389  0.80383  0.74022  1.0000
  C   C1742     1.0  0.52844  0.81802  0.75096  1.0000
  C   C1743     1.0  0.53965  0.81845  0.76320  1.0000
  C   C1744     1.0  0.55667  0.80508  0.76430  1.0000
  C   C1745     1.0  0.56225  0.79100  0.75340  1.0000
  C   C1746     1.0  0.55076  0.79022  0.74155  1.0000
  H   H1740     1.0  0.53504  0.82912  0.77179  1.0000
  H   H1741     1.0  0.57538  0.78059  0.75423  1.0000
  H   H1742     1.0  0.55505  0.77925  0.73329  1.0000
  C   C1747     1.0  0.57551  0.69115  0.73442  1.0000
  C   C1748     1.0  0.59332  0.68112  0.73828  1.0000
  C   C1749     1.0  0.60307  0.66505  0.73039  1.0000
  C   C1750     1.0  0.59486  0.65884  0.71886  1.0000
  C   C1751     1.0  0.57662  0.66819  0.71600  1.0000
  C   C1752     1.0  0.56707  0.68439  0.72357  1.0000
  H   H1743     1.0  0.59983  0.68613  0.74690  1.0000
  H   H1744     1.0  0.61703  0.65773  0.73294  1.0000
  H   H1745     1.0  0.56980  0.66286  0.70795  1.0000
  H   H1746     1.0  0.55302  0.69145  0.72128  1.0000
  H   H1747     1.0  0.70097  0.51493  0.73149  1.0000
  H   H1748     1.0  0.70897  0.95907  0.67577  1.0000
  C   C1753     1.0  0.71802  0.69866  0.90353  1.0000
  H   H1749     1.0  0.68176  0.57772  0.78953  1.0000
  C   C1754     1.0  0.64536  0.90834  0.96684  1.0000
  H   H1750     1.0  0.55601  0.68275  0.67998  1.0000
  H   H1751     1.0  0.56920  0.77457  0.66593  1.0000
  H   H1752     1.0  0.71263  0.66221  0.73235  1.0000
  H   H1753     1.0  0.53830  0.90894  0.76168  1.0000
  H   H1754     1.0  0.70965  0.53027  0.70944  1.0000
  H   H1755     1.0  0.68031  0.96476  0.77941  1.0000
  Fe  Fe292     1.0  0.50281  0.74596  0.71770  1.0000
  C   C1755     1.0  0.66538  0.56820  0.77551  1.0000
  N   N145      1.0  0.55571  0.75942  0.79533  1.0000
  N   N146      1.0  0.71080  0.72556  0.87819  1.0000
  C   C1756     1.0  0.71502  0.71843  0.89585  1.0000
  H   H1756     1.0  0.69805  0.93803  0.76363  1.0000
  H   H1757     1.0  0.71634  0.72809  0.90394  1.0000
  H   H1758     1.0  0.70723  0.71889  0.85334  1.0000
  C   C1757     1.0  0.55579  0.74726  0.78430  1.0000
  H   H1759     1.0  0.58413  0.76238  0.79010  1.0000
  C   C1758     1.0  0.53999  0.74905  0.77677  1.0000
  N   N147      1.0  0.61226  0.71834  0.67684  1.0000
  C   C1759     1.0  0.62423  0.72291  0.65973  1.0000
  C   C1760     1.0  0.61448  0.69994  0.68730  1.0000
  H   H1760     1.0  0.69890  0.89751  0.96614  1.0000
  C   C1761     1.0  0.62950  0.68566  0.68119  1.0000
  H   H1761     1.0  0.68159  0.94399  0.69097  1.0000
  C   C1762     1.0  0.59636  0.73296  0.68368  1.0000
  H   H1762     1.0  0.62222  0.73743  0.65120  1.0000
  H   H1763     1.0  0.60470  0.69632  0.70055  1.0000
  C   C1763     1.0  0.52414  0.77590  0.79161  1.0000
  H   H1764     1.0  0.63135  0.67112  0.68971  1.0000
  H   H1765     1.0  0.69718  0.98002  0.79404  1.0000
  H   H1766     1.0  0.60013  0.74733  0.67934  1.0000
  H   H1767     1.0  0.58388  0.73362  0.67790  1.0000
  H   H1768     1.0  0.59227  0.72972  0.69950  1.0000
  C   C1764     1.0  0.51663  0.92185  0.81070  1.0000
  S   S589      1.0  0.70648  0.94375  0.71729  1.0000
  H   H1769     1.0  0.56825  0.73628  0.78096  1.0000
  H   H1770     1.0  0.73200  0.96884  0.79180  1.0000
  C   C1765     1.0  0.53909  0.94266  0.80529  1.0000
  H   H1771     1.0  0.55120  0.93082  0.77242  1.0000
  C   C1766     1.0  0.72689  0.62829  0.70531  1.0000
  C   C1767     1.0  0.73271  0.60269  0.73312  1.0000
  H   H1772     1.0  0.59410  0.91558  0.90146  1.0000
  C   C1768     1.0  0.62533  0.95818  0.89312  1.0000
  N   N148      1.0  0.73732  0.61891  0.72062  1.0000
  H   H1773     1.0  0.71469  0.74984  0.93039  1.0000
  H   H1774     1.0  0.53030  0.95736  0.80242  1.0000
  H   H1775     1.0  0.59299  0.92345  0.87664  1.0000
  H   H1776     1.0  0.51070  0.92510  0.82466  1.0000
  S   S590      1.0  0.73522  0.76315  0.89233  1.0000
  H   H1777     1.0  0.70021  0.75088  0.85884  1.0000
  H   H1778     1.0  0.53922  0.93801  0.82072  1.0000
  C   C1769     1.0  0.72450  0.96241  0.78533  1.0000
  Fe  Fe293     1.0  0.62517  0.86040  0.95217  1.0000
  H   H1779     1.0  0.72906  0.92300  0.74700  1.0000
  C   C1770     1.0  0.64214  0.69029  0.66411  1.0000
  H   H1780     1.0  0.66700  0.51527  0.72577  1.0000
  H   H1781     1.0  0.65394  0.58075  0.77615  1.0000
  H   H1782     1.0  0.51549  0.82866  0.74992  1.0000
  N   N149      1.0  0.53162  0.92937  0.79911  1.0000
  C   C1771     1.0  0.53907  0.92522  0.78151  1.0000
  H   H1783     1.0  0.70263  0.98374  0.71729  1.0000
  H   H1784     1.0  0.65401  0.67940  0.65943  1.0000
  C   C1772     1.0  0.53179  0.91288  0.77529  1.0000
  C   C1773     1.0  0.50886  0.90965  0.80483  1.0000
  C   C1774     1.0  0.51654  0.90514  0.78701  1.0000
  C   C1775     1.0  0.63941  0.70894  0.65312  1.0000
  C   C1776     1.0  0.61061  0.51754  0.71609  1.0000
  C   C1777     1.0  0.57284  0.75774  0.80226  1.0000
  C   C1778     1.0  0.68930  0.65323  0.65105  1.0000
  H   H1785     1.0  0.60173  0.49456  0.67715  1.0000
  H   H1786     1.0  0.51088  0.89539  0.78244  1.0000
  H   H1787     1.0  0.70485  0.67552  0.64604  1.0000
  C   C1779     1.0  0.71286  0.51591  0.71893  1.0000
  C   C1780     1.0  0.68388  0.90071  0.96613  1.0000
  H   H1788     1.0  0.54030  0.73944  0.76787  1.0000
  H   H1789     1.0  0.61339  0.50990  0.74532  1.0000
  C   C1781     1.0  0.70862  0.74622  0.87014  1.0000
  H   H1790     1.0  0.68786  0.89323  0.93906  1.0000
  C   C1782     1.0  0.67945  0.53796  0.76611  1.0000
  C   C1783     1.0  0.65834  0.90216  0.95127  1.0000
  H   H1791     1.0  0.69806  0.51763  0.68939  1.0000
  Fe  Fe294     1.0  0.52296  0.85516  0.81195  1.0000
  H   H1792     1.0  0.67882  0.52667  0.75964  1.0000
  C   C1784     1.0  0.72303  0.95865  0.64674  1.0000
  C   C1785     1.0  0.57746  0.77065  0.65280  1.0000
  H   H1793     1.0  0.67225  0.63343  0.65210  1.0000
  H   H1794     1.0  0.63031  0.91078  0.96720  1.0000
  H   H1795     1.0  0.63271  0.80961  0.97339  1.0000
  H   H1796     1.0  0.65324  0.86150  0.97329  1.0000
  S   S591      1.0  0.51648  0.75053  0.73909  1.0000
  H   H1797     1.0  0.66711  0.80079  0.97316  1.0000
  S   S592      1.0  0.65545  0.84584  0.94431  1.0000
  C   C1786     1.0  0.68843  0.77053  0.93400  1.0000
  S   S593      1.0  0.62624  0.88342  0.92562  1.0000
  H   H1798     1.0  0.72761  0.64371  0.70019  1.0000
  N   N150      1.0  0.62276  0.87296  0.84207  1.0000
  C   C1787     1.0  0.61571  0.87541  0.82623  1.0000
  C   C1788     1.0  0.62493  0.85548  0.85439  1.0000
  C   C1789     1.0  0.61028  0.86026  0.82252  1.0000
  C   C1790     1.0  0.61972  0.83997  0.85109  1.0000
  C   C1791     1.0  0.61217  0.84246  0.83516  1.0000
  C   C1792     1.0  0.62651  0.88961  0.84655  1.0000
  H   H1799     1.0  0.61390  0.88927  0.81655  1.0000
  H   H1800     1.0  0.62985  0.85367  0.86733  1.0000
  H   H1801     1.0  0.60421  0.86250  0.81017  1.0000
  H   H1802     1.0  0.62068  0.82637  0.86132  1.0000
  H   H1803     1.0  0.60733  0.83075  0.83291  1.0000
  H   H1804     1.0  0.63312  0.89896  0.83351  1.0000
  H   H1805     1.0  0.61290  0.89816  0.85305  1.0000
  H   H1806     1.0  0.63618  0.88518  0.85672  1.0000
  C   C1793     1.0  0.60174  0.92189  0.88718  1.0000
  N   N151      1.0  0.59787  0.49602  0.70612  1.0000
  Fe  Fe295     1.0  0.63575  0.98356  0.79124  1.0000
  H   H1807     1.0  0.61676  0.53015  0.71262  1.0000
  H   H1808     1.0  0.72598  0.51491  0.72382  1.0000
  S   S594      1.0  0.73090  0.49592  0.80357  1.0000
  S   S595      1.0  0.64673  0.50890  0.67078  1.0000
  N   N152      1.0  0.69607  0.55109  0.78152  1.0000
  S   S596      1.0  0.70293  0.48751  0.77102  1.0000
  C   C1794     1.0  0.66456  0.55390  0.76694  1.0000
  Fe  Fe296     1.0  0.64468  0.82860  0.93062  1.0000
  S   S597      1.0  0.65507  0.79672  0.93876  1.0000
  H   H1809     1.0  0.72103  0.59712  0.73212  1.0000
  C   C1795     1.0  0.67763  0.78795  0.92599  1.0000
  H   H1810     1.0  0.71160  0.62791  0.71031  1.0000
  C   C1796     1.0  0.59309  0.95702  0.88195  1.0000
  H   H1811     1.0  0.72637  0.62450  0.78389  1.0000
  H   H1812     1.0  0.63121  0.92745  0.89729  1.0000
  H   H1813     1.0  0.71462  0.56373  0.78965  1.0000
  H   H1814     1.0  0.72182  0.69296  0.91734  1.0000
  Fe  Fe297     1.0  0.61815  0.86306  0.91297  1.0000
  C   C1797     1.0  0.70595  0.50345  0.69465  1.0000
  C   C1798     1.0  0.70977  0.71340  0.86766  1.0000
  N   N153      1.0  0.71500  0.50036  0.70928  1.0000
  H   H1815     1.0  0.71051  0.54082  0.80431  1.0000
  C   C1799     1.0  0.70501  0.96878  0.78646  1.0000
  C   C1800     1.0  0.56238  0.69552  0.67279  1.0000
  C   C1801     1.0  0.52412  0.76356  0.78036  1.0000
  H   H1816     1.0  0.61892  0.65413  0.65582  1.0000
  H   H1817     1.0  0.72281  0.74991  0.86414  1.0000
  C   C1802     1.0  0.68895  0.93197  0.68362  1.0000
  H   H1818     1.0  0.61510  0.91156  0.88321  1.0000
  H   H1819     1.0  0.73874  0.58080  0.75786  1.0000
  H   H1820     1.0  0.67791  0.92541  0.68184  1.0000
  N   N154      1.0  0.70092  0.93881  0.66531  1.0000
  H   H1821     1.0  0.55188  0.70616  0.66502  1.0000
  C   C1803     1.0  0.71059  0.95273  0.66372  1.0000
  C   C1804     1.0  0.58618  0.70372  0.64410  1.0000
  H   H1822     1.0  0.59959  0.78526  0.65109  1.0000
  C   C1805     1.0  0.59659  0.97474  0.88192  1.0000
  H   H1823     1.0  0.73263  0.62101  0.69314  1.0000
  C   C1806     1.0  0.61287  0.97530  0.88744  1.0000
  C   C1807     1.0  0.70344  0.93033  0.65036  1.0000
  H   H1824     1.0  0.69844  0.49068  0.67548  1.0000
  H   H1825     1.0  0.73743  0.55296  0.83045  1.0000
  H   H1826     1.0  0.49719  0.90338  0.81414  1.0000
  S   S598      1.0  0.49220  0.86707  0.80997  1.0000
  H   H1827     1.0  0.73148  0.90495  0.67184  1.0000
  H   H1828     1.0  0.69660  0.91857  0.65186  1.0000
  C   C1808     1.0  0.60870  0.50617  0.73443  1.0000
  C   C1809     1.0  0.73421  0.94739  0.77610  1.0000
  C   C1810     1.0  0.59218  0.49072  0.69115  1.0000
  H   H1829     1.0  0.57739  0.49820  0.69020  1.0000
  H   H1830     1.0  0.73343  0.90905  0.76998  1.0000
  C   C1811     1.0  0.60085  0.48995  0.73862  1.0000
  C   C1812     1.0  0.59465  0.77677  0.64434  1.0000
  C   C1813     1.0  0.57114  0.75940  0.64431  1.0000
  H   H1831     1.0  0.73097  0.96942  0.64562  1.0000
  C   C1814     1.0  0.73486  0.92265  0.75941  1.0000
  C   C1815     1.0  0.59527  0.48518  0.72425  1.0000
  Fe  Fe298     1.0  0.78511  0.44947  0.18211  1.0000
  S   S599      1.0  0.76281  0.12878  0.28234  1.0000
  S   S600      1.0  0.81556  0.44522  0.16706  1.0000
  C   C1816     1.0  0.91559  0.41182  0.13644  1.0000
  H   H1832     1.0  0.93937  0.38973  0.12868  1.0000
  C   C1817     1.0  0.89663  0.42005  0.13578  1.0000
  S   S601      1.0  0.77686  0.45968  0.20932  1.0000
  H   H1833     1.0  0.88931  0.43199  0.14261  1.0000
  N   N155      1.0  0.85830  0.30349  0.26923  1.0000
  H   H1834     1.0  0.78319  0.40819  0.05496  1.0000
  C   C1818     1.0  0.94830  0.21771  0.30561  1.0000
  Fe  Fe299     1.0  0.90375  0.31603  0.18703  1.0000
  S   S602      1.0  0.91646  0.32640  0.15633  1.0000
  S   S603      1.0  0.91358  0.28569  0.20184  1.0000
  Fe  Fe300     1.0  0.88413  0.35584  0.19280  1.0000
  S   S604      1.0  0.89580  0.36950  0.16301  1.0000
  S   S605      1.0  0.86320  0.37248  0.21320  1.0000
  Fe  Fe301     1.0  0.88800  0.34586  0.15512  1.0000
  S   S606      1.0  0.87454  0.35758  0.12957  1.0000
  Fe  Fe302     1.0  0.92306  0.34907  0.16686  1.0000
  S   S607      1.0  0.95190  0.35602  0.15436  1.0000
  S   S608      1.0  0.87445  0.33330  0.18490  1.0000
  S   S609      1.0  0.91227  0.33752  0.19765  1.0000
  C   C1819     1.0  0.89662  0.39702  0.11813  1.0000
  Fe  Fe303     1.0  0.77836  0.35003  0.06712  1.0000
  S   S610      1.0  0.77471  0.32516  0.09169  1.0000
  S   S611      1.0  0.79169  0.34482  0.03754  1.0000
  Fe  Fe304     1.0  0.78666  0.33993  0.10716  1.0000
  S   S612      1.0  0.80628  0.32311  0.12706  1.0000
  S   S613      1.0  0.79298  0.36321  0.08164  1.0000
  H   H1835     1.0  0.78935  0.38258  0.00830  1.0000
  C   C1820     1.0  0.78981  0.40085  0.15194  1.0000
  S   S614      1.0  0.85325  0.25205  0.27069  1.0000
  C   C1821     1.0  0.78057  0.39106  0.01848  1.0000
  C   C1822     1.0  0.74931  0.05727  0.26608  1.0000
  C   C1823     1.0  0.74956  0.40695  0.03261  1.0000
  C   C1824     1.0  0.74108  0.04117  0.27092  1.0000
  H   H1836     1.0  0.82964  0.31419  0.28184  1.0000
  C   C1825     1.0  0.75160  0.41671  0.11459  1.0000
  S   S615      1.0  0.74964  0.36808  0.07569  1.0000
  C   C1826     1.0  0.82900  0.18144  0.30659  1.0000
  H   H1837     1.0  0.80448  0.19589  0.29446  1.0000
  S   S616      1.0  0.88744  0.20384  0.28806  1.0000
  S   S617      1.0  0.75833  0.35653  0.11915  1.0000
  S   S618      1.0  0.78927  0.16662  0.28893  1.0000
  C   C1827     1.0  0.76108  0.39675  0.01903  1.0000
  C   C1828     1.0  0.77737  0.34519  0.02200  1.0000
  C   C1829     1.0  0.78605  0.34123  0.00398  1.0000
  C   C1830     1.0  0.77507  0.34172  0.99109  1.0000
  C   C1831     1.0  0.81060  0.36366  0.15933  1.0000
  H   H1838     1.0  0.80136  0.33769  0.99997  1.0000
  Fe  Fe305     1.0  0.75943  0.43708  0.21954  1.0000
  C   C1832     1.0  0.89652  0.27577  0.22021  1.0000
  C   C1833     1.0  0.90247  0.25990  0.23407  1.0000
  C   C1834     1.0  0.88918  0.25237  0.24947  1.0000
  C   C1835     1.0  0.86987  0.26045  0.25082  1.0000
  C   C1836     1.0  0.86385  0.27603  0.23672  1.0000
  C   C1837     1.0  0.87719  0.28381  0.22153  1.0000
  H   H1839     1.0  0.91741  0.25364  0.23311  1.0000
  H   H1840     1.0  0.89397  0.24045  0.26036  1.0000
  H   H1841     1.0  0.84891  0.28230  0.23771  1.0000
  H   H1842     1.0  0.87250  0.29591  0.21077  1.0000
  C   C1838     1.0  0.85594  0.34757  0.12875  1.0000
  C   C1839     1.0  0.84393  0.35753  0.11609  1.0000
  C   C1840     1.0  0.82874  0.35007  0.11537  1.0000
  C   C1841     1.0  0.82562  0.33248  0.12713  1.0000
  C   C1842     1.0  0.83771  0.32246  0.13973  1.0000
  C   C1843     1.0  0.85278  0.33005  0.14065  1.0000
  H   H1843     1.0  0.84629  0.37111  0.10690  1.0000
  H   H1844     1.0  0.81941  0.35797  0.10576  1.0000
  H   H1845     1.0  0.83535  0.30884  0.14886  1.0000
  H   H1846     1.0  0.86205  0.32223  0.15039  1.0000
  Fe  Fe306     1.0  0.74684  0.34390  0.10131  1.0000
  H   H1847     1.0  0.75794  0.29474  0.08858  1.0000
  H   H1848     1.0  0.78171  0.41545  0.14931  1.0000
  C   C1844     1.0  0.92468  0.39615  0.12796  1.0000
  C   C1845     1.0  0.97843  0.37198  0.19515  1.0000
  C   C1846     1.0  0.95896  0.37222  0.19941  1.0000
  C   C1847     1.0  0.95068  0.36742  0.18691  1.0000
  C   C1848     1.0  0.96183  0.36259  0.16997  1.0000
  H   H1849     1.0  0.75605  0.39806  0.28646  1.0000
  C   C1849     1.0  0.76008  0.30309  0.05833  1.0000
  H   H1850     1.0  0.95030  0.37597  0.21252  1.0000
  H   H1851     1.0  0.93565  0.36765  0.19034  1.0000
  C   C1850     1.0  0.74126  0.07410  0.25464  1.0000
  C   C1851     1.0  0.92451  0.37163  0.11139  1.0000
  C   C1852     1.0  0.82908  0.42604  0.18072  1.0000
  C   C1853     1.0  0.82056  0.41623  0.19838  1.0000
  C   C1854     1.0  0.83125  0.40015  0.20862  1.0000
  C   C1855     1.0  0.85046  0.39378  0.20120  1.0000
  C   C1856     1.0  0.85911  0.40405  0.18387  1.0000
  C   C1857     1.0  0.84841  0.42009  0.17360  1.0000
  H   H1852     1.0  0.80573  0.42093  0.20423  1.0000
  H   H1853     1.0  0.82451  0.39246  0.22214  1.0000
  H   H1854     1.0  0.87410  0.39989  0.17857  1.0000
  H   H1855     1.0  0.85507  0.42786  0.16013  1.0000
  H   H1856     1.0  0.81850  0.34903  0.16237  1.0000
  H   H1857     1.0  0.87232  0.41893  0.12592  1.0000
  H   H1858     1.0  0.93532  0.36219  0.11950  1.0000
  H   H1859     1.0  0.87287  0.27763  0.28464  1.0000
  H   H1860     1.0  0.85866  0.15268  0.26836  1.0000
  H   H1861     1.0  0.81115  0.37321  0.03909  1.0000
  S   S619      1.0  0.76997  0.42507  0.19331  1.0000
  H   H1862     1.0  0.78547  0.03443  0.30574  1.0000
  H   H1863     1.0  0.81698  0.38871  0.01619  1.0000
  H   H1864     1.0  0.83033  0.37251  0.18543  1.0000
  Fe  Fe307     1.0  0.77007  0.14514  0.30004  1.0000
  H   H1865     1.0  0.76181  0.05671  0.27122  1.0000
  Fe  Fe308     1.0  0.74534  0.44608  0.18300  1.0000
  H   H1866     1.0  0.84177  0.38622  0.16349  1.0000
  H   H1867     1.0  0.95830  0.32296  0.20801  1.0000
  C   C1858     1.0  0.89210  0.29236  0.26246  1.0000
  C   C1859     1.0  0.80635  0.39673  0.15901  1.0000
  C   C1860     1.0  0.98954  0.36725  0.17813  1.0000
  H   H1868     1.0  0.77114  0.38904  0.14266  1.0000
  S   S620      1.0  0.76105  0.41637  0.24732  1.0000
  H   H1869     1.0  0.88904  0.39123  0.11112  1.0000
  H   H1870     1.0  0.84730  0.32932  0.25083  1.0000
  C   C1861     1.0  0.89378  0.30805  0.24725  1.0000
  C   C1862     1.0  0.80867  0.38831  0.03094  1.0000
  C   C1863     1.0  0.87413  0.29027  0.27334  1.0000
  H   H1871     1.0  0.78976  0.35563  0.14925  1.0000
  S   S621      1.0  0.98858  0.37687  0.21166  1.0000
  C   C1864     1.0  0.97242  0.31865  0.19987  1.0000
  Fe  Fe309     1.0  0.76380  0.37903  0.09266  1.0000
  C   C1865     1.0  0.83397  0.37434  0.16972  1.0000
  H   H1872     1.0  0.81087  0.40833  0.16183  1.0000
  C   C1866     1.0  0.74970  0.43694  0.13632  1.0000
  C   C1867     1.0  0.79423  0.36729  0.15208  1.0000
  C   C1868     1.0  0.74196  0.42000  0.26628  1.0000
  C   C1869     1.0  0.87758  0.32153  0.24324  1.0000
  N   N156      1.0  0.97521  0.30888  0.18581  1.0000
  C   C1870     1.0  0.77715  0.40522  0.04457  1.0000
  C   C1871     1.0  0.88710  0.41273  0.12644  1.0000
  H   H1873     1.0  0.84385  0.36116  0.16593  1.0000
  C   C1872     1.0  0.78383  0.38604  0.14831  1.0000
  Fe  Fe310     1.0  0.86747  0.23123  0.29336  1.0000
  S   S622      1.0  0.74099  0.34676  0.98056  1.0000
  C   C1873     1.0  0.75266  0.29376  0.07671  1.0000
  H   H1874     1.0  0.74737  0.08677  0.25094  1.0000
  N   N157      1.0  0.83644  0.20679  0.25600  1.0000
  C   C1874     1.0  0.82722  0.19353  0.25478  1.0000
  C   C1875     1.0  0.85358  0.20101  0.26134  1.0000
  C   C1876     1.0  0.83529  0.17391  0.25875  1.0000
  C   C1877     1.0  0.86196  0.18149  0.26562  1.0000
  C   C1878     1.0  0.85269  0.16788  0.26435  1.0000
  C   C1879     1.0  0.82749  0.22724  0.25288  1.0000
  H   H1875     1.0  0.81322  0.19793  0.25143  1.0000
  H   H1876     1.0  0.86064  0.21155  0.26268  1.0000
  H   H1877     1.0  0.82754  0.16343  0.25852  1.0000
  H   H1878     1.0  0.87523  0.17687  0.27052  1.0000
  H   H1879     1.0  0.90756  0.30951  0.23833  1.0000
  H   H1880     1.0  0.81594  0.23059  0.24493  1.0000
  H   H1881     1.0  0.82154  0.23152  0.26680  1.0000
  H   H1882     1.0  0.83807  0.23613  0.24454  1.0000
  H   H1883     1.0  0.75405  0.44849  0.13934  1.0000
  C   C1880     1.0  0.75530  0.34625  0.99616  1.0000
  C   C1881     1.0  0.75762  0.41130  0.04542  1.0000
  C   C1882     1.0  0.75759  0.34973  0.02708  1.0000
  H   H1884     1.0  0.96308  0.28968  0.17799  1.0000
  N   N158      1.0  0.91501  0.38861  0.11944  1.0000
  H   H1885     1.0  0.93148  0.37607  0.09631  1.0000
  Fe  Fe311     1.0  0.90430  0.21022  0.30575  1.0000
  H   H1886     1.0  0.91421  0.36276  0.11225  1.0000
  C   C1883     1.0  0.83950  0.30037  0.27993  1.0000
  H   H1887     1.0  0.92315  0.41728  0.14377  1.0000
  H   H1888     1.0  0.87867  0.33375  0.23141  1.0000
  H   H1889     1.0  0.78189  0.33853  0.97728  1.0000
  N   N159      1.0  0.81670  0.37836  0.16227  1.0000
  H   H1890     1.0  0.81091  0.47970  0.18346  1.0000
  S   S623      1.0  0.76139  0.46978  0.16922  1.0000
  C   C1884     1.0  0.75715  0.43167  0.11865  1.0000
  C   C1885     1.0  0.85983  0.31896  0.25435  1.0000
  S   S624      1.0  0.93620  0.20521  0.29717  1.0000
  H   H1891     1.0  0.77101  0.31121  0.05597  1.0000
  N   N160      1.0  0.78837  0.39536  0.03112  1.0000
  C   C1886     1.0  0.80718  0.16521  0.30087  1.0000
  C   C1887     1.0  0.74661  0.35027  0.01418  1.0000
  H   H1892     1.0  0.81414  0.39711  0.03744  1.0000
  H   H1893     1.0  0.90454  0.28149  0.26541  1.0000
  H   H1894     1.0  0.75494  0.39282  0.00929  1.0000
  H   H1895     1.0  0.95391  0.31497  0.16987  1.0000
  H   H1896     1.0  0.74878  0.41887  0.05634  1.0000
  H   H1897     1.0  0.97556  0.20461  0.29111  1.0000
  C   C1888     1.0  0.75323  0.30201  0.04304  1.0000
  S   S625      1.0  0.76139  0.41014  0.09248  1.0000
  H   H1898     1.0  0.76731  0.43911  0.10815  1.0000
  H   H1899     1.0  0.74753  0.02805  0.27961  1.0000
  C   C1889     1.0  0.95907  0.30397  0.18181  1.0000
  Fe  Fe312     1.0  0.75183  0.47822  0.19764  1.0000
  H   H1900     1.0  0.75881  0.30924  0.02872  1.0000
  C   C1890     1.0  0.96813  0.21409  0.30072  1.0000
  C   C1891     1.0  0.81261  0.18216  0.30036  1.0000
  C   C1892     1.0  0.98122  0.36268  0.16551  1.0000
  H   H1901     1.0  0.94718  0.30316  0.19439  1.0000
  H   H1902     1.0  0.84017  0.29115  0.29431  1.0000
  C   C1893     1.0  0.74323  0.40859  0.28433  1.0000
  H   H1903     1.0  0.83368  0.29301  0.27222  1.0000
  H   H1904     1.0  0.98543  0.33167  0.21457  1.0000
  C   C1894     1.0  0.98768  0.32363  0.20365  1.0000
  H   H1905     1.0  0.75076  0.35281  0.04093  1.0000
  H   H1906     1.0  0.74118  0.25932  0.10239  1.0000
  H   H1907     1.0  0.83334  0.19457  0.30550  1.0000
  S   S626      1.0  0.77489  0.07426  0.30717  1.0000
  Fe  Fe313     1.0  0.77110  0.20305  0.45208  1.0000
  C   C1895     1.0  0.78099  0.04192  0.35126  1.0000
  S   S627      1.0  0.78725  0.19758  0.47543  1.0000
  H   H1908     1.0  0.76734  0.13126  0.36021  1.0000
  C   C1896     1.0  0.74742  0.20142  0.54675  1.0000
  Fe  Fe314     1.0  0.76113  0.10519  0.30866  1.0000
  Fe  Fe315     1.0  0.76518  0.22628  0.41290  1.0000
  S   S628      1.0  0.77172  0.24968  0.38753  1.0000
  C   C1897     1.0  0.78733  0.18805  0.36091  1.0000
  S   S629      1.0  0.78672  0.20045  0.42244  1.0000
  C   C1898     1.0  0.76426  0.19176  0.55285  1.0000
  Fe  Fe316     1.0  0.77536  0.20708  0.59448  1.0000
  S   S630      1.0  0.79648  0.21817  0.56927  1.0000
  S   S631      1.0  0.77691  0.17535  0.60285  1.0000
  Fe  Fe317     1.0  0.75611  0.24702  0.60167  1.0000
  S   S632      1.0  0.77595  0.26126  0.57719  1.0000
  N   N161      1.0  0.82387  0.18330  0.36625  1.0000
  Fe  Fe318     1.0  0.77174  0.24118  0.56143  1.0000
  S   S633      1.0  0.76091  0.25198  0.53421  1.0000
  Fe  Fe319     1.0  0.79844  0.23685  0.58782  1.0000
  S   S634      1.0  0.82679  0.23883  0.59151  1.0000
  C   C1899     1.0  0.94916  0.23848  0.32566  1.0000
  S   S635      1.0  0.77888  0.22407  0.61363  1.0000
  S   S636      1.0  0.98189  0.24411  0.33184  1.0000
  C   C1900     1.0  0.74657  0.05443  0.35880  1.0000
  C   C1901     1.0  0.86332  0.27334  0.59624  1.0000
  Fe  Fe320     1.0  0.86959  0.22218  0.33468  1.0000
  S   S637      1.0  0.88950  0.19385  0.33298  1.0000
  S   S638      1.0  0.86059  0.23055  0.36288  1.0000
  H   H1909     1.0  0.78037  0.21161  0.37518  1.0000
  C   C1902     1.0  0.76839  0.16916  0.62739  1.0000
  C   C1903     1.0  0.79141  0.20026  0.37000  1.0000
  S   S639      1.0  0.74502  0.20942  0.41127  1.0000
  C   C1904     1.0  0.80985  0.19758  0.37266  1.0000
  H   H1910     1.0  0.78453  0.16608  0.51908  1.0000
  C   C1905     1.0  0.74383  0.19779  0.53074  1.0000
  H   H1911     1.0  0.74334  0.28630  0.38606  1.0000
  H   H1912     1.0  0.75056  0.29166  0.59186  1.0000
  H   H1913     1.0  0.80215  0.15671  0.54399  1.0000
  C   C1906     1.0  0.84303  0.18063  0.36942  1.0000
  S   S640      1.0  0.86144  0.16239  0.32005  1.0000
  H   H1914     1.0  0.77677  0.03029  0.34747  1.0000
  H   H1915     1.0  0.97943  0.19810  0.36182  1.0000
  H   H1916     1.0  0.79700  0.25368  0.62099  1.0000
  C   C1907     1.0  0.77386  0.17540  0.52741  1.0000
  C   C1908     1.0  0.84396  0.23626  0.62044  1.0000
  Fe  Fe321     1.0  0.87063  0.19032  0.31568  1.0000
  C   C1909     1.0  0.83408  0.28884  0.61391  1.0000
  H   H1917     1.0  0.85681  0.23011  0.61152  1.0000
  H   H1918     1.0  0.83082  0.15916  0.35335  1.0000
  S   S641      1.0  0.77716  0.15871  0.40865  1.0000
  S   S642      1.0  0.84943  0.21728  0.31980  1.0000
  S   S643      1.0  0.75137  0.18407  0.45364  1.0000
  H   H1919     1.0  0.78672  0.13886  0.37837  1.0000
  H   H1920     1.0  0.88708  0.26508  0.60993  1.0000
  H   H1921     1.0  0.74570  0.25110  0.50312  1.0000
  C   C1910     1.0  0.79541  0.17028  0.54899  1.0000
  C   C1911     1.0  0.83409  0.14679  0.31491  1.0000
  C   C1912     1.0  0.76047  0.13905  0.37133  1.0000
  N   N162      1.0  0.77722  0.17895  0.54320  1.0000
  H   H1922     1.0  0.77303  0.18970  0.35904  1.0000
  H   H1923     1.0  0.87108  0.26740  0.58392  1.0000
  Fe  Fe322     1.0  0.74052  0.13273  0.33464  1.0000
  C   C1913     1.0  0.82682  0.24138  0.61425  1.0000
  C   C1914     1.0  0.84408  0.28168  0.59780  1.0000
  C   C1915     1.0  0.84464  0.23941  0.63796  1.0000
  C   C1916     1.0  0.74309  0.15919  0.40043  1.0000
  H   H1924     1.0  0.83679  0.28197  0.58685  1.0000
  C   C1917     1.0  0.79638  0.24675  0.38060  1.0000
  C   C1918     1.0  0.80498  0.24979  0.36129  1.0000
  C   C1919     1.0  0.82479  0.24523  0.35573  1.0000
  C   C1920     1.0  0.83597  0.23794  0.36948  1.0000
  C   C1921     1.0  0.82736  0.23569  0.38877  1.0000
  C   C1922     1.0  0.80757  0.23992  0.39434  1.0000
  H   H1925     1.0  0.79634  0.25505  0.35065  1.0000
  H   H1926     1.0  0.83140  0.24741  0.34081  1.0000
  H   H1927     1.0  0.83599  0.23014  0.39944  1.0000
  H   H1928     1.0  0.80099  0.23772  0.40929  1.0000
  H   H1929     1.0  0.85385  0.17358  0.35862  1.0000
  H   H1930     1.0  0.79347  0.16678  0.56475  1.0000
  H   H1931     1.0  0.95519  0.16879  0.32315  1.0000
  C   C1923     1.0  0.75228  0.08785  0.36461  1.0000
  H   H1932     1.0  0.80513  0.18052  0.54300  1.0000
  C   C1924     1.0  0.80165  0.17333  0.35466  1.0000
  C   C1925     1.0  0.75704  0.18459  0.52107  1.0000
  C   C1926     1.0  0.74069  0.14416  0.37595  1.0000
  C   C1927     1.0  0.84343  0.28730  0.62841  1.0000
  H   H1933     1.0  0.79861  0.16366  0.34768  1.0000
  C   C1928     1.0  0.78084  0.21410  0.49036  1.0000
  C   C1929     1.0  0.76429  0.22832  0.49009  1.0000
  C   C1930     1.0  0.75858  0.24020  0.50332  1.0000
  C   C1931     1.0  0.76919  0.23771  0.51708  1.0000
  C   C1932     1.0  0.78586  0.22364  0.51725  1.0000
  C   C1933     1.0  0.79175  0.21199  0.50379  1.0000
  H   H1934     1.0  0.75567  0.22991  0.47999  1.0000
  Fe  Fe323     1.0  0.76540  0.18374  0.42308  1.0000
  H   H1935     1.0  0.79425  0.22183  0.52764  1.0000
  H   H1936     1.0  0.80463  0.20109  0.50397  1.0000
  H   H1937     1.0  0.84656  0.19469  0.36826  1.0000
  C   C1934     1.0  0.87222  0.27194  0.61106  1.0000
  C   C1935     1.0  0.81988  0.17095  0.35777  1.0000
  C   C1936     1.0  0.76284  0.15364  0.39604  1.0000
  C   C1937     1.0  0.76104  0.05708  0.31079  1.0000
  S   S644      1.0  0.75042  0.22844  0.58534  1.0000
  H   H1938     1.0  0.75465  0.10089  0.36685  1.0000
  H   H1939     1.0  0.84403  0.17170  0.38382  1.0000
  H   H1940     1.0  0.75025  0.26961  0.41756  1.0000
  H   H1941     1.0  0.94175  0.24786  0.33538  1.0000
  C   C1938     1.0  0.75960  0.02381  0.31340  1.0000
  H   H1942     1.0  0.81288  0.20687  0.38002  1.0000
  H   H1943     1.0  0.81363  0.13436  0.30897  1.0000
  C   C1939     1.0  0.96906  0.23433  0.32123  1.0000
  C   C1940     1.0  0.77015  0.03812  0.30954  1.0000
  S   S645      1.0  0.75151  0.23066  0.44233  1.0000
  C   C1941     1.0  0.77147  0.14343  0.38160  1.0000
  H   H1944     1.0  0.84249  0.13304  0.32038  1.0000
  N   N163      1.0  0.97976  0.17238  0.33034  1.0000
  C   C1942     1.0  0.98652  0.18042  0.34105  1.0000
  C   C1943     1.0  0.96065  0.17444  0.33218  1.0000
  C   C1944     1.0  0.97404  0.19109  0.35388  1.0000
  C   C1945     1.0  0.94777  0.18485  0.34501  1.0000
  C   C1946     1.0  0.95454  0.19333  0.35580  1.0000
  C   C1947     1.0  0.84004  0.16373  0.31346  1.0000
  C   C1948     1.0  0.81027  0.24945  0.62578  1.0000
  N   N164      1.0  0.76462  0.05697  0.35642  1.0000
  C   C1949     1.0  0.81766  0.14751  0.30864  1.0000
  H   H1945     1.0  0.93264  0.18711  0.34583  1.0000
  H   H1946     1.0  0.94470  0.20210  0.36522  1.0000
  H   H1947     1.0  0.87790  0.28941  0.64019  1.0000
  C   C1950     1.0  0.74126  0.06174  0.31555  1.0000
  H   H1948     1.0  0.75484  0.18231  0.50807  1.0000
  H   H1949     1.0  0.81898  0.29481  0.61553  1.0000
  S   S646      1.0  0.77141  0.12049  0.32521  1.0000
  C   C1951     1.0  0.75564  0.18284  0.63686  1.0000
  N   N165      1.0  0.86216  0.27854  0.62704  1.0000
  H   H1950     1.0  0.79098  0.04809  0.33857  1.0000
  C   C1952     1.0  0.76760  0.07343  0.35921  1.0000
  C   C1953     1.0  0.93879  0.23005  0.31801  1.0000
  H   H1951     1.0  0.75062  0.19708  0.62898  1.0000
  H   H1952     1.0  0.78461  0.14012  0.63033  1.0000
  C   C1954     1.0  0.77465  0.15068  0.63765  1.0000
  H   H1953     1.0  0.78843  0.03552  0.36327  1.0000
  H   H1954     1.0  0.92348  0.23284  0.32199  1.0000
  H   H1955     1.0  0.78190  0.07557  0.35707  1.0000
  C   C1955     1.0  0.97845  0.22218  0.30864  1.0000
  H   H1956     1.0  0.81465  0.19648  0.62849  1.0000
  H   H1957     1.0  0.74416  0.04148  0.35638  1.0000
  H   H1958     1.0  0.76716  0.19490  0.56508  1.0000
  H   H1959     1.0  0.76675  0.00920  0.31253  1.0000
  S   S647      1.0  0.88569  0.23894  0.30863  1.0000
  H   H1960     1.0  0.84276  0.19885  0.63895  1.0000
  H   H1961     1.0  0.98622  0.15525  0.30942  1.0000
  H   H1962     1.0  0.83536  0.29227  0.64119  1.0000
  H   H1963     1.0  0.89882  0.24284  0.72321  1.0000
  C   C1956     1.0  0.91242  0.24270  0.72588  1.0000
  H   H1964     1.0  0.74853  0.40328  0.90210  1.0000
  Fe  Fe324     1.0  0.76869  0.45459  0.78449  1.0000
  S   S648      1.0  0.77435  0.47015  0.80378  1.0000
  S   S649      1.0  0.78932  0.43043  0.77228  1.0000
  C   C1957     1.0  0.75138  0.39821  0.83184  1.0000
  S   S650      1.0  0.78304  0.37904  0.88541  1.0000
  C   C1958     1.0  0.75128  0.07826  0.66645  1.0000
  C   C1959     1.0  0.81404  0.18746  0.68203  1.0000
  C   C1960     1.0  0.95439  0.28380  0.82302  1.0000
  C   C1961     1.0  0.75560  0.15973  0.66686  1.0000
  C   C1962     1.0  0.85065  0.31912  0.89531  1.0000
  H   H1965     1.0  0.98136  0.24775  0.68447  1.0000
  C   C1963     1.0  0.83034  0.19535  0.64939  1.0000
  C   C1964     1.0  0.76587  0.39735  0.81564  1.0000
  H   H1966     1.0  0.84552  0.08153  0.67808  1.0000
  Fe  Fe325     1.0  0.86619  0.34832  0.80892  1.0000
  S   S651      1.0  0.88733  0.32889  0.82604  1.0000
  S   S652      1.0  0.84913  0.37484  0.81955  1.0000
  Fe  Fe326     1.0  0.87290  0.32061  0.78299  1.0000
  S   S653      1.0  0.89428  0.29917  0.79808  1.0000
  S   S654      1.0  0.86389  0.31583  0.75828  1.0000
  Fe  Fe327     1.0  0.87387  0.30570  0.82463  1.0000
  S   S655      1.0  0.86800  0.28098  0.84885  1.0000
  Fe  Fe328     1.0  0.90574  0.32451  0.79786  1.0000
  S   S656      1.0  0.93763  0.32188  0.78872  1.0000
  S   S657      1.0  0.85147  0.32523  0.80965  1.0000
  S   S658      1.0  0.88564  0.34583  0.78068  1.0000
  Fe  Fe329     1.0  0.76866  0.35805  0.90885  1.0000
  H   H1967     1.0  0.95336  0.26171  0.66938  1.0000
  S   S659      1.0  0.92114  0.24678  0.67022  1.0000
  H   H1968     1.0  0.91501  0.27640  0.69295  1.0000
  N   N166      1.0  0.83758  0.35655  0.87694  1.0000
  Fe  Fe330     1.0  0.77992  0.31591  0.92439  1.0000
  S   S660      1.0  0.80405  0.29046  0.92257  1.0000
  S   S661      1.0  0.78324  0.34159  0.93288  1.0000
  H   H1969     1.0  0.82200  0.38534  0.87698  1.0000
  H   H1970     1.0  0.98151  0.37549  0.85451  1.0000
  H   H1971     1.0  0.85540  0.30433  0.90225  1.0000
  H   H1972     1.0  0.77348  0.13183  0.66538  1.0000
  Fe  Fe331     1.0  0.86794  0.22794  0.72120  1.0000
  S   S662      1.0  0.89450  0.20846  0.70942  1.0000
  S   S663      1.0  0.86589  0.23191  0.75076  1.0000
  Fe  Fe332     1.0  0.85389  0.23913  0.68398  1.0000
  S   S664      1.0  0.87994  0.22174  0.66916  1.0000
  H   H1973     1.0  0.76583  0.07678  0.66855  1.0000
  Fe  Fe333     1.0  0.87564  0.19925  0.69594  1.0000
  S   S665      1.0  0.87603  0.17049  0.69068  1.0000
  Fe  Fe334     1.0  0.89602  0.23280  0.68396  1.0000
  S   S666      1.0  0.84882  0.21623  0.71030  1.0000
  S   S667      1.0  0.87026  0.25265  0.69625  1.0000
  Fe  Fe335     1.0  0.76560  0.12788  0.70569  1.0000
  S   S668      1.0  0.79726  0.11991  0.69758  1.0000
  H   H1974     1.0  0.93973  0.29114  0.82659  1.0000
  Fe  Fe336     1.0  0.76277  0.09427  0.73907  1.0000
  S   S669      1.0  0.79414  0.08350  0.73472  1.0000
  N   N167      1.0  0.79862  0.18608  0.67618  1.0000
  Fe  Fe337     1.0  0.79576  0.11453  0.72892  1.0000
  S   S670      1.0  0.81369  0.12512  0.74223  1.0000
  Fe  Fe338     1.0  0.79282  0.08968  0.70398  1.0000
  S   S671      1.0  0.80796  0.06815  0.68589  1.0000
  S   S672      1.0  0.76431  0.12469  0.73663  1.0000
  H   H1975     1.0  0.76477  0.40807  0.80257  1.0000
  S   S673      1.0  0.74948  0.01880  0.68988  1.0000
  Fe  Fe339     1.0  0.75505  0.98650  0.69564  1.0000
  C   C1965     1.0  0.79375  0.05149  0.68885  1.0000
  C   C1966     1.0  0.79682  0.04075  0.67503  1.0000
  C   C1967     1.0  0.78396  0.02939  0.67607  1.0000
  C   C1968     1.0  0.76808  0.02868  0.69098  1.0000
  C   C1969     1.0  0.76550  0.03876  0.70522  1.0000
  C   C1970     1.0  0.77837  0.05001  0.70423  1.0000
  S   S674      1.0  0.98372  0.34305  0.83783  1.0000
  S   S675      1.0  0.75714  0.48166  0.76503  1.0000
  H   H1976     1.0  0.80867  0.04184  0.66309  1.0000
  H   H1977     1.0  0.98301  0.25400  0.79465  1.0000
  C   C1971     1.0  0.85686  0.16014  0.70442  1.0000
  C   C1972     1.0  0.84997  0.16144  0.72344  1.0000
  C   C1973     1.0  0.83611  0.15120  0.73481  1.0000
  C   C1974     1.0  0.82868  0.14016  0.72706  1.0000
  C   C1975     1.0  0.83480  0.13980  0.70775  1.0000
  C   C1976     1.0  0.84914  0.14947  0.69654  1.0000
  H   H1978     1.0  0.85593  0.16961  0.72961  1.0000
  H   H1979     1.0  0.83145  0.15150  0.74976  1.0000
  H   H1980     1.0  0.82934  0.13117  0.70169  1.0000
  H   H1981     1.0  0.85442  0.14851  0.68180  1.0000
  C   C1977     1.0  0.97333  0.22041  0.69689  1.0000
  C   C1978     1.0  0.95992  0.20946  0.69884  1.0000
  C   C1979     1.0  0.94399  0.21741  0.69054  1.0000
  C   C1980     1.0  0.94147  0.23631  0.68004  1.0000
  H   H1982     1.0  0.96172  0.19484  0.70701  1.0000
  H   H1983     1.0  0.93382  0.20879  0.69206  1.0000
  H   H1984     1.0  0.91200  0.28926  0.71154  1.0000
  C   C1981     1.0  0.86020  0.32664  0.87719  1.0000
  C   C1982     1.0  0.78224  0.18031  0.69030  1.0000
  H   H1985     1.0  0.78393  0.16446  0.69339  1.0000
  C   C1983     1.0  0.97864  0.26300  0.80506  1.0000
  C   C1984     1.0  0.97100  0.23925  0.68615  1.0000
  S   S676      1.0  0.76705  0.33222  0.89940  1.0000
  S   S677      1.0  0.76125  0.09837  0.70876  1.0000
  H   H1986     1.0  0.91599  0.21311  0.74090  1.0000
  C   C1985     1.0  0.83036  0.37602  0.86691  1.0000
  C   C1986     1.0  0.77017  0.40183  0.87666  1.0000
  C   C1987     1.0  0.74994  0.43798  0.86124  1.0000
  H   H1987     1.0  0.97700  0.32162  0.78352  1.0000
  H   H1988     1.0  0.82109  0.37542  0.85769  1.0000
  H   H1989     1.0  0.79618  0.35799  0.83415  1.0000
  C   C1988     1.0  0.86625  0.29234  0.75543  1.0000
  C   C1989     1.0  0.85855  0.28978  0.74127  1.0000
  C   C1990     1.0  0.85877  0.27127  0.73951  1.0000
  C   C1991     1.0  0.86684  0.25517  0.75182  1.0000
  C   C1992     1.0  0.87500  0.25766  0.76569  1.0000
  C   C1993     1.0  0.87472  0.27622  0.76750  1.0000
  H   H1990     1.0  0.85187  0.30219  0.73198  1.0000
  H   H1991     1.0  0.85203  0.26953  0.72909  1.0000
  H   H1992     1.0  0.88128  0.24524  0.77525  1.0000
  H   H1993     1.0  0.88067  0.27802  0.77847  1.0000
  C   C1994     1.0  0.84921  0.28432  0.86842  1.0000
  C   C1995     1.0  0.83448  0.30066  0.86798  1.0000
  C   C1996     1.0  0.82002  0.30263  0.88433  1.0000
  C   C1997     1.0  0.82050  0.28834  0.90108  1.0000
  C   C1998     1.0  0.83507  0.27201  0.90120  1.0000
  C   C1999     1.0  0.84924  0.26995  0.88497  1.0000
  H   H1994     1.0  0.83433  0.31182  0.85520  1.0000
  H   H1995     1.0  0.80883  0.31533  0.88413  1.0000
  H   H1996     1.0  0.83551  0.26092  0.91404  1.0000
  H   H1997     1.0  0.86049  0.25726  0.88539  1.0000
  H   H1998     1.0  0.94405  0.27079  0.71603  1.0000
  H   H1999     1.0  0.76998  0.35980  0.86227  1.0000
  C   C2000     1.0  0.76864  0.37032  0.84917  1.0000
  C   C2001     1.0  0.90989  0.27617  0.70839  1.0000
  C   C2002     1.0  0.97091  0.33810  0.82359  1.0000
  C   C2003     1.0  0.95118  0.34016  0.82936  1.0000
  C   C2004     1.0  0.94072  0.33569  0.81853  1.0000
  C   C2005     1.0  0.94999  0.32904  0.80192  1.0000
  C   C2006     1.0  0.96974  0.32703  0.79616  1.0000
  H   H2000     1.0  0.74831  0.06361  0.66946  1.0000
  H   H2001     1.0  0.94394  0.34516  0.84227  1.0000
  H   H2002     1.0  0.92553  0.33728  0.82311  1.0000
  H   H2003     1.0  0.86148  0.27535  0.65648  1.0000
  H   H2004     1.0  0.89437  0.27673  0.71203  1.0000
  H   H2005     1.0  0.87248  0.31771  0.87001  1.0000
  C   C2007     1.0  0.76640  0.42915  0.85023  1.0000
  C   C2008     1.0  0.77666  0.41127  0.85802  1.0000
  S   S678      1.0  0.74771  0.15433  0.69151  1.0000
  C   C2009     1.0  0.82791  0.34915  0.89455  1.0000
  H   H2006     1.0  0.77621  0.05772  0.71531  1.0000
  H   H2007     1.0  0.77136  0.43616  0.83574  1.0000
  H   H2008     1.0  0.78945  0.40458  0.84943  1.0000
  H   H2009     1.0  0.82636  0.32432  0.91777  1.0000
  C   C2010     1.0  0.80670  0.41589  0.78497  1.0000
  C   C2011     1.0  0.80732  0.41862  0.80262  1.0000
  C   C2012     1.0  0.82057  0.40609  0.81299  1.0000
  C   C2013     1.0  0.83316  0.39065  0.80587  1.0000
  C   C2014     1.0  0.83259  0.38792  0.78821  1.0000
  C   C2015     1.0  0.81947  0.40059  0.77773  1.0000
  H   H2010     1.0  0.79752  0.43029  0.80834  1.0000
  H   H2011     1.0  0.82101  0.40831  0.82661  1.0000
  H   H2012     1.0  0.84230  0.37610  0.78257  1.0000
  H   H2013     1.0  0.81905  0.39839  0.76409  1.0000
  C   C2016     1.0  0.94786  0.24159  0.73171  1.0000
  H   H2014     1.0  0.78669  0.18770  0.65256  1.0000
  C   C2017     1.0  0.83432  0.33037  0.90402  1.0000
  C   C2018     1.0  0.98016  0.33163  0.80689  1.0000
  C   C2019     1.0  0.95514  0.24713  0.67764  1.0000
  Fe  Fe340     1.0  0.75389  0.34160  0.95078  1.0000
  C   C2020     1.0  0.75356  0.41048  0.88766  1.0000
  H   H2015     1.0  0.81505  0.35771  0.90130  1.0000
  H   H2016     1.0  0.94810  0.21202  0.74575  1.0000
  C   C2021     1.0  0.85337  0.34547  0.86813  1.0000
  N   N168      1.0  0.85948  0.09707  0.71730  1.0000
  C   C2022     1.0  0.86802  0.10261  0.69867  1.0000
  C   C2023     1.0  0.84639  0.08571  0.72212  1.0000
  C   C2024     1.0  0.86305  0.09729  0.68426  1.0000
  C   C2025     1.0  0.84142  0.07977  0.70808  1.0000
  C   C2026     1.0  0.84964  0.08579  0.68905  1.0000
  C   C2027     1.0  0.86505  0.10259  0.73222  1.0000
  H   H2017     1.0  0.87840  0.11164  0.69485  1.0000
  H   H2018     1.0  0.83953  0.08138  0.73687  1.0000
  H   H2019     1.0  0.86950  0.10209  0.66948  1.0000
  H   H2020     1.0  0.83117  0.07063  0.71185  1.0000
  C   C2028     1.0  0.79880  0.18906  0.65722  1.0000
  H   H2021     1.0  0.87712  0.09165  0.73708  1.0000
  H   H2022     1.0  0.86916  0.11682  0.72699  1.0000
  H   H2023     1.0  0.85302  0.10407  0.74458  1.0000
  N   N169      1.0  0.84383  0.25876  0.81649  1.0000
  C   C2029     1.0  0.84019  0.27838  0.81253  1.0000
  C   C2030     1.0  0.83977  0.24916  0.80517  1.0000
  C   C2031     1.0  0.83208  0.28896  0.79698  1.0000
  C   C2032     1.0  0.83146  0.25928  0.78963  1.0000
  C   C2033     1.0  0.82765  0.27930  0.78552  1.0000
  C   C2034     1.0  0.85295  0.24816  0.83250  1.0000
  H   H2024     1.0  0.84384  0.28591  0.82129  1.0000
  H   H2025     1.0  0.84326  0.23360  0.80782  1.0000
  H   H2026     1.0  0.82987  0.30452  0.79339  1.0000
  H   H2027     1.0  0.82882  0.25163  0.78031  1.0000
  H   H2028     1.0  0.82200  0.28734  0.77303  1.0000
  H   H2029     1.0  0.86795  0.24975  0.82906  1.0000
  H   H2030     1.0  0.84562  0.25397  0.84544  1.0000
  H   H2031     1.0  0.85266  0.23263  0.83602  1.0000
  S   S679      1.0  0.75190  0.31412  0.94461  1.0000
  H   H2032     1.0  0.75332  0.03820  0.71684  1.0000
  H   H2033     1.0  0.76885  0.18693  0.68506  1.0000
  S   S680      1.0  0.74295  0.07828  0.76179  1.0000
  C   C2035     1.0  0.78349  0.36916  0.83332  1.0000
  C   C2036     1.0  0.78194  0.38265  0.81642  1.0000
  S   S681      1.0  0.82938  0.25501  0.66971  1.0000
  H   H2034     1.0  0.78585  0.02191  0.66485  1.0000
  H   H2035     1.0  0.98250  0.30372  0.72535  1.0000
  C   C2037     1.0  0.83006  0.19227  0.66872  1.0000
  H   H2036     1.0  0.86065  0.35117  0.85392  1.0000
  H   H2037     1.0  0.79325  0.38179  0.80397  1.0000
  C   C2038     1.0  0.96827  0.28695  0.83064  1.0000
  H   H2038     1.0  0.78060  0.18487  0.70378  1.0000
  H   H2039     1.0  0.84214  0.38295  0.85777  1.0000
  C   C2039     1.0  0.94003  0.22524  0.73871  1.0000
  C   C2040     1.0  0.92215  0.22579  0.73585  1.0000
  H   H2040     1.0  0.84224  0.19348  0.67339  1.0000
  H   H2041     1.0  0.94916  0.27027  0.80319  1.0000
  C   C2041     1.0  0.76842  0.14602  0.65745  1.0000
  C   C2042     1.0  0.93764  0.25832  0.72192  1.0000
  H   H2042     1.0  0.96207  0.24104  0.73321  1.0000
  H   H2043     1.0  0.81410  0.18474  0.69705  1.0000
  Fe  Fe341     1.0  0.74481  0.46780  0.81971  1.0000
  N   N170      1.0  0.92005  0.25876  0.71933  1.0000
  C   C2043     1.0  0.95970  0.27205  0.80986  1.0000
  N   N171      1.0  0.75292  0.38480  0.84834  1.0000
  H   H2044     1.0  0.96410  0.29670  0.84031  1.0000
  H   H2045     1.0  0.74641  0.09516  0.79516  1.0000
  C   C2044     1.0  0.74909  0.17806  0.65655  1.0000
  H   H2046     1.0  0.97603  0.32234  0.75042  1.0000
  H   H2047     1.0  0.75077  0.08482  0.65131  1.0000
  H   H2048     1.0  0.74228  0.09315  0.82987  1.0000
  H   H2049     1.0  0.74312  0.11647  0.66049  1.0000
  C   C2045     1.0  0.74358  0.42869  0.88001  1.0000
  H   H2050     1.0  0.79831  0.25983  0.65171  1.0000
  C   C2046     1.0  0.82825  0.24808  0.64924  1.0000
  H   H2051     1.0  0.98631  0.38334  0.81952  1.0000
  H   H2052     1.0  0.85803  0.23598  0.64220  1.0000
  N   N172      1.0  0.98691  0.27859  0.82530  1.0000
  C   C2047     1.0  0.87164  0.27668  0.64255  1.0000
  C   C2048     1.0  0.81460  0.19388  0.64354  1.0000
  H   H2053     1.0  0.74239  0.37858  0.87839  1.0000
  S   S682      1.0  0.74000  0.45020  0.80176  1.0000
  H   H2054     1.0  0.88305  0.26352  0.64368  1.0000
  C   C2049     1.0  0.81103  0.25297  0.64315  1.0000
  S   S683      1.0  0.98412  0.72642  0.22806  1.0000
  S   S684      1.0  0.76927  0.60377  0.23442  1.0000
  Fe  Fe342     1.0  0.79213  0.61781  0.18157  1.0000
  S   S685      1.0  0.80939  0.60112  0.20340  1.0000
  S   S686      1.0  0.80647  0.62581  0.15116  1.0000
  Fe  Fe343     1.0  0.78599  0.58443  0.21461  1.0000
  S   S687      1.0  0.79052  0.55213  0.22454  1.0000
  Fe  Fe344     1.0  0.79090  0.62223  0.22081  1.0000
  H   H2055     1.0  0.79138  0.51211  0.22937  1.0000
  C   C2050     1.0  0.77450  0.65387  0.14782  1.0000
  S   S688      1.0  0.77519  0.64011  0.19814  1.0000
  H   H2056     1.0  0.82579  0.81400  0.24102  1.0000
  C   C2051     1.0  0.87607  0.76902  0.28633  1.0000
  S   S689      1.0  0.93675  0.83596  0.28722  1.0000
  H   H2057     1.0  0.83029  0.69354  0.21622  1.0000
  H   H2058     1.0  0.83104  0.78100  0.27874  1.0000
  H   H2059     1.0  0.88229  0.76906  0.22888  1.0000
  Fe  Fe345     1.0  0.85372  0.74245  0.22895  1.0000
  S   S690      1.0  0.88137  0.72131  0.22500  1.0000
  H   H2060     1.0  0.81277  0.65374  0.17264  1.0000
  Fe  Fe346     1.0  0.84932  0.74767  0.18825  1.0000
  S   S691      1.0  0.87694  0.72749  0.18063  1.0000
  S   S692      1.0  0.82760  0.76314  0.17039  1.0000
  Fe  Fe347     1.0  0.86727  0.70895  0.20904  1.0000
  S   S693      1.0  0.87084  0.67699  0.21198  1.0000
  Fe  Fe348     1.0  0.88842  0.74174  0.19717  1.0000
  S   S694      1.0  0.91504  0.75396  0.18630  1.0000
  S   S695      1.0  0.83900  0.72830  0.21566  1.0000
  S   S696      1.0  0.86150  0.76367  0.20213  1.0000
  Fe  Fe349     1.0  0.77868  0.72576  0.09166  1.0000
  S   S697      1.0  0.80883  0.71643  0.07746  1.0000
  C   C2052     1.0  0.96302  0.86998  0.25628  1.0000
  Fe  Fe350     1.0  0.77594  0.76609  0.06733  1.0000
  S   S698      1.0  0.80614  0.75994  0.05166  1.0000
  H   H2061     1.0  0.95539  0.79834  0.28213  1.0000
  Fe  Fe351     1.0  0.79954  0.73252  0.05036  1.0000
  S   S699      1.0  0.81015  0.72046  0.02384  1.0000
  Fe  Fe352     1.0  0.81228  0.74464  0.08043  1.0000
  S   S700      1.0  0.83872  0.74361  0.09013  1.0000
  H   H2062     1.0  0.76726  0.64505  0.16016  1.0000
  S   S701      1.0  0.78249  0.75316  0.09637  1.0000
  H   H2063     1.0  0.74898  0.56909  0.24860  1.0000
  H   H2064     1.0  0.80202  0.67460  0.02713  1.0000
  H   H2065     1.0  0.85150  0.79015  0.29487  1.0000
  C   C2053     1.0  0.75608  0.68739  0.04918  1.0000
  H   H2066     1.0  0.80248  0.67824  0.22582  1.0000
  H   H2067     1.0  0.78986  0.71298  0.13586  1.0000
  C   C2054     1.0  0.84333  0.70112  0.26256  1.0000
  H   H2068     1.0  0.81247  0.71901  0.12388  1.0000
  H   H2069     1.0  0.79847  0.72942  0.14378  1.0000
  H   H2070     1.0  0.97605  0.69656  0.19859  1.0000
  H   H2071     1.0  0.83181  0.71658  0.15211  1.0000
  H   H2072     1.0  0.94542  0.89567  0.29078  1.0000
  C   C2055     1.0  0.96562  0.71778  0.17541  1.0000
  C   C2056     1.0  0.79300  0.72029  0.01167  1.0000
  C   C2057     1.0  0.77377  0.72753  0.01807  1.0000
  N   N173      1.0  0.97009  0.77938  0.26337  1.0000
  C   C2058     1.0  0.76601  0.71926  0.99205  1.0000
  C   C2059     1.0  0.79941  0.76736  0.99835  1.0000
  C   C2060     1.0  0.79871  0.71253  0.99538  1.0000
  H   H2073     1.0  0.96062  0.74405  0.13403  1.0000
  H   H2074     1.0  0.81708  0.72021  0.27117  1.0000
  C   C2061     1.0  0.98619  0.78899  0.25580  1.0000
  N   N174      1.0  0.97482  0.88688  0.27911  1.0000
  Fe  Fe353     1.0  0.75516  0.61998  0.21013  1.0000
  C   C2062     1.0  0.83119  0.75813  0.14783  1.0000
  C   C2063     1.0  0.84864  0.74815  0.13939  1.0000
  C   C2064     1.0  0.85091  0.74399  0.12152  1.0000
  C   C2065     1.0  0.83573  0.74969  0.11210  1.0000
  C   C2066     1.0  0.81838  0.75987  0.12046  1.0000
  C   C2067     1.0  0.81613  0.76409  0.13827  1.0000
  H   H2075     1.0  0.86041  0.74376  0.14653  1.0000
  H   H2076     1.0  0.86442  0.73626  0.11502  1.0000
  H   H2077     1.0  0.80677  0.76475  0.11310  1.0000
  H   H2078     1.0  0.80267  0.77200  0.14467  1.0000
  H   H2079     1.0  0.89969  0.77736  0.23512  1.0000
  H   H2080     1.0  0.77997  0.56224  0.17256  1.0000
  H   H2081     1.0  0.80759  0.76815  0.00809  1.0000
  H   H2082     1.0  0.79506  0.68106  0.15256  1.0000
  C   C2068     1.0  0.80282  0.71617  0.13801  1.0000
  H   H2083     1.0  0.98122  0.75909  0.24544  1.0000
  C   C2069     1.0  0.79535  0.55617  0.17184  1.0000
  C   C2070     1.0  0.82757  0.70283  0.15665  1.0000
  C   C2071     1.0  0.83237  0.66994  0.17408  1.0000
  C   C2072     1.0  0.85182  0.68291  0.25890  1.0000
  C   C2073     1.0  0.96400  0.73554  0.21772  1.0000
  C   C2074     1.0  0.94869  0.72616  0.22434  1.0000
  C   C2075     1.0  0.93314  0.73214  0.21532  1.0000
  C   C2076     1.0  0.93279  0.74764  0.19973  1.0000
  C   C2077     1.0  0.94771  0.75755  0.19368  1.0000
  C   C2078     1.0  0.96330  0.75148  0.20258  1.0000
  H   H2084     1.0  0.94912  0.71383  0.23609  1.0000
  H   H2085     1.0  0.92176  0.72436  0.22007  1.0000
  H   H2086     1.0  0.94743  0.76970  0.18176  1.0000
  C   C2079     1.0  0.77981  0.77398  0.00181  1.0000
  C   C2080     1.0  0.81909  0.64951  0.22655  1.0000
  C   C2081     1.0  0.80710  0.68302  0.15680  1.0000
  C   C2082     1.0  0.83241  0.67820  0.21823  1.0000
  C   C2083     1.0  0.85076  0.66694  0.21621  1.0000
  C   C2084     1.0  0.85321  0.64700  0.21867  1.0000
  C   C2085     1.0  0.83744  0.63832  0.22378  1.0000
  N   N175      1.0  0.82132  0.67428  0.26793  1.0000
  N   N176      1.0  0.81258  0.70031  0.15094  1.0000
  H   H2087     1.0  0.86736  0.63817  0.21715  1.0000
  H   H2088     1.0  0.83947  0.62284  0.22645  1.0000
  C   C2086     1.0  0.79357  0.64735  0.14004  1.0000
  Fe  Fe354     1.0  0.86562  0.84622  0.29161  1.0000
  H   H2089     1.0  0.97085  0.89641  0.30477  1.0000
  H   H2090     1.0  0.76931  0.67979  0.02198  1.0000
  C   C2087     1.0  0.79300  0.67674  0.11581  1.0000
  C   C2088     1.0  0.80272  0.65866  0.12384  1.0000
  H   H2091     1.0  0.74178  0.59250  0.27140  1.0000
  H   H2092     1.0  0.94218  0.73659  0.15351  1.0000
  H   H2093     1.0  0.79770  0.66599  0.26382  1.0000
  H   H2094     1.0  0.81749  0.65367  0.11784  1.0000
  C   C2089     1.0  0.82373  0.70590  0.26865  1.0000
  C   C2090     1.0  0.75969  0.55051  0.21154  1.0000
  C   C2091     1.0  0.77530  0.54027  0.21959  1.0000
  C   C2092     1.0  0.77946  0.52016  0.22293  1.0000
  C   C2093     1.0  0.77683  0.68737  0.06846  1.0000
  H   H2095     1.0  0.75533  0.80871  0.11285  1.0000
  C   C2094     1.0  0.96960  0.83633  0.29663  1.0000
  C   C2095     1.0  0.77402  0.68346  0.12372  1.0000
  C   C2096     1.0  0.81698  0.66754  0.16832  1.0000
  H   H2096     1.0  0.89381  0.78700  0.21183  1.0000
  C   C2097     1.0  0.76029  0.72682  0.00843  1.0000
  C   C2098     1.0  0.78905  0.52610  0.16923  1.0000
  C   C2099     1.0  0.80683  0.91494  0.27818  1.0000
  C   C2100     1.0  0.95475  0.74337  0.14943  1.0000
  C   C2101     1.0  0.85726  0.77886  0.28697  1.0000
  C   C2102     1.0  0.84570  0.77360  0.27792  1.0000
  H   H2097     1.0  0.74288  0.77896  0.09586  1.0000
  C   C2103     1.0  0.88339  0.75426  0.27623  1.0000
  C   C2104     1.0  0.80769  0.49527  0.18121  1.0000
  H   H2098     1.0  0.84728  0.65550  0.25864  1.0000
  C   C2105     1.0  0.81799  0.50459  0.18768  1.0000
  N   N177      1.0  0.75887  0.69004  0.06565  1.0000
  H   H2099     1.0  0.75605  0.56596  0.20928  1.0000
  C   C2106     1.0  0.81663  0.66950  0.22352  1.0000
  H   H2100     1.0  0.86830  0.83657  0.25209  1.0000
  H   H2101     1.0  0.74542  0.73245  0.01347  1.0000
  H   H2102     1.0  0.87779  0.73807  0.25890  1.0000
  N   N178      1.0  0.79924  0.53513  0.17560  1.0000
  H   H2103     1.0  0.92792  0.78257  0.29455  1.0000
  H   H2104     1.0  0.84947  0.68980  0.17302  1.0000
  H   H2105     1.0  0.89290  0.80980  0.24097  1.0000
  S   S702      1.0  0.79955  0.63857  0.23765  1.0000
  H   H2106     1.0  0.77903  0.68999  0.08125  1.0000
  H   H2107     1.0  0.85065  0.78810  0.22924  1.0000
  C   C2107     1.0  0.84055  0.66954  0.26178  1.0000
  H   H2108     1.0  0.83466  0.83849  0.25272  1.0000
  S   S703      1.0  0.83865  0.75339  0.25555  1.0000
  C   C2108     1.0  0.85311  0.75904  0.26758  1.0000
  H   H2109     1.0  0.80038  0.68540  0.10367  1.0000
  C   C2109     1.0  0.87201  0.74943  0.26668  1.0000
  H   H2110     1.0  0.79945  0.56129  0.18263  1.0000
  C   C2110     1.0  0.80961  0.66004  0.27147  1.0000
  S   S704      1.0  0.84385  0.86432  0.27450  1.0000
  C   C2111     1.0  0.96964  0.76421  0.25635  1.0000
  H   H2111     1.0  0.89788  0.74650  0.27582  1.0000
  S   S705      1.0  0.77044  0.59949  0.19112  1.0000
  C   C2112     1.0  0.83764  0.68773  0.16839  1.0000
  C   C2113     1.0  0.76869  0.51041  0.21737  1.0000
  H   H2112     1.0  0.84015  0.65804  0.18300  1.0000
  C   C2114     1.0  0.95588  0.88839  0.28048  1.0000
  H   H2113     1.0  0.74190  0.69014  0.04656  1.0000
  C   C2115     1.0  0.81287  0.69221  0.27130  1.0000
  H   H2114     1.0  0.78477  0.49895  0.16719  1.0000
  H   H2115     1.0  0.86699  0.67926  0.25350  1.0000
  H   H2116     1.0  0.77227  0.49497  0.21973  1.0000
  C   C2116     1.0  0.81584  0.89684  0.27404  1.0000
  H   H2117     1.0  0.81778  0.64686  0.26627  1.0000
  S   S706      1.0  0.89065  0.77444  0.29836  1.0000
  C   C2117     1.0  0.80835  0.75900  0.98266  1.0000
  H   H2118     1.0  0.79762  0.69601  0.27603  1.0000
  C   C2118     1.0  0.81360  0.52466  0.18468  1.0000
  H   H2119     1.0  0.80947  0.89034  0.26656  1.0000
  S   S707      1.0  0.89212  0.82686  0.27971  1.0000
  C   C2119     1.0  0.97919  0.70799  0.18641  1.0000
  C   C2120     1.0  0.79308  0.50607  0.17198  1.0000
  H   H2120     1.0  0.95411  0.74281  0.25771  1.0000
  S   S708      1.0  0.76169  0.70635  0.11432  1.0000
  H   H2121     1.0  0.95194  0.71370  0.17926  1.0000
  N   N179      1.0  0.87324  0.79732  0.23452  1.0000
  C   C2121     1.0  0.85470  0.79868  0.23418  1.0000
  C   C2122     1.0  0.87822  0.81074  0.24080  1.0000
  C   C2123     1.0  0.84051  0.81336  0.24084  1.0000
  C   C2124     1.0  0.86441  0.82582  0.24723  1.0000
  C   C2125     1.0  0.84545  0.82700  0.24743  1.0000
  C   C2126     1.0  0.88799  0.78201  0.22720  1.0000
  H   H2122     1.0  0.85187  0.71163  0.26049  1.0000
  H   H2123     1.0  0.80337  0.56195  0.15757  1.0000
  Fe  Fe355     1.0  0.90600  0.83424  0.29932  1.0000
  C   C2127     1.0  0.93966  0.77725  0.28387  1.0000
  H   H2124     1.0  0.82146  0.53181  0.19002  1.0000
  C   C2128     1.0  0.76471  0.67187  0.13960  1.0000
  S   S709      1.0  0.74056  0.50917  0.20013  1.0000
  S   S710      1.0  0.75496  0.93904  0.28987  1.0000
  C   C2129     1.0  0.95525  0.78610  0.27678  1.0000
  H   H2125     1.0  0.81357  0.70684  0.99037  1.0000
  C   C2130     1.0  0.78525  0.71213  0.98552  1.0000
  C   C2131     1.0  0.98798  0.87749  0.26626  1.0000
  Fe  Fe356     1.0  0.88328  0.80404  0.30451  1.0000
  H   H2126     1.0  0.80682  0.68008  0.05680  1.0000
  S   S711      1.0  0.80456  0.94654  0.29245  1.0000
  C   C2132     1.0  0.98038  0.84173  0.30641  1.0000
  C   C2133     1.0  0.83306  0.88720  0.27948  1.0000
  H   H2127     1.0  0.92728  0.75447  0.28255  1.0000
  H   H2128     1.0  0.76921  0.73381  0.03032  1.0000
  H   H2129     1.0  0.77749  0.53434  0.16226  1.0000
  H   H2130     1.0  0.97490  0.75892  0.19746  1.0000
  H   H2131     1.0  0.95836  0.86277  0.24796  1.0000
  H   H2132     1.0  0.83907  0.92079  0.29982  1.0000
  H   H2133     1.0  0.94954  0.75818  0.15202  1.0000
  H   H2134     1.0  0.75000  0.67692  0.14576  1.0000
  C   C2134     1.0  0.75357  0.52072  0.20858  1.0000
  H   H2135     1.0  0.97669  0.82910  0.28506  1.0000
  H   H2136     1.0  0.80381  0.65580  0.28692  1.0000
  C   C2135     1.0  0.77153  0.68141  0.03524  1.0000
  H   H2137     1.0  0.74605  0.85248  0.06319  1.0000
  S   S712      1.0  0.74892  0.71899  0.97999  1.0000
  H   H2138     1.0  0.76494  0.82190  0.07831  1.0000
  S   S713      1.0  0.75798  0.79434  0.05624  1.0000
  C   C2136     1.0  0.93926  0.76153  0.27707  1.0000
  S   S714      1.0  0.76894  0.73957  0.06435  1.0000
  C   C2137     1.0  0.84132  0.89585  0.28889  1.0000
  Fe  Fe357     1.0  0.77284  0.95568  0.29606  1.0000
  C   C2138     1.0  0.74886  0.54077  0.20606  1.0000
  C   C2139     1.0  0.75283  0.82972  0.08685  1.0000
  C   C2140     1.0  0.81516  0.92363  0.28751  1.0000
  C   C2141     1.0  0.95429  0.75498  0.26317  1.0000
  C   C2142     1.0  0.78988  0.67847  0.03812  1.0000
  C   C2143     1.0  0.94973  0.84059  0.30149  1.0000
  H   H2139     1.0  0.79375  0.92242  0.27363  1.0000
  H   H2140     1.0  0.77269  0.78011  0.01421  1.0000
  C   C2144     1.0  0.74738  0.82227  0.10624  1.0000
  C   C2145     1.0  0.79259  0.68157  0.05478  1.0000
  C   C2146     1.0  0.94970  0.88000  0.26908  1.0000
  C   C2147     1.0  0.83247  0.91407  0.29275  1.0000
  H   H2141     1.0  0.77182  0.89951  0.30566  1.0000
  H   H2142     1.0  0.93471  0.88049  0.27076  1.0000
  N   N180      1.0  0.96924  0.73278  0.16054  1.0000
  H   H2143     1.0  0.82917  0.49631  0.19515  1.0000
  H   H2144     1.0  0.85470  0.88873  0.29289  1.0000
  C   C2148     1.0  0.76941  0.77227  0.98949  1.0000
  C   C2149     1.0  0.98230  0.86876  0.25476  1.0000
  H   H2145     1.0  0.75413  0.77707  0.99221  1.0000
  H   H2146     1.0  0.98235  0.91097  0.28338  1.0000
  C   C2150     1.0  0.98101  0.89609  0.29092  1.0000
  H   H2147     1.0  0.82353  0.75347  0.98041  1.0000
  C   C2151     1.0  0.98619  0.73844  0.15628  1.0000
  S   S715      1.0  0.75598  0.98430  0.28389  1.0000
  H   H2148     1.0  0.74425  0.68742  0.09449  1.0000
  C   C2152     1.0  0.74270  0.69643  0.08019  1.0000
  H   H2149     1.0  0.74207  0.71155  0.08050  1.0000
  H   H2150     1.0  0.98448  0.79912  0.24207  1.0000
  H   H2151     1.0  0.74019  0.63877  0.24106  1.0000
  H   H2152     1.0  0.98898  0.75050  0.14468  1.0000
  H   H2153     1.0  0.98759  0.79709  0.26579  1.0000
  C   C2153     1.0  0.74216  0.84684  0.07835  1.0000
  H   H2154     1.0  0.78402  0.87638  0.30127  1.0000
  H   H2155     1.0  0.74564  0.87452  0.51665  1.0000
  S   S716      1.0  0.77372  0.83993  0.43934  1.0000
  S   S717      1.0  0.78661  0.80260  0.40575  1.0000
  S   S718      1.0  0.77071  0.82413  0.59568  1.0000
  S   S719      1.0  0.77337  0.86728  0.59846  1.0000
  Fe  Fe358     1.0  0.78361  0.83662  0.61248  1.0000
  N   N181      1.0  0.78134  0.77754  0.62609  1.0000
  H   H2156     1.0  0.92535  0.85337  0.32021  1.0000
  H   H2157     1.0  0.76058  0.75435  0.60629  1.0000
  C   C2154     1.0  0.95147  0.85560  0.32608  1.0000
  C   C2155     1.0  0.77807  0.88475  0.31260  1.0000
  H   H2158     1.0  0.77563  0.80559  0.53244  1.0000
  H   H2159     1.0  0.94439  0.86322  0.33737  1.0000
  H   H2160     1.0  0.80677  0.78810  0.61308  1.0000
  H   H2161     1.0  0.75217  0.86686  0.39352  1.0000
  C   C2156     1.0  0.81434  0.81321  0.45603  1.0000
  H   H2162     1.0  0.74129  0.79426  0.52386  1.0000
  S   S720      1.0  0.75720  0.95601  0.32609  1.0000
  H   H2163     1.0  0.75658  0.76549  0.63581  1.0000
  H   H2164     1.0  0.84557  0.91788  0.62725  1.0000
  Fe  Fe359     1.0  0.87153  0.83134  0.33159  1.0000
  S   S721      1.0  0.85750  0.83837  0.36023  1.0000
  S   S722      1.0  0.89854  0.81030  0.32371  1.0000
  S   S723      1.0  0.75216  0.86646  0.55436  1.0000
  C   C2157     1.0  0.82219  0.87060  0.33224  1.0000
  C   C2158     1.0  0.94067  0.84997  0.31644  1.0000
  N   N182      1.0  0.83702  0.81134  0.42667  1.0000
  C   C2159     1.0  0.76895  0.82061  0.52902  1.0000
  H   H2165     1.0  0.79118  0.91559  0.62622  1.0000
  H   H2166     1.0  0.83475  0.83120  0.44372  1.0000
  C   C2160     1.0  0.85299  0.81807  0.41257  1.0000
  H   H2167     1.0  0.80806  0.81987  0.46820  1.0000
  C   C2161     1.0  0.75585  0.84805  0.50669  1.0000
  C   C2162     1.0  0.76500  0.83196  0.54256  1.0000
  C   C2163     1.0  0.77094  0.76154  0.60774  1.0000
  H   H2168     1.0  0.74469  0.80438  0.59186  1.0000
  S   S724      1.0  0.75357  0.80243  0.45569  1.0000
  C   C2164     1.0  0.76874  0.76789  0.62440  1.0000
  C   C2165     1.0  0.97132  0.85165  0.32097  1.0000
  Fe  Fe360     1.0  0.74490  0.85696  0.43517  1.0000
  S   S725      1.0  0.81169  0.82254  0.62092  1.0000
  C   C2166     1.0  0.80710  0.79847  0.45393  1.0000
  S   S726      1.0  0.98452  0.86023  0.33210  1.0000
  C   C2167     1.0  0.81490  0.79028  0.43807  1.0000
  C   C2168     1.0  0.74536  0.88671  0.36811  1.0000
  H   H2169     1.0  0.80894  0.77928  0.43593  1.0000
  C   C2169     1.0  0.76706  0.90221  0.63289  1.0000
  C   C2170     1.0  0.77811  0.91333  0.63616  1.0000
  Fe  Fe361     1.0  0.76652  0.81859  0.42729  1.0000
  H   H2170     1.0  0.76656  0.87846  0.32313  1.0000
  C   C2171     1.0  0.75202  0.85942  0.52019  1.0000
  C   C2172     1.0  0.81715  0.85741  0.62311  1.0000
  C   C2173     1.0  0.82999  0.79687  0.42453  1.0000
  H   H2171     1.0  0.84902  0.83374  0.40672  1.0000
  H   H2172     1.0  0.76868  0.82570  0.55628  1.0000
  C   C2174     1.0  0.80482  0.81401  0.39105  1.0000
  C   C2175     1.0  0.80630  0.83185  0.39300  1.0000
  C   C2176     1.0  0.82221  0.83960  0.38293  1.0000
  C   C2177     1.0  0.83656  0.82972  0.37062  1.0000
  C   C2178     1.0  0.83469  0.81233  0.36794  1.0000
  C   C2179     1.0  0.81887  0.80445  0.37822  1.0000
  H   H2173     1.0  0.79535  0.83955  0.40247  1.0000
  H   H2174     1.0  0.82351  0.85317  0.38489  1.0000
  H   H2175     1.0  0.84578  0.80457  0.35853  1.0000
  H   H2176     1.0  0.81776  0.79068  0.37660  1.0000
  H   H2177     1.0  0.75244  0.85442  0.49283  1.0000
  C   C2180     1.0  0.81982  0.88547  0.34142  1.0000
  C   C2181     1.0  0.74033  0.89541  0.39848  1.0000
  C   C2182     1.0  0.80369  0.90018  0.34096  1.0000
  H   H2178     1.0  0.83570  0.79061  0.41208  1.0000
  C   C2183     1.0  0.80839  0.87063  0.32268  1.0000
  Fe  Fe362     1.0  0.75830  0.82542  0.46740  1.0000
  Fe  Fe363     1.0  0.75785  0.85472  0.58403  1.0000
  C   C2184     1.0  0.76452  0.82866  0.51101  1.0000
  H   H2179     1.0  0.85729  0.81093  0.40028  1.0000
  H   H2180     1.0  0.83474  0.85921  0.33235  1.0000
  S   S727      1.0  0.76994  0.81406  0.49428  1.0000
  H   H2181     1.0  0.86546  0.81516  0.41912  1.0000
  S   S728      1.0  0.75916  0.83587  0.63729  1.0000
  C   C2185     1.0  0.75672  0.85148  0.53810  1.0000
  H   H2182     1.0  0.80654  0.86406  0.61459  1.0000
  C   C2186     1.0  0.79012  0.89974  0.33132  1.0000
  H   H2183     1.0  0.81103  0.77756  0.58320  1.0000
  H   H2184     1.0  0.83053  0.88556  0.34878  1.0000
  C   C2187     1.0  0.83389  0.92419  0.63794  1.0000
  C   C2188     1.0  0.82252  0.83738  0.62791  1.0000
  H   H2185     1.0  0.74055  0.78733  0.56933  1.0000
  H   H2186     1.0  0.79523  0.79366  0.46444  1.0000
  C   C2189     1.0  0.82935  0.81957  0.44213  1.0000
  H   H2187     1.0  0.77151  0.89620  0.62033  1.0000
  Fe  Fe364     1.0  0.74812  0.86576  0.62252  1.0000
  N   N183      1.0  0.79270  0.88518  0.32218  1.0000
  H   H2188     1.0  0.81054  0.85912  0.31537  1.0000
  H   H2189     1.0  0.78776  0.76064  0.57961  1.0000
  C   C2190     1.0  0.82581  0.86892  0.62905  1.0000
  C   C2191     1.0  0.79917  0.77461  0.59476  1.0000
  C   C2192     1.0  0.78615  0.76512  0.59276  1.0000
  H   H2190     1.0  0.82177  0.88440  0.62505  1.0000
  S   S729      1.0  0.85546  0.82260  0.31488  1.0000
  C   C2193     1.0  0.79665  0.78059  0.61171  1.0000
  H   H2191     1.0  0.82534  0.93717  0.63023  1.0000
  C   C2194     1.0  0.83960  0.86050  0.64013  1.0000
  C   C2195     1.0  0.83639  0.82896  0.63889  1.0000
  H   H2192     1.0  0.80173  0.91194  0.34788  1.0000
  Fe  Fe365     1.0  0.74525  0.82619  0.61938  1.0000
  H   H2193     1.0  0.77759  0.91119  0.33103  1.0000
  H   H2194     1.0  0.74958  0.87579  0.35977  1.0000
  C   C2196     1.0  0.74660  0.88158  0.38733  1.0000
  S   S730      1.0  0.88033  0.85609  0.30877  1.0000
  H   H2195     1.0  0.98975  0.87426  0.36399  1.0000
  Fe  Fe366     1.0  0.79215  0.63705  0.79257  1.0000
  S   S731      1.0  0.77941  0.62838  0.82351  1.0000
  S   S732      1.0  0.82234  0.64086  0.78091  1.0000
  H   H2196     1.0  0.83531  0.73056  0.76801  1.0000
  Fe  Fe367     1.0  0.77112  0.69798  0.91667  1.0000
  C   C2197     1.0  0.83306  0.71049  0.75293  1.0000
  S   S733      1.0  0.77297  0.67006  0.90894  1.0000
  C   C2198     1.0  0.77305  0.56886  0.79591  1.0000
  C   C2199     1.0  0.83716  0.94734  0.67562  1.0000
  H   H2197     1.0  0.94854  0.70818  0.85314  1.0000
  H   H2198     1.0  0.85551  0.83385  0.65352  1.0000
  S   S734      1.0  0.77748  0.61951  0.78286  1.0000
  Fe  Fe368     1.0  0.79372  0.72635  0.91712  1.0000
  S   S735      1.0  0.82334  0.73090  0.91137  1.0000
  H   H2199     1.0  0.94969  0.68251  0.86069  1.0000
  S   S736      1.0  0.78032  0.72305  0.89497  1.0000
  S   S737      1.0  0.96092  0.75987  0.84609  1.0000
  Fe  Fe369     1.0  0.87178  0.69872  0.81444  1.0000
  S   S738      1.0  0.85241  0.72435  0.80111  1.0000
  S   S739      1.0  0.85777  0.67401  0.83082  1.0000
  Fe  Fe370     1.0  0.90541  0.71844  0.80085  1.0000
  S   S740      1.0  0.88869  0.74569  0.78634  1.0000
  S   S741      1.0  0.93681  0.71633  0.79688  1.0000
  Fe  Fe371     1.0  0.86600  0.74134  0.81240  1.0000
  S   S742      1.0  0.84687  0.76616  0.82419  1.0000
  Fe  Fe372     1.0  0.87680  0.72623  0.77634  1.0000
  S   S743      1.0  0.87352  0.73392  0.74611  1.0000
  S   S744      1.0  0.88355  0.71550  0.82814  1.0000
  S   S745      1.0  0.89533  0.69913  0.78857  1.0000
  C   C2200     1.0  0.92839  0.74516  0.74849  1.0000
  Fe  Fe373     1.0  0.85813  0.83777  0.71146  1.0000
  S   S746      1.0  0.87542  0.83079  0.68381  1.0000
  S   S747      1.0  0.83701  0.82202  0.73245  1.0000
  Fe  Fe374     1.0  0.87155  0.87472  0.70479  1.0000
  H   H2200     1.0  0.80946  0.49693  0.82068  1.0000
  S   S748      1.0  0.86888  0.89895  0.71863  1.0000
  Fe  Fe375     1.0  0.86513  0.86200  0.67180  1.0000
  Fe  Fe376     1.0  0.89829  0.84080  0.69100  1.0000
  S   S749      1.0  0.92879  0.82494  0.68755  1.0000
  S   S750      1.0  0.84642  0.86814  0.69911  1.0000
  S   S751      1.0  0.88176  0.84468  0.71990  1.0000
  Fe  Fe377     1.0  0.77014  0.95002  0.72162  1.0000
  H   H2201     1.0  0.77304  0.62344  0.73810  1.0000
  S   S752      1.0  0.78394  0.93803  0.74666  1.0000
  N   N184      1.0  0.80654  0.69852  0.78502  1.0000
  C   C2201     1.0  0.85818  0.91856  0.65662  1.0000
  H   H2202     1.0  0.74934  0.94241  0.77542  1.0000
  C   C2202     1.0  0.77038  0.49882  0.84149  1.0000
  C   C2203     1.0  0.81040  0.69049  0.76954  1.0000
  S   S753      1.0  0.76830  0.74619  0.92988  1.0000
  C   C2204     1.0  0.77642  0.55552  0.78450  1.0000
  C   C2205     1.0  0.79219  0.86479  0.67017  1.0000
  H   H2203     1.0  0.77057  0.76217  0.96465  1.0000
  C   C2206     1.0  0.96626  0.80259  0.77988  1.0000
  H   H2204     1.0  0.80272  0.88469  0.70069  1.0000
  C   C2207     1.0  0.84520  0.90963  0.72634  1.0000
  C   C2208     1.0  0.83996  0.91662  0.74304  1.0000
  C   C2209     1.0  0.82100  0.92494  0.74953  1.0000
  C   C2210     1.0  0.80741  0.92688  0.73896  1.0000
  C   C2211     1.0  0.81267  0.92012  0.72212  1.0000
  C   C2212     1.0  0.83151  0.91123  0.71598  1.0000
  H   H2205     1.0  0.85052  0.91548  0.75104  1.0000
  H   H2206     1.0  0.81695  0.93030  0.76248  1.0000
  H   H2207     1.0  0.80223  0.92172  0.71385  1.0000
  H   H2208     1.0  0.83552  0.90632  0.70284  1.0000
  C   C2213     1.0  0.96796  0.84488  0.71323  1.0000
  S   S754      1.0  0.74248  0.97103  0.72462  1.0000
  C   C2214     1.0  0.96342  0.82696  0.69230  1.0000
  C   C2215     1.0  0.94369  0.83312  0.69721  1.0000
  C   C2216     1.0  0.93614  0.84514  0.71020  1.0000
  C   C2217     1.0  0.94823  0.85080  0.71835  1.0000
  C   C2218     1.0  0.82391  0.69611  0.75340  1.0000
  H   H2209     1.0  0.81687  0.95069  0.65861  1.0000
  H   H2210     1.0  0.92099  0.85009  0.71403  1.0000
  H   H2211     1.0  0.94227  0.86005  0.72843  1.0000
  C   C2219     1.0  0.84601  0.79733  0.73570  1.0000
  C   C2220     1.0  0.84284  0.78586  0.75395  1.0000
  C   C2221     1.0  0.85132  0.76635  0.75710  1.0000
  C   C2222     1.0  0.86220  0.75808  0.74187  1.0000
  C   C2223     1.0  0.86460  0.76935  0.72343  1.0000
  C   C2224     1.0  0.85682  0.78911  0.72039  1.0000
  H   H2212     1.0  0.83428  0.79211  0.76577  1.0000
  H   H2213     1.0  0.84939  0.75779  0.77137  1.0000
  H   H2214     1.0  0.87280  0.76291  0.71160  1.0000
  H   H2215     1.0  0.85897  0.79788  0.70619  1.0000
  C   C2225     1.0  0.95415  0.74897  0.83137  1.0000
  C   C2226     1.0  0.93494  0.74920  0.83323  1.0000
  C   C2227     1.0  0.92936  0.73977  0.82218  1.0000
  C   C2228     1.0  0.94302  0.73028  0.80911  1.0000
  C   C2229     1.0  0.96214  0.73080  0.80665  1.0000
  C   C2230     1.0  0.96773  0.73990  0.81793  1.0000
  H   H2216     1.0  0.92437  0.75628  0.84356  1.0000
  H   H2217     1.0  0.91456  0.73951  0.82412  1.0000
  H   H2218     1.0  0.97273  0.72366  0.79640  1.0000
  C   C2231     1.0  0.82989  0.74299  0.88779  1.0000
  C   C2232     1.0  0.81607  0.75377  0.87742  1.0000
  C   C2233     1.0  0.82141  0.76183  0.85803  1.0000
  C   C2234     1.0  0.84052  0.75864  0.84891  1.0000
  C   C2235     1.0  0.85435  0.74808  0.85934  1.0000
  C   C2236     1.0  0.84906  0.74053  0.87884  1.0000
  H   H2219     1.0  0.80124  0.75583  0.88430  1.0000
  H   H2220     1.0  0.81067  0.76991  0.84998  1.0000
  H   H2221     1.0  0.86914  0.74570  0.85236  1.0000
  H   H2222     1.0  0.85978  0.73219  0.88682  1.0000
  H   H2223     1.0  0.78746  0.55617  0.77177  1.0000
  H   H2224     1.0  0.79464  0.67611  0.80521  1.0000
  H   H2225     1.0  0.94083  0.69613  0.83965  1.0000
  C   C2237     1.0  0.94786  0.76891  0.73833  1.0000
  N   N185      1.0  0.97092  0.69094  0.83695  1.0000
  C   C2238     1.0  0.79215  0.84688  0.66726  1.0000
  H   H2226     1.0  0.84383  0.71484  0.74068  1.0000
  Fe  Fe378     1.0  0.75390  0.74029  0.90982  1.0000
  S   S755      1.0  0.77134  0.52415  0.77539  1.0000
  C   C2239     1.0  0.83222  0.64977  0.79502  1.0000
  C   C2240     1.0  0.82591  0.64673  0.81476  1.0000
  C   C2241     1.0  0.83395  0.65404  0.82568  1.0000
  C   C2242     1.0  0.84793  0.66492  0.81688  1.0000
  C   C2243     1.0  0.85396  0.66831  0.79710  1.0000
  C   C2244     1.0  0.84642  0.66039  0.78627  1.0000
  H   H2227     1.0  0.81522  0.63830  0.82170  1.0000
  H   H2228     1.0  0.82943  0.65111  0.84099  1.0000
  H   H2229     1.0  0.86483  0.67656  0.79019  1.0000
  H   H2230     1.0  0.85153  0.66262  0.77104  1.0000
  H   H2231     1.0  0.77186  0.64218  0.88900  1.0000
  H   H2232     1.0  0.78617  0.87762  0.66088  1.0000
  H   H2233     1.0  0.90673  0.74973  0.73279  1.0000
  Fe  Fe379     1.0  0.75400  0.64549  0.78063  1.0000
  C   C2245     1.0  0.76208  0.61718  0.73648  1.0000
  H   H2234     1.0  0.92209  0.78665  0.69366  1.0000
  H   H2235     1.0  0.76473  0.59415  0.76100  1.0000
  N   N186      1.0  0.84122  0.92887  0.65220  1.0000
  C   C2246     1.0  0.85466  0.93723  0.67986  1.0000
  H   H2236     1.0  0.81186  0.71964  0.79657  1.0000
  H   H2237     1.0  0.78970  0.53753  0.83217  1.0000
  H   H2238     1.0  0.95095  0.74451  0.76180  1.0000
  C   C2247     1.0  0.79265  0.69202  0.80194  1.0000
  C   C2248     1.0  0.81512  0.71296  0.78450  1.0000
  Fe  Fe380     1.0  0.76258  0.61305  0.81348  1.0000
  C   C2249     1.0  0.95155  0.69453  0.84819  1.0000
  C   C2250     1.0  0.76606  0.54096  0.78980  1.0000
  H   H2239     1.0  0.78184  0.57934  0.79222  1.0000
  H   H2240     1.0  0.76446  0.54476  0.85961  1.0000
  C   C2251     1.0  0.97553  0.83300  0.70010  1.0000
  H   H2241     1.0  0.86631  0.90699  0.64956  1.0000
  H   H2242     1.0  0.77800  0.69832  0.79959  1.0000
  H   H2243     1.0  0.80987  0.75995  0.94122  1.0000
  H   H2244     1.0  0.81449  0.85075  0.70679  1.0000
  C   C2252     1.0  0.82842  0.71920  0.76842  1.0000
  N   N187      1.0  0.82280  0.68475  0.88396  1.0000
  C   C2253     1.0  0.83033  0.70058  0.87476  1.0000
  C   C2254     1.0  0.81339  0.67744  0.87500  1.0000
  C   C2255     1.0  0.82768  0.71012  0.85646  1.0000
  C   C2256     1.0  0.81029  0.68670  0.85679  1.0000
  C   C2257     1.0  0.81744  0.70321  0.84753  1.0000
  C   C2258     1.0  0.82566  0.67499  0.90316  1.0000
  H   H2245     1.0  0.83847  0.70587  0.88157  1.0000
  H   H2246     1.0  0.80814  0.66440  0.88197  1.0000
  H   H2247     1.0  0.83376  0.72261  0.84918  1.0000
  H   H2248     1.0  0.80268  0.68088  0.84987  1.0000
  H   H2249     1.0  0.81560  0.71029  0.83324  1.0000
  H   H2250     1.0  0.81333  0.66850  0.91154  1.0000
  H   H2251     1.0  0.83869  0.66354  0.90234  1.0000
  H   H2252     1.0  0.82701  0.68529  0.91101  1.0000
  N   N188      1.0  0.84906  0.82804  0.77588  1.0000
  C   C2259     1.0  0.83023  0.83292  0.77524  1.0000
  C   C2260     1.0  0.86015  0.84148  0.76861  1.0000
  C   C2261     1.0  0.82199  0.85174  0.76741  1.0000
  C   C2262     1.0  0.85236  0.86045  0.76073  1.0000
  C   C2263     1.0  0.83315  0.86557  0.76013  1.0000
  C   C2264     1.0  0.85770  0.80812  0.78348  1.0000
  H   H2253     1.0  0.82155  0.82216  0.78043  1.0000
  H   H2254     1.0  0.87518  0.83753  0.76868  1.0000
  H   H2255     1.0  0.80712  0.85548  0.76670  1.0000
  H   H2256     1.0  0.86121  0.87107  0.75483  1.0000
  H   H2257     1.0  0.82697  0.88017  0.75388  1.0000
  H   H2258     1.0  0.86773  0.80753  0.79241  1.0000
  H   H2259     1.0  0.84689  0.79990  0.79274  1.0000
  H   H2260     1.0  0.86535  0.80077  0.77162  1.0000
  H   H2261     1.0  0.76227  0.64555  0.85863  1.0000
  H   H2262     1.0  0.82861  0.95830  0.68331  1.0000
  H   H2263     1.0  0.81569  0.81888  0.70164  1.0000
  C   C2265     1.0  0.78051  0.52741  0.83930  1.0000
  H   H2264     1.0  0.90386  0.77321  0.70457  1.0000
  C   C2266     1.0  0.97448  0.68459  0.82047  1.0000
  H   H2265     1.0  0.75536  0.63914  0.71243  1.0000
  C   C2267     1.0  0.75206  0.53996  0.80646  1.0000
  H   H2266     1.0  0.95659  0.79943  0.77310  1.0000
  C   C2268     1.0  0.98546  0.69354  0.84335  1.0000
  C   C2269     1.0  0.79701  0.50737  0.81600  1.0000
  C   C2270     1.0  0.77212  0.92172  0.65208  1.0000
  S   S756      1.0  0.77009  0.66370  0.78703  1.0000
  C   C2271     1.0  0.75683  0.69277  0.85844  1.0000
  C   C2272     1.0  0.76624  0.53156  0.85492  1.0000
  H   H2267     1.0  0.90265  0.79515  0.71161  1.0000
  S   S757      1.0  0.75562  0.58374  0.82772  1.0000
  C   C2273     1.0  0.80880  0.83168  0.69284  1.0000
  H   H2268     1.0  0.92467  0.73210  0.75798  1.0000
  H   H2269     1.0  0.78615  0.84598  0.65584  1.0000
  S   S758      1.0  0.78703  0.69957  0.93766  1.0000
  H   H2270     1.0  0.75040  0.92514  0.67710  1.0000
  S   S759      1.0  0.88963  0.87153  0.67627  1.0000
  H   H2271     1.0  0.97660  0.79576  0.82324  1.0000
  C   C2274     1.0  0.80758  0.74856  0.95427  1.0000
  H   H2272     1.0  0.94127  0.79157  0.71461  1.0000
  H   H2273     1.0  0.82747  0.68903  0.74156  1.0000
  N   N189      1.0  0.79802  0.75715  0.97080  1.0000
  Fe  Fe381     1.0  0.76048  0.71913  0.94899  1.0000
  H   H2274     1.0  0.87857  0.91443  0.67408  1.0000
  S   S760      1.0  0.98272  0.85198  0.72398  1.0000
  Fe  Fe382     1.0  0.76000  0.49693  0.78609  1.0000
  H   H2275     1.0  0.80351  0.67920  0.76980  1.0000
  C   C2275     1.0  0.80073  0.83023  0.67852  1.0000
  N   N190      1.0  0.80007  0.86611  0.68425  1.0000
  C   C2276     1.0  0.74445  0.90732  0.66179  1.0000
  C   C2277     1.0  0.80823  0.84984  0.69559  1.0000
  H   H2276     1.0  0.80156  0.52069  0.80698  1.0000
  H   H2277     1.0  0.76129  0.70357  0.88062  1.0000
  C   C2278     1.0  0.75193  0.62606  0.72203  1.0000
  C   C2279     1.0  0.80078  0.88509  0.68631  1.0000
  C   C2280     1.0  0.76195  0.69089  0.87573  1.0000
  S   S761      1.0  0.85023  0.87534  0.64731  1.0000
  H   H2278     1.0  0.95940  0.77446  0.73975  1.0000
  C   C2281     1.0  0.83058  0.94290  0.66170  1.0000
  C   C2282     1.0  0.91234  0.78210  0.70732  1.0000
  C   C2283     1.0  0.75526  0.91865  0.66487  1.0000
  H   H2279     1.0  0.75236  0.70692  0.85009  1.0000
  H   H2280     1.0  0.85977  0.94015  0.69096  1.0000
  H   H2281     1.0  0.79415  0.69592  0.81476  1.0000
  S   S762      1.0  0.74752  0.67942  0.83213  1.0000
  S   S763      1.0  0.76042  0.93113  0.70886  1.0000
  Fe  Fe383     1.0  0.77103  0.94961  0.68101  1.0000
  C   C2284     1.0  0.75669  0.67645  0.85235  1.0000
  C   C2285     1.0  0.94319  0.75214  0.75062  1.0000
  N   N191      1.0  0.92311  0.77153  0.72210  1.0000
  C   C2286     1.0  0.93758  0.77852  0.72410  1.0000
  C   C2287     1.0  0.91833  0.75518  0.73418  1.0000
  H   H2282     1.0  0.95431  0.78829  0.80814  1.0000
  H   H2283     1.0  0.81274  0.89036  0.67553  1.0000
  H   H2284     1.0  0.96940  0.81773  0.68221  1.0000
  C   C2288     1.0  0.86521  0.92269  0.67040  1.0000
  H   H2285     1.0  0.78741  0.89556  0.68415  1.0000
  C   C2289     1.0  0.75730  0.60082  0.74944  1.0000
  H   H2286     1.0  0.79901  0.73945  0.95202  1.0000
  H   H2287     1.0  0.82149  0.73907  0.95617  1.0000
  C   C2290     1.0  0.97745  0.80064  0.80801  1.0000
  C   C2291     1.0  0.77881  0.76381  0.97394  1.0000
  S   S764      1.0  0.74368  0.97111  0.68020  1.0000
  N   N192      1.0  0.78218  0.51140  0.83255  1.0000
  H   H2288     1.0  0.96295  0.68259  0.81533  1.0000
  C   C2292     1.0  0.75385  0.51905  0.86381  1.0000
  C   C2293     1.0  0.75894  0.56809  0.81245  1.0000
  H   H2289     1.0  0.98265  0.69854  0.85643  1.0000
  C   C2294     1.0  0.76248  0.65820  0.86319  1.0000
  C   C2295     1.0  0.96494  0.79641  0.79949  1.0000
  Fe  Fe384     1.0  0.75655  0.65442  0.81752  1.0000
  S   S765      1.0  0.78361  0.96660  0.69369  1.0000
  C   C2296     1.0  0.74829  0.55372  0.81758  1.0000
  H   H2290     1.0  0.80142  0.81630  0.67587  1.0000
  C   C2297     1.0  0.76774  0.65633  0.88045  1.0000
  C   C2298     1.0  0.76718  0.67267  0.88690  1.0000
  H   H2291     1.0  0.98123  0.81761  0.75377  1.0000
  H   H2292     1.0  0.75016  0.92293  0.75412  1.0000
  H   H2293     1.0  0.79165  0.50142  0.80669  1.0000
  C   C2299     1.0  0.75597  0.50251  0.85714  1.0000
  H   H2294     1.0  0.98257  0.73966  0.81636  1.0000
  S   S766      1.0  0.78585  0.93569  0.65617  1.0000
  C   C2300     1.0  0.98020  0.81287  0.76904  1.0000
  H   H2295     1.0  0.78976  0.70608  0.97301  1.0000
  H   H2296     1.0  0.76345  0.79037  0.64862  1.0000
  H   H2297     1.0  0.78341  0.77177  0.65494  1.0000
  H   H2298     1.0  0.74424  0.52857  0.81084  1.0000
  H   H2299     1.0  0.77188  0.48591  0.83647  1.0000
  H   H2300     1.0  0.74645  0.49261  0.86389  1.0000
  H   H2301     1.0  0.74254  0.52227  0.87573  1.0000
  C   C2301     1.0  0.84475  0.84048  0.64518  1.0000
  C   C2302     1.0  0.75009  0.89934  0.64565  1.0000
  C   C2303     1.0  0.74262  0.59342  0.74772  1.0000
  S   S767      1.0  0.74369  0.71488  0.93006  1.0000
  H   H2302     1.0  0.82473  0.91357  0.64499  1.0000
  S   S768      1.0  0.74008  0.65570  0.75532  1.0000
  C   C2304     1.0  0.77865  0.78404  0.64371  1.0000
  H   H2303     1.0  0.84066  0.81350  0.64261  1.0000
  H   H2304     1.0  0.78675  0.79538  0.64163  1.0000
