data_image0
_chemical_formula_structural       H2CSH3C8H2NH2C3H3C2HCS2CH3CSHC3HNH3CH3C3HC3HCSHCHSC2H3FeCSCFeHC2HSCSH3FeCHC4HCHC3SH3C2NCSHCHSHFeHCHC2H4CH3C2NCHFeCSHNHC2HC2FeCHCFe2HCHSH2C3HCHCSFeC2HCNHCH2CSC2HSHCHCSHCSCHC2H2CHCSHCS2HCHFe2HSNC2NCH2CH4CHFeSH3C2HC3HFeSC2S2HCSH2SC2HSHC2SH2FeH3FeHCHCSHN2H3CFeCSC2H2C2H2C2SHC2FeHSHFeHNC2SH2C2HC2SHFeCH2SC3HCH3CH2C2HC2HNCHCH2FeC2H2SFeSCHSCHCHSCFeNFeCHCS2HSH2CHCHCHCSC5HCNCSHSH2C2H3FeCSC3FeH2C2H3NHC4HCSH2CSC2HCFeHCHNHCFeSHC2H5CSFeNHCSH3CFeC2H2NH2C3HSCHCSHSH2CH2SC2HCFeC4H3C2HSC2FeH2C2HCHSCHSHSHC2HCH3SH2CH2FeCSHFeCSHC2NCH3CHCHCHNH2C3HC2SHFeHC2H2C3HSHSHC2HSHCSHCFeCSHSH2C5FeC2H3SC2H4SC3SCHCHC2HCFeHCNCH2C2H2SCHSH2CHFeH3SFeCHSFeC4NHCHC2HSH2C2HCHFeH2C4SH2FeSH2SH2C2HSNH2S2C4SC2SC3SCHCHFeCHCHCFeHCH4FeH2SHCSCFeSFeSHCHS2NC2SCHCFeH
_chemical_formula_sum              "H288 C288 S96 N24 Fe48"
_cell_length_a       19.701
_cell_length_b       29.9483
_cell_length_c       18.9582
_cell_angle_alpha    83.4756
_cell_angle_beta     94.348
_cell_angle_gamma    103.367

_space_group_name_H-M_alt    "P 1"
_space_group_IT_number       1

loop_
  _space_group_symop_operation_xyz
  'x, y, z'

loop_
  _atom_site_type_symbol
  _atom_site_label
  _atom_site_symmetry_multiplicity
  _atom_site_fract_x
  _atom_site_fract_y
  _atom_site_fract_z
  _atom_site_occupancy
  H   H1        1.0  0.79102  0.16170  0.04737  1.0000
  H   H2        1.0  0.60916  0.26750  0.09460  1.0000
  C   C1        1.0  0.72085  0.11643  0.15312  1.0000
  S   S1        1.0  0.41544  0.26233  0.04622  1.0000
  H   H3        1.0  0.48188  0.35593  0.07601  1.0000
  H   H4        1.0  0.58020  0.42026  0.14860  1.0000
  H   H5        1.0  0.56343  0.07004  0.02093  1.0000
  C   C2        1.0  0.48220  0.14805  0.11251  1.0000
  C   C3        1.0  0.76794  0.18566  0.07383  1.0000
  C   C4        1.0  0.77032  0.95588  0.05087  1.0000
  C   C5        1.0  0.58095  0.01073  0.97775  1.0000
  C   C6        1.0  0.90792  0.40973  0.11149  1.0000
  C   C7        1.0  0.60032  0.05587  0.99628  1.0000
  C   C8        1.0  0.71422  0.06447  0.94957  1.0000
  C   C9        1.0  0.73026  0.38478  0.02258  1.0000
  H   H6        1.0  0.73665  0.09535  0.11724  1.0000
  H   H7        1.0  0.69382  0.36933  0.06307  1.0000
  N   N1        1.0  0.53169  0.22142  0.15662  1.0000
  H   H8        1.0  0.42265  0.40747  0.13955  1.0000
  H   H9        1.0  0.72639  0.43372  0.16161  1.0000
  C   C10       1.0  0.47396  0.35523  0.01900  1.0000
  C   C11       1.0  0.52430  0.16059  0.05434  1.0000
  C   C12       1.0  0.89176  0.05095  0.15455  1.0000
  H   H10       1.0  0.78419  0.99297  0.05312  1.0000
  H   H11       1.0  0.81122  0.21533  0.08480  1.0000
  H   H12       1.0  0.87875  0.39708  0.15862  1.0000
  C   C13       1.0  0.44286  0.31364  0.99062  1.0000
  C   C14       1.0  0.57413  0.23365  0.10049  1.0000
  H   H13       1.0  0.88270  0.97771  0.15728  1.0000
  C   C15       1.0  0.48655  0.17908  0.16349  1.0000
  S   S2        1.0  0.90332  0.14348  0.15123  1.0000
  S   S3        1.0  0.49561  0.97937  0.99032  1.0000
  C   C16       1.0  0.62876  0.99191  0.94660  1.0000
  H   H14       1.0  0.72839  0.22733  0.17509  1.0000
  H   H15       1.0  0.72882  0.19828  0.03681  1.0000
  H   H16       1.0  0.44543  0.11487  0.11738  1.0000
  C   C17       1.0  0.75088  0.43290  0.01031  1.0000
  S   S4        1.0  0.72608  0.29660  0.99572  1.0000
  H   H17       1.0  0.60466  0.21333  0.00417  1.0000
  C   C18       1.0  0.66661  0.08284  0.98160  1.0000
  C   C19       1.0  0.75535  0.35673  0.98149  1.0000
  C   C20       1.0  0.57147  0.20330  0.04889  1.0000
  H   H18       1.0  0.82042  0.95873  0.95280  1.0000
  N   N2        1.0  0.73539  0.16345  0.13965  1.0000
  H   H19       1.0  0.68081  0.11769  0.99560  1.0000
  H   H20       1.0  0.51467  0.42848  0.99529  1.0000
  H   H21       1.0  0.51960  0.13755  0.01305  1.0000
  C   C21       1.0  0.49259  0.39622  0.97339  1.0000
  H   H22       1.0  0.41291  0.97219  0.12078  1.0000
  H   H23       1.0  0.51163  0.28429  0.18102  1.0000
  H   H24       1.0  0.90894  0.34225  0.08540  1.0000
  C   C22       1.0  0.87219  0.00515  0.18425  1.0000
  C   C23       1.0  0.71694  0.19002  0.18586  1.0000
  C   C24       1.0  0.84367  0.42554  0.30024  1.0000
  H   H25       1.0  0.61381  0.40717  0.37605  1.0000
  C   C25       1.0  0.54268  0.07483  0.40832  1.0000
  C   C26       1.0  0.61467  0.42836  0.32559  1.0000
  C   C27       1.0  0.77567  0.34975  0.27617  1.0000
  H   H26       1.0  0.66972  0.19062  0.28515  1.0000
  C   C28       1.0  0.43205  0.40781  0.31947  1.0000
  S   S5        1.0  0.53393  0.28665  0.38483  1.0000
  H   H27       1.0  0.57850  0.37078  0.26332  1.0000
  C   C29       1.0  0.59601  0.43575  0.19797  1.0000
  H   H28       1.0  0.58713  0.26780  0.22928  1.0000
  S   S6        1.0  0.65758  0.98398  0.35679  1.0000
  C   C30       1.0  0.66917  0.12164  0.26229  1.0000
  C   C31       1.0  0.82472  0.03037  0.28283  1.0000
  H   H29       1.0  0.83711  0.10372  0.28210  1.0000
  H   H30       1.0  0.50270  0.06140  0.36889  1.0000
  H   H31       1.0  0.50009  0.23954  0.25300  1.0000
  Fe  Fe1       1.0  0.42460  0.29311  0.35421  1.0000
  C   C32       1.0  0.83692  0.99474  0.24731  1.0000
  S   S7        1.0  0.75679  0.28969  0.29442  1.0000
  C   C33       1.0  0.56171  0.12211  0.41479  1.0000
  Fe  Fe2       1.0  0.48697  0.21131  0.40505  1.0000
  H   H32       1.0  0.64427  0.10529  0.31056  1.0000
  C   C34       1.0  0.84648  0.07637  0.25436  1.0000
  C   C35       1.0  0.68737  0.09483  0.21446  1.0000
  H   H33       1.0  0.80009  0.02266  0.33307  1.0000
  S   S8        1.0  0.86587  0.19524  0.33020  1.0000
  C   C36       1.0  0.59515  0.40798  0.26237  1.0000
  S   S9        1.0  0.52553  0.15923  0.35332  1.0000
  H   H34       1.0  0.85826  0.36183  0.35789  1.0000
  H   H35       1.0  0.42671  0.38466  0.36759  1.0000
  H   H36       1.0  0.67674  0.05757  0.22541  1.0000
  Fe  Fe3       1.0  0.85735  0.26740  0.29415  1.0000
  C   C37       1.0  0.82908  0.37739  0.31519  1.0000
  H   H37       1.0  0.71378  0.31177  0.42696  1.0000
  C   C38       1.0  0.42332  0.39057  0.25324  1.0000
  C   C39       1.0  0.68372  0.16954  0.24800  1.0000
  C   C40       1.0  0.73831  0.37008  0.22104  1.0000
  C   C41       1.0  0.42958  0.42088  0.19091  1.0000
  H   H38       1.0  0.69745  0.34869  0.19049  1.0000
  C   C42       1.0  0.53297  0.25497  0.20752  1.0000
  H   H39       1.0  0.45282  0.16937  0.20798  1.0000
  C   C43       1.0  0.75473  0.41804  0.20451  1.0000
  C   C44       1.0  0.80622  0.44588  0.24495  1.0000
  C   C45       1.0  0.87904  0.08657  0.18966  1.0000
  S   S10       1.0  0.89684  0.26596  0.18757  1.0000
  H   H40       1.0  0.82878  0.04267  0.54791  1.0000
  H   H41       1.0  0.44020  0.10949  0.60112  1.0000
  H   H42       1.0  0.70561  0.39977  0.60436  1.0000
  C   C46       1.0  0.86910  0.02353  0.53957  1.0000
  C   C47       1.0  0.48738  0.09578  0.59693  1.0000
  N   N3        1.0  0.79612  0.30576  0.50433  1.0000
  C   C48       1.0  0.60269  0.39236  0.55301  1.0000
  S   S11       1.0  0.47021  0.21475  0.51972  1.0000
  H   H43       1.0  0.83179  0.36423  0.56331  1.0000
  C   C49       1.0  0.72777  0.31617  0.48401  1.0000
  H   H44       1.0  0.48124  0.07704  0.54879  1.0000
  S   S12       1.0  0.58379  0.33227  0.57086  1.0000
  H   H45       1.0  0.50354  0.39616  0.49897  1.0000
  Fe  Fe4       1.0  0.66255  0.96654  0.47490  1.0000
  H   H46       1.0  0.68722  0.29255  0.51668  1.0000
  C   C50       1.0  0.64825  0.10905  0.50837  1.0000
  H   H47       1.0  0.77278  0.24448  0.45132  1.0000
  C   C51       1.0  0.61336  0.13929  0.46594  1.0000
  C   C52       1.0  0.66791  0.41747  0.57639  1.0000
  H   H48       1.0  0.86897  0.02150  0.48131  1.0000
  H   H49       1.0  0.72705  0.35226  0.49199  1.0000
  H   H50       1.0  0.45445  0.18958  0.68249  1.0000
  H   H51       1.0  0.62823  0.17596  0.47088  1.0000
  C   C53       1.0  0.81063  0.26665  0.48415  1.0000
  H   H52       1.0  0.56096  0.00830  0.44589  1.0000
  H   H53       1.0  0.53177  0.12638  0.59108  1.0000
  H   H54       1.0  0.60942  0.07926  0.65009  1.0000
  C   C54       1.0  0.84344  0.33357  0.54624  1.0000
  C   C55       1.0  0.57636  0.04475  0.45148  1.0000
  N   N4        1.0  0.49919  0.06509  0.66028  1.0000
  C   C56       1.0  0.55424  0.41542  0.51664  1.0000
  H   H55       1.0  0.44353  0.35826  0.65877  1.0000
  Fe  Fe5       1.0  0.50723  0.29142  0.49596  1.0000
  C   C57       1.0  0.63056  0.06179  0.50000  1.0000
  S   S13       1.0  0.67869  0.02394  0.54529  1.0000
  H   H56       1.0  0.69020  0.12246  0.54585  1.0000
  N   N5        1.0  0.85487  0.97720  0.57777  1.0000
  H   H57       1.0  0.88557  0.22348  0.49026  1.0000
  C   C58       1.0  0.87417  0.25465  0.50574  1.0000
  C   C59       1.0  0.81184  0.96692  0.63362  1.0000
  H   H58       1.0  0.78659  0.99264  0.64912  1.0000
  C   C60       1.0  0.56553  0.06031  0.68043  1.0000
  C   C61       1.0  0.90770  0.32286  0.56807  1.0000
  Fe  Fe6       1.0  0.78349  0.16802  0.88389  1.0000
  C   C62       1.0  0.91082  0.41741  0.75372  1.0000
  H   H59       1.0  0.52927  0.23437  0.82107  1.0000
  C   C63       1.0  0.82311  0.42523  0.91704  1.0000
  Fe  Fe7       1.0  0.69551  0.21371  0.77263  1.0000
  Fe  Fe8       1.0  0.75249  0.26026  0.90787  1.0000
  H   H60       1.0  0.63265  0.43263  0.77492  1.0000
  C   C64       1.0  0.60576  0.33777  0.88108  1.0000
  H   H61       1.0  0.60323  0.12563  0.80846  1.0000
  S   S14       1.0  0.68440  0.19162  0.88864  1.0000
  H   H62       1.0  0.85689  0.35320  0.71495  1.0000
  H   H63       1.0  0.50901  0.07970  0.88305  1.0000
  C   C65       1.0  0.53547  0.16170  0.74210  1.0000
  C   C66       1.0  0.49724  0.10389  0.83964  1.0000
  C   C67       1.0  0.52209  0.00958  0.78309  1.0000
  H   H64       1.0  0.44119  0.35261  0.81501  1.0000
  C   C68       1.0  0.55059  0.13041  0.79815  1.0000
  H   H65       1.0  0.55724  0.27179  0.93348  1.0000
  C   C69       1.0  0.90404  0.37134  0.74129  1.0000
  S   S15       1.0  0.79045  0.18576  0.76650  1.0000
  Fe  Fe9       1.0  0.84941  0.25508  0.79461  1.0000
  C   C70       1.0  0.65901  0.41172  0.81560  1.0000
  C   C71       1.0  0.57363  0.29641  0.75574  1.0000
  H   H66       1.0  0.61589  0.35384  0.93029  1.0000
  C   C72       1.0  0.57810  0.03276  0.74251  1.0000
  N   N6        1.0  0.62300  0.36302  0.81770  1.0000
  H   H67       1.0  0.82028  0.35562  0.89541  1.0000
  C   C73       1.0  0.80131  0.37698  0.92809  1.0000
  H   H68       1.0  0.65811  0.42566  0.86734  1.0000
  H   H69       1.0  0.85884  0.44098  0.87615  1.0000
  C   C74       1.0  0.60795  0.34284  0.75560  1.0000
  S   S16       1.0  0.60357  0.19784  0.69530  1.0000
  C   C75       1.0  0.42846  0.10799  0.82434  1.0000
  C   C76       1.0  0.45066  0.35365  0.87185  1.0000
  H   H70       1.0  0.53120  0.99051  0.83339  1.0000
  S   S17       1.0  0.79691  0.09848  0.93072  1.0000
  H   H71       1.0  0.56157  0.28063  0.70619  1.0000
  C   C77       1.0  0.45432  0.01279  0.76031  1.0000
  H   H72       1.0  0.71427  0.41597  0.80246  1.0000
  C   C78       1.0  0.46641  0.16549  0.72600  1.0000
  S   S18       1.0  0.75484  0.28513  0.79191  1.0000
  H   H73       1.0  0.63105  0.03072  0.76029  1.0000
  C   C79       1.0  0.43280  0.31321  0.91715  1.0000
  S   S19       1.0  0.85125  0.23508  0.91206  1.0000
  C   C80       1.0  0.55595  0.27039  0.82012  1.0000
  H   H74       1.0  0.73152  0.00507  0.90579  1.0000
  C   C81       1.0  0.57247  0.29110  0.88326  1.0000
  C   C82       1.0  0.47998  0.39526  0.89967  1.0000
  H   H75       1.0  0.86858  0.43451  0.73773  1.0000
  H   H76       1.0  0.62245  0.36272  0.70561  1.0000
  C   C83       1.0  0.44382  0.04095  0.69845  1.0000
  H   H77       1.0  0.41176  0.28180  0.89431  1.0000
  C   C84       1.0  0.41281  0.13870  0.76743  1.0000
  S   S20       1.0  0.50069  0.44461  0.83970  1.0000
  H   H78       1.0  0.61419  0.95685  0.93255  1.0000
  C   C85       1.0  0.69528  0.01901  0.93195  1.0000
  S   S21       1.0  0.82327  0.51353  0.94333  1.0000
  S   S22       1.0  0.54080  0.85951  0.01254  1.0000
  H   H79       1.0  0.82723  0.63235  0.04505  1.0000
  C   C86       1.0  0.73240  0.92694  0.10440  1.0000
  H   H80       1.0  0.73146  0.45445  0.04206  1.0000
  Fe  Fe10      1.0  0.43803  0.80811  0.00946  1.0000
  Fe  Fe11      1.0  0.61646  0.58043  0.98174  1.0000
  H   H81       1.0  0.44983  0.60513  0.97482  1.0000
  S   S23       1.0  0.63263  0.50843  0.98648  1.0000
  N   N7        1.0  0.88571  0.60182  0.12654  1.0000
  C   C87       1.0  0.79051  0.93672  0.99446  1.0000
  C   C88       1.0  0.79779  0.45321  0.95807  1.0000
  N   N8        1.0  0.71540  0.88018  0.10189  1.0000
  C   C89       1.0  0.61669  0.67149  0.16819  1.0000
  H   H82       1.0  0.80694  0.56998  0.05333  1.0000
  H   H83       1.0  0.61608  0.50531  0.14787  1.0000
  C   C90       1.0  0.77219  0.88911  0.99179  1.0000
  H   H84       1.0  0.78712  0.87404  0.94753  1.0000
  H   H85       1.0  0.71732  0.94206  0.14846  1.0000
  H   H86       1.0  0.45437  0.49232  0.14742  1.0000
  H   H87       1.0  0.63172  0.86317  0.17155  1.0000
  C   C91       1.0  0.70189  0.66815  0.08519  1.0000
  H   H88       1.0  0.77649  0.59869  0.11734  1.0000
  Fe  Fe12      1.0  0.48101  0.90892  0.95635  1.0000
  S   S24       1.0  0.57783  0.60484  0.07587  1.0000
  H   H89       1.0  0.71653  0.65357  0.04139  1.0000
  H   H90       1.0  0.66064  0.81429  0.14825  1.0000
  H   H91       1.0  0.72118  0.82403  0.04407  1.0000
  C   C92       1.0  0.82083  0.60090  0.08333  1.0000
  C   C93       1.0  0.67843  0.85072  0.16052  1.0000
  H   H92       1.0  0.80132  0.71514  0.09559  1.0000
  C   C94       1.0  0.73049  0.72450  0.17080  1.0000
  C   C95       1.0  0.73467  0.86109  0.04644  1.0000
  C   C96       1.0  0.63580  0.65146  0.11171  1.0000
  H   H93       1.0  0.46162  0.66575  0.05489  1.0000
  Fe  Fe13      1.0  0.87974  0.79077  0.13434  1.0000
  S   S25       1.0  0.86313  0.79679  0.01562  1.0000
  C   C97       1.0  0.74969  0.70379  0.11547  1.0000
  C   C98       1.0  0.63318  0.65957  0.42172  1.0000
  S   S26       1.0  0.47043  0.94228  0.29122  1.0000
  S   S27       1.0  0.80512  0.93701  0.27884  1.0000
  H   H94       1.0  0.44244  0.70946  0.29411  1.0000
  C   C99       1.0  0.49794  0.72639  0.28503  1.0000
  S   S28       1.0  0.79509  0.48685  0.42660  1.0000
  H   H95       1.0  0.50473  0.76321  0.29428  1.0000
  H   H96       1.0  0.87462  0.77462  0.35006  1.0000
  S   S29       1.0  0.78932  0.77115  0.20525  1.0000
  C   C100      1.0  0.63412  0.47643  0.32345  1.0000
  C   C101      1.0  0.57606  0.63370  0.38526  1.0000
  H   H97       1.0  0.43829  0.85319  0.36739  1.0000
  S   S30       1.0  0.82110  0.50606  0.22859  1.0000
  H   H98       1.0  0.61964  0.57005  0.22151  1.0000
  C   C102      1.0  0.90252  0.84832  0.32504  1.0000
  C   C103      1.0  0.61635  0.48373  0.19782  1.0000
  S   S31       1.0  0.81853  0.59543  0.36421  1.0000
  H   H99       1.0  0.64916  0.72484  0.23933  1.0000
  H   H100      1.0  0.61192  0.76652  0.36085  1.0000
  Fe  Fe14      1.0  0.56314  0.92609  0.35636  1.0000
  H   H101      1.0  0.45360  0.46862  0.37504  1.0000
  H   H102      1.0  0.65318  0.56548  0.31146  1.0000
  H   H103      1.0  0.71406  0.85142  0.20900  1.0000
  Fe  Fe15      1.0  0.84726  0.53197  0.33536  1.0000
  H   H104      1.0  0.84886  0.85210  0.32038  1.0000
  C   C104      1.0  0.53234  0.65642  0.34036  1.0000
  H   H105      1.0  0.70953  0.56567  0.24008  1.0000
  C   C105      1.0  0.44776  0.46865  0.19525  1.0000
  S   S32       1.0  0.62380  0.87314  0.34214  1.0000
  H   H106      1.0  0.50833  0.72482  0.22863  1.0000
  N   N9        1.0  0.63423  0.50341  0.26018  1.0000
  N   N10       1.0  0.54460  0.70354  0.33272  1.0000
  H   H107      1.0  0.64832  0.49204  0.37275  1.0000
  H   H108      1.0  0.48876  0.63611  0.31141  1.0000
  H   H109      1.0  0.56558  0.59624  0.39186  1.0000
  C   C106      1.0  0.64640  0.70760  0.41224  1.0000
  Fe  Fe16      1.0  0.71874  0.93038  0.35198  1.0000
  C   C107      1.0  0.60148  0.72916  0.36706  1.0000
  S   S33       1.0  0.47598  0.54470  0.26898  1.0000
  C   C108      1.0  0.45775  0.48568  0.26184  1.0000
  C   C109      1.0  0.44804  0.45536  0.32370  1.0000
  H   H110      1.0  0.88424  0.44683  0.33132  1.0000
  H   H111      1.0  0.85767  0.63923  0.20474  1.0000
  C   C110      1.0  0.66393  0.70841  0.19718  1.0000
  C   C111      1.0  0.65558  0.55372  0.25838  1.0000
  H   H112      1.0  0.51455  0.81431  0.43544  1.0000
  H   H113      1.0  0.56539  0.65859  0.18888  1.0000
  C   C112      1.0  0.89683  0.62305  0.18792  1.0000
  C   C113      1.0  0.54793  0.75979  0.50245  1.0000
  S   S34       1.0  0.73265  0.91787  0.47005  1.0000
  H   H114      1.0  0.69156  0.74985  0.67394  1.0000
  C   C114      1.0  0.87426  0.90024  0.59375  1.0000
  C   C115      1.0  0.44704  0.77502  0.62748  1.0000
  Fe  Fe17      1.0  0.63397  0.86372  0.46143  1.0000
  H   H115      1.0  0.76429  0.56792  0.63613  1.0000
  S   S35       1.0  0.56420  0.91136  0.47530  1.0000
  H   H116      1.0  0.66696  0.64245  0.45750  1.0000
  Fe  Fe18      1.0  0.77431  0.55124  0.46055  1.0000
  H   H117      1.0  0.56772  0.69835  0.56342  1.0000
  N   N11       1.0  0.42803  0.85199  0.61119  1.0000
  C   C116      1.0  0.83025  0.88933  0.65045  1.0000
  C   C117      1.0  0.41193  0.80764  0.59333  1.0000
  S   S36       1.0  0.87340  0.56642  0.52824  1.0000
  H   H118      1.0  0.87967  0.67309  0.51428  1.0000
  H   H119      1.0  0.86785  0.72555  0.60361  1.0000
  C   C118      1.0  0.46497  0.68577  0.51014  1.0000
  C   C119      1.0  0.48213  0.86581  0.65922  1.0000
  H   H120      1.0  0.49564  0.90112  0.67264  1.0000
  C   C120      1.0  0.41684  0.70563  0.46688  1.0000
  C   C121      1.0  0.63824  0.48852  0.52383  1.0000
  S   S37       1.0  0.66652  0.54698  0.49400  1.0000
  H   H121      1.0  0.51190  0.61232  0.65001  1.0000
  Fe  Fe19      1.0  0.89786  0.50511  0.48640  1.0000
  C   C122      1.0  0.79425  0.58418  0.68057  1.0000
  H   H122      1.0  0.45092  0.64990  0.53077  1.0000
  H   H123      1.0  0.53505  0.48169  0.47385  1.0000
  S   S38       1.0  0.62955  0.79454  0.52251  1.0000
  C   C123      1.0  0.53060  0.71313  0.52876  1.0000
  C   C124      1.0  0.50174  0.78862  0.67708  1.0000
  C   C125      1.0  0.50075  0.77866  0.45674  1.0000
  H   H124      1.0  0.76601  0.64905  0.65101  1.0000
  C   C126      1.0  0.57177  0.46374  0.50297  1.0000
  H   H125      1.0  0.73755  0.48427  0.57694  1.0000
  H   H126      1.0  0.41584  0.90561  0.53121  1.0000
  H   H127      1.0  0.44744  0.64286  0.67016  1.0000
  C   C127      1.0  0.68593  0.46537  0.56114  1.0000
  H   H128      1.0  0.43168  0.73945  0.61542  1.0000
  H   H129      1.0  0.89840  0.87432  0.57711  1.0000
  C   C128      1.0  0.88654  0.94471  0.55821  1.0000
  C   C129      1.0  0.79880  0.92282  0.67076  1.0000
  H   H130      1.0  0.82047  0.85489  0.67835  1.0000
  C   C130      1.0  0.43543  0.75156  0.43887  1.0000
  C   C131      1.0  0.46968  0.61204  0.68587  1.0000
  H   H131      1.0  0.69004  0.72817  0.44112  1.0000
  N   N12       1.0  0.41574  0.56929  0.68282  1.0000
  C   C132      1.0  0.86777  0.58047  0.78765  1.0000
  H   H132      1.0  0.89379  0.64196  0.84141  1.0000
  C   C133      1.0  0.51993  0.83441  0.69268  1.0000
  H   H133      1.0  0.60430  0.67434  0.86516  1.0000
  H   H134      1.0  0.69677  0.82326  0.72497  1.0000
  Fe  Fe20      1.0  0.72569  0.54008  0.92259  1.0000
  C   C134      1.0  0.62451  0.74818  0.86183  1.0000
  C   C135      1.0  0.67676  0.79077  0.75560  1.0000
  H   H135      1.0  0.60541  0.74767  0.91403  1.0000
  H   H136      1.0  0.83159  0.52374  0.72386  1.0000
  S   S39       1.0  0.66715  0.53238  0.81746  1.0000
  Fe  Fe21      1.0  0.57328  0.50515  0.88153  1.0000
  S   S40       1.0  0.45535  0.78420  0.90510  1.0000
  C   C136      1.0  0.86651  0.62610  0.79561  1.0000
  H   H137      1.0  0.89644  0.56137  0.82643  1.0000
  S   S41       1.0  0.49984  0.89387  0.84797  1.0000
  C   C137      1.0  0.64833  0.70719  0.76650  1.0000
  H   H138      1.0  0.76427  0.91458  0.71474  1.0000
  C   C138      1.0  0.42316  0.53041  0.72535  1.0000
  H   H139      1.0  0.88515  0.71996  0.75345  1.0000
  S   S42       1.0  0.65484  0.84216  0.85796  1.0000
  C   C139      1.0  0.83127  0.69830  0.75669  1.0000
  Fe  Fe22      1.0  0.64603  0.60159  0.82535  1.0000
  N   N13       1.0  0.83074  0.65036  0.74675  1.0000
  Fe  Fe23      1.0  0.55289  0.84061  0.90396  1.0000
  C   C140      1.0  0.62385  0.70666  0.83408  1.0000
  H   H140      1.0  0.53005  0.76377  0.70319  1.0000
  C   C141      1.0  0.65205  0.79019  0.82306  1.0000
  S   S43       1.0  0.71448  0.61266  0.92427  1.0000
  S   S44       1.0  0.54751  0.57387  0.88214  1.0000
  H   H141      1.0  0.81114  0.70004  0.80937  1.0000
  S   S45       1.0  0.65006  0.65539  0.73306  1.0000
  H   H142      1.0  0.56256  0.84537  0.73098  1.0000
  H   H143      1.0  0.49315  0.61550  0.74067  1.0000
  C   C142      1.0  0.67361  0.74926  0.72670  1.0000
  H   H144      1.0  0.79741  0.71338  0.71571  1.0000
  C   C143      1.0  0.83130  0.55935  0.72987  1.0000
  H   H145      1.0  0.46853  0.53077  0.76143  1.0000
  C   C144      1.0  0.79526  0.63012  0.68941  1.0000
  H   H146      1.0  0.24965  0.41310  0.14265  1.0000
  C   C145      1.0  0.01370  0.19575  0.00650  1.0000
  S   S46       1.0  0.07005  0.34319  0.15590  1.0000
  C   C146      1.0  0.98443  0.97435  0.97942  1.0000
  C   C147      1.0  0.03055  0.01335  0.08411  1.0000
  C   C148      1.0  0.27033  0.36404  0.07775  1.0000
  C   C149      1.0  0.98297  0.36140  0.96954  1.0000
  C   C150      1.0  0.05989  0.05297  0.04085  1.0000
  H   H147      1.0  0.27958  0.38839  0.03069  1.0000
  C   C151      1.0  0.30855  0.97687  0.01852  1.0000
  N   N14       1.0  0.30678  0.95146  0.08340  1.0000
  C   C152      1.0  0.99239  0.97429  0.05330  1.0000
  S   S47       1.0  0.22163  0.21378  0.98146  1.0000
  H   H148      1.0  0.95390  0.12550  0.01249  1.0000
  S   S48       1.0  0.30836  0.13405  0.02408  1.0000
  H   H149      1.0  0.35742  0.98968  0.99230  1.0000
  H   H150      1.0  0.07155  0.26574  0.98290  1.0000
  C   C153      1.0  0.98184  0.44051  0.99008  1.0000
  C   C154      1.0  0.97826  0.15540  0.97787  1.0000
  H   H151      1.0  0.03791  0.01252  0.14126  1.0000
  H   H152      1.0  0.27102  0.25267  0.13562  1.0000
  H   H153      1.0  0.91708  0.05872  0.10452  1.0000
  Fe  Fe24      1.0  0.19611  0.13712  0.00253  1.0000
  C   C155      1.0  0.92562  0.37878  0.07018  1.0000
  S   S49       1.0  0.11633  0.09912  0.07899  1.0000
  C   C156      1.0  0.08691  0.40147  0.17029  1.0000
  C   C157      1.0  0.27667  0.31879  0.07589  1.0000
  C   C158      1.0  0.25330  0.37773  0.14108  1.0000
  Fe  Fe25      1.0  0.33430  0.20995  0.99030  1.0000
  H   H154      1.0  0.13652  0.97877  0.99229  1.0000
  H   H155      1.0  0.03665  0.37486  0.95075  1.0000
  C   C159      1.0  0.26411  0.28750  0.13625  1.0000
  C   C160      1.0  0.11105  0.43497  0.11468  1.0000
  H   H156      1.0  0.98291  0.32800  0.00178  1.0000
  H   H157      1.0  0.29238  0.30805  0.02814  1.0000
  H   H158      1.0  0.11718  0.42474  0.06301  1.0000
  N   N15       1.0  0.96377  0.39437  0.01149  1.0000
  H   H159      1.0  0.01751  0.19709  0.06365  1.0000
  C   C161      1.0  0.24737  0.98700  0.98485  1.0000
  C   C162      1.0  0.18419  0.97097  0.01786  1.0000
  C   C163      1.0  0.04658  0.05442  0.96723  1.0000
  C   C164      1.0  0.04383  0.23416  0.96129  1.0000
  H   H160      1.0  0.95775  0.05979  0.34316  1.0000
  C   C165      1.0  0.18723  0.12017  0.39038  1.0000
  S   S50       1.0  0.40779  0.33128  0.24832  1.0000
  H   H161      1.0  0.08782  0.14917  0.19354  1.0000
  H   H162      1.0  0.27056  0.35809  0.30811  1.0000
  C   C166      1.0  0.22774  0.36187  0.26778  1.0000
  S   S51       1.0  0.37864  0.21734  0.36813  1.0000
  C   C167      1.0  0.18771  0.05442  0.32806  1.0000
  C   C168      1.0  0.13975  0.06846  0.27699  1.0000
  H   H163      1.0  0.02129  0.13025  0.25801  1.0000
  C   C169      1.0  0.21086  0.08024  0.38552  1.0000
  Fe  Fe26      1.0  0.00243  0.29511  0.23518  1.0000
  H   H164      1.0  0.03569  0.09104  0.20078  1.0000
  C   C170      1.0  0.98290  0.11937  0.40175  1.0000
  H   H165      1.0  0.33987  0.96663  0.30897  1.0000
  N   N16       1.0  0.11495  0.10675  0.28370  1.0000
  H   H166      1.0  0.17725  0.34076  0.28708  1.0000
  C   C171      1.0  0.24589  0.30211  0.19827  1.0000
  Fe  Fe27      1.0  0.97429  0.22814  0.37002  1.0000
  S   S52       1.0  0.02404  0.22568  0.26862  1.0000
  H   H167      1.0  0.12189  0.04842  0.23233  1.0000
  C   C172      1.0  0.07971  0.41476  0.23716  1.0000
  C   C173      1.0  0.06275  0.12012  0.23146  1.0000
  H   H168      1.0  0.12018  0.16374  0.34369  1.0000
  H   H169      1.0  0.23849  0.27809  0.24575  1.0000
  H   H170      1.0  0.06128  0.38905  0.28039  1.0000
  H   H171      1.0  0.20616  0.02350  0.32369  1.0000
  H   H172      1.0  0.22391  0.39854  0.26203  1.0000
  C   C174      1.0  0.13946  0.13322  0.33839  1.0000
  S   S53       1.0  0.96232  0.30123  0.34098  1.0000
  Fe  Fe28      1.0  0.91561  0.19687  0.22733  1.0000
  N   N17       1.0  0.24196  0.34693  0.20043  1.0000
  H   H173      1.0  0.06408  0.95156  0.27448  1.0000
  C   C175      1.0  0.98421  0.07441  0.39003  1.0000
  S   S54       1.0  0.02334  0.99334  0.41691  1.0000
  H   H174      1.0  0.95544  0.13888  0.36350  1.0000
  H   H175      1.0  0.24667  0.06919  0.42644  1.0000
  H   H176      1.0  0.20406  0.14026  0.43517  1.0000
  C   C176      1.0  0.15581  0.44006  0.52899  1.0000
  Fe  Fe29      1.0  0.36528  0.22701  0.48101  1.0000
  C   C177      1.0  0.29586  0.11040  0.55799  1.0000
  C   C178      1.0  0.39012  0.33931  0.64950  1.0000
  H   H177      1.0  0.39144  0.04503  0.68352  1.0000
  H   H178      1.0  0.14425  0.28235  0.62932  1.0000
  N   N18       1.0  0.25373  0.29039  0.62385  1.0000
  H   H179      1.0  0.08661  0.04819  0.53397  1.0000
  H   H180      1.0  0.17201  0.22912  0.63405  1.0000
  C   C179      1.0  0.28780  0.06532  0.59150  1.0000
  C   C180      1.0  0.01877  0.13925  0.46095  1.0000
  C   C181      1.0  0.05717  0.42722  0.60339  1.0000
  H   H181      1.0  0.03497  0.41681  0.65456  1.0000
  S   S55       1.0  0.26895  0.19701  0.54087  1.0000
  C   C182      1.0  0.36918  0.29336  0.67734  1.0000
  H   H182      1.0  0.15667  0.41223  0.63893  1.0000
  C   C183      1.0  0.30037  0.26931  0.66401  1.0000
  S   S56       1.0  0.18900  0.95932  0.50961  1.0000
  H   H183      1.0  0.20384  0.15299  0.66874  1.0000
  S   S57       1.0  0.02009  0.19721  0.47102  1.0000
  H   H184      1.0  0.94498  0.34504  0.60134  1.0000
  H   H185      1.0  0.92086  0.04360  0.55792  1.0000
  C   C184      1.0  0.05687  0.06778  0.49747  1.0000
  H   H186      1.0  0.23658  0.35182  0.56494  1.0000
  H   H187      1.0  0.31025  0.04059  0.56940  1.0000
  S   S58       1.0  0.40108  0.30404  0.46422  1.0000
  C   C185      1.0  0.12609  0.42470  0.59448  1.0000
  C   C186      1.0  0.05549  0.11322  0.50937  1.0000
  H   H188      1.0  0.17167  0.26328  0.55046  1.0000
  C   C187      1.0  0.22807  0.12885  0.64745  1.0000
  Fe  Fe30      1.0  0.07350  0.95236  0.50186  1.0000
  C   C188      1.0  0.25228  0.05263  0.65464  1.0000
  C   C189      1.0  0.92299  0.28307  0.54786  1.0000
  C   C190      1.0  0.26492  0.14191  0.58535  1.0000
  C   C191      1.0  0.27372  0.33541  0.59674  1.0000
  H   H189      1.0  0.97237  0.27409  0.56528  1.0000
  H   H190      1.0  0.08438  0.12854  0.55486  1.0000
  H   H191      1.0  0.32467  0.12055  0.51023  1.0000
  C   C192      1.0  0.18182  0.26516  0.60864  1.0000
  C   C193      1.0  0.34205  0.36061  0.60912  1.0000
  H   H192      1.0  0.35746  0.39629  0.58694  1.0000
  S   S59       1.0  0.24483  0.44376  0.52016  1.0000
  C   C194      1.0  0.22308  0.08460  0.68289  1.0000
  C   C195      1.0  0.01774  0.44464  0.54693  1.0000
  Fe  Fe31      1.0  0.17436  0.94902  0.62688  1.0000
  H   H193      1.0  0.92041  0.95282  0.51389  1.0000
  H   H194      1.0  0.28454  0.23355  0.68552  1.0000
  C   C196      1.0  0.02141  0.04866  0.43714  1.0000
  C   C197      1.0  0.02787  0.41961  0.80474  1.0000
  H   H195      1.0  0.03005  0.22031  0.75421  1.0000
  C   C198      1.0  0.97286  0.44155  0.78524  1.0000
  H   H196      1.0  0.94673  0.12213  0.88257  1.0000
  S   S60       1.0  0.19199  0.12460  0.88757  1.0000
  C   C199      1.0  0.21421  0.30579  0.80899  1.0000
  H   H197      1.0  0.24913  0.00725  0.93343  1.0000
  S   S61       1.0  0.36281  0.07534  0.87759  1.0000
  H   H198      1.0  0.18922  0.41543  0.77466  1.0000
  S   S62       1.0  0.95002  0.29153  0.74838  1.0000
  H   H199      1.0  0.02740  0.16000  0.77245  1.0000
  C   C200      1.0  0.18755  0.34284  0.77565  1.0000
  C   C201      1.0  0.21108  0.38715  0.79910  1.0000
  H   H200      1.0  0.00166  0.01580  0.87914  1.0000
  C   C202      1.0  0.26595  0.31356  0.86333  1.0000
  H   H201      1.0  0.06171  0.26148  0.85285  1.0000
  H   H202      1.0  0.94563  0.35528  0.92287  1.0000
  H   H203      1.0  0.94695  0.18070  0.76247  1.0000
  S   S63       1.0  0.24353  0.99668  0.69778  1.0000
  H   H204      1.0  0.32939  0.36313  0.92858  1.0000
  H   H205      1.0  0.35930  0.14149  0.75507  1.0000
  C   C203      1.0  0.02079  0.37350  0.79276  1.0000
  H   H206      1.0  0.06451  0.08587  0.93399  1.0000
  H   H207      1.0  0.06239  0.35616  0.80962  1.0000
  Fe  Fe32      1.0  0.22569  0.20159  0.86756  1.0000
  C   C204      1.0  0.26208  0.39422  0.85489  1.0000
  S   S64       1.0  0.33908  0.20045  0.87538  1.0000
  H   H208      1.0  0.14742  0.33711  0.73330  1.0000
  Fe  Fe33      1.0  0.30531  0.12524  0.90827  1.0000
  C   C205      1.0  0.00208  0.18778  0.78360  1.0000
  S   S65       1.0  0.18154  0.24920  0.78619  1.0000
  H   H209      1.0  0.07568  0.43782  0.82985  1.0000
  C   C206      1.0  0.95918  0.34950  0.76065  1.0000
  C   C207      1.0  0.28950  0.35746  0.88622  1.0000
  N   N19       1.0  0.00512  0.19126  0.86033  1.0000
  C   C208      1.0  0.03857  0.23140  0.88780  1.0000
  H   H210      1.0  0.40588  0.27624  0.70865  1.0000
  H   H211      1.0  0.19567  0.07493  0.73161  1.0000
  H   H212      1.0  0.28840  0.28576  0.88772  1.0000
  C   C209      1.0  0.97445  0.15373  0.90425  1.0000
  H   H213      1.0  0.41044  0.99587  0.79242  1.0000
  C   C210      1.0  0.00943  0.01503  0.93635  1.0000
  H   H214      1.0  0.09894  0.69666  0.17633  1.0000
  C   C211      1.0  0.33343  0.57650  0.10194  1.0000
  H   H215      1.0  0.14684  0.50765  0.08296  1.0000
  N   N20       1.0  0.38342  0.60311  0.05924  1.0000
  H   H216      1.0  0.36386  0.92263  0.17152  1.0000
  H   H217      1.0  0.38992  0.91715  0.08492  1.0000
  C   C212      1.0  0.32794  0.78780  0.13277  1.0000
  C   C213      1.0  0.93579  0.58279  0.10378  1.0000
  C   C214      1.0  0.21269  0.80312  0.10206  1.0000
  H   H218      1.0  0.16905  0.80324  0.06405  1.0000
  C   C215      1.0  0.27184  0.78936  0.08320  1.0000
  C   C216      1.0  0.12787  0.48176  0.12586  1.0000
  S   S66       1.0  0.21611  0.62967  0.00196  1.0000
  H   H219      1.0  0.17845  0.71026  0.04046  1.0000
  Fe  Fe34      1.0  0.03895  0.81607  0.12690  1.0000
  H   H220      1.0  0.06738  0.73555  0.02652  1.0000
  C   C217      1.0  0.18279  0.94497  0.08387  1.0000
  C   C218      1.0  0.13600  0.64575  0.99737  1.0000
  H   H221      1.0  0.27330  0.77862  0.03084  1.0000
  H   H222      1.0  0.24365  0.91562  0.16765  1.0000
  C   C219      1.0  0.96448  0.47251  0.02971  1.0000
  C   C220      1.0  0.01407  0.63295  0.95621  1.0000
  C   C221      1.0  0.21989  0.67091  0.17910  1.0000
  H   H223      1.0  0.13379  0.93185  0.10965  1.0000
  S   S67       1.0  0.96026  0.74867  0.13726  1.0000
  H   H224      1.0  0.39667  0.66191  0.11755  1.0000
  S   S68       1.0  0.95917  0.85725  0.13519  1.0000
  H   H225      1.0  0.03696  0.56683  0.12681  1.0000
  C   C222      1.0  0.31156  0.52909  0.09687  1.0000
  C   C223      1.0  0.33950  0.50918  0.04615  1.0000
  H   H226      1.0  0.30927  0.59194  0.13940  1.0000
  S   S69       1.0  0.94739  0.92339  0.94035  1.0000
  H   H227      1.0  0.32235  0.47266  0.04042  1.0000
  C   C224      1.0  0.06945  0.70262  0.01019  1.0000
  S   S70       1.0  0.37734  0.85943  0.95998  1.0000
  H   H228      1.0  0.27277  0.50826  0.13173  1.0000
  C   C225      1.0  0.99771  0.58247  0.14476  1.0000
  Fe  Fe35      1.0  0.94831  0.75863  0.01838  1.0000
  C   C226      1.0  0.40501  0.65296  0.06411  1.0000
  S   S71       1.0  0.93524  0.69667  0.95875  1.0000
  H   H229      1.0  0.17555  0.64987  0.14922  1.0000
  S   S72       1.0  0.03359  0.82303  0.00794  1.0000
  H   H230      1.0  0.92732  0.56729  0.05398  1.0000
  H   H231      1.0  0.25239  0.69658  0.14144  1.0000
  C   C227      1.0  0.01097  0.67574  0.97684  1.0000
  C   C228      1.0  0.24502  0.93567  0.11621  1.0000
  C   C229      1.0  0.37122  0.94031  0.11688  1.0000
  C   C230      1.0  0.21057  0.81673  0.16988  1.0000
  C   C231      1.0  0.13225  0.68804  0.01915  1.0000
  Fe  Fe36      1.0  0.94888  0.86043  0.01617  1.0000
  C   C232      1.0  0.38950  0.53662  0.00198  1.0000
  C   C233      1.0  0.07634  0.61763  0.96763  1.0000
  H   H232      1.0  0.37415  0.67128  0.02406  1.0000
  H   H233      1.0  0.97829  0.50891  0.01158  1.0000
  H   H234      1.0  0.07840  0.58432  0.95235  1.0000
  S   S73       1.0  0.39947  0.76715  0.11099  1.0000
  C   C234      1.0  0.92761  0.45692  0.09117  1.0000
  C   C235      1.0  0.41087  0.58387  0.00919  1.0000
  H   H235      1.0  0.96873  0.94447  0.08690  1.0000
  H   H236      1.0  0.41093  0.52132  0.96201  1.0000
  H   H237      1.0  0.00919  0.45275  0.94176  1.0000
  H   H238      1.0  0.91285  0.48104  0.12234  1.0000
  S   S74       1.0  0.21899  0.55726  0.41386  1.0000
  C   C236      1.0  0.95797  0.62308  0.23062  1.0000
  C   C237      1.0  0.26788  0.81701  0.21826  1.0000
  C   C238      1.0  0.10742  0.72620  0.27551  1.0000
  S   S75       1.0  0.33472  0.60587  0.29856  1.0000
  C   C239      1.0  0.32593  0.80179  0.20033  1.0000
  H   H239      1.0  0.09380  0.83595  0.34059  1.0000
  C   C240      1.0  0.15059  0.73878  0.33507  1.0000
  H   H240      1.0  0.33412  0.81124  0.43337  1.0000
  C   C241      1.0  0.28046  0.90928  0.37457  1.0000
  C   C242      1.0  0.33842  0.93260  0.33587  1.0000
  H   H241      1.0  0.99791  0.76683  0.36168  1.0000
  C   C243      1.0  0.27943  0.86540  0.40947  1.0000
  Fe  Fe37      1.0  0.32278  0.60665  0.41426  1.0000
  H   H242      1.0  0.09582  0.47172  0.30124  1.0000
  C   C244      1.0  0.12400  0.49486  0.19356  1.0000
  N   N21       1.0  0.02519  0.88196  0.31731  1.0000
  C   C245      1.0  0.95761  0.88690  0.31381  1.0000
  H   H243      1.0  0.10563  0.93391  0.35756  1.0000
  H   H244      1.0  0.23670  0.92500  0.37709  1.0000
  C   C246      1.0  0.91700  0.80481  0.34169  1.0000
  C   C247      1.0  0.33577  0.84505  0.40621  1.0000
  H   H245      1.0  0.29026  0.69924  0.29788  1.0000
  H   H246      1.0  0.25090  0.73958  0.38868  1.0000
  S   S76       1.0  0.28930  0.49354  0.32469  1.0000
  C   C248      1.0  0.21655  0.72890  0.34321  1.0000
  H   H247      1.0  0.13735  0.46524  0.42022  1.0000
  S   S77       1.0  0.95257  0.54583  0.39232  1.0000
  H   H248      1.0  0.96585  0.63871  0.28040  1.0000
  H   H249      1.0  0.25123  0.64657  0.20324  1.0000
  C   C249      1.0  0.08264  0.92251  0.30553  1.0000
  H   H250      1.0  0.26673  0.82803  0.27042  1.0000
  Fe  Fe38      1.0  0.38757  0.54844  0.33171  1.0000
  H   H251      1.0  0.05679  0.73485  0.26809  1.0000
  H   H252      1.0  0.13374  0.75712  0.37410  1.0000
  H   H253      1.0  0.94586  0.92074  0.30205  1.0000
  S   S78       1.0  0.99678  0.67358  0.42737  1.0000
  Fe  Fe39      1.0  0.91977  0.60588  0.42919  1.0000
  C   C250      1.0  0.23840  0.70615  0.29161  1.0000
  H   H254      1.0  0.05495  0.60060  0.24268  1.0000
  S   S79       1.0  0.15668  0.55232  0.21011  1.0000
  Fe  Fe40      1.0  0.23565  0.55184  0.30052  1.0000
  C   C251      1.0  0.03998  0.83953  0.33519  1.0000
  C   C252      1.0  0.98614  0.80035  0.34743  1.0000
  C   C253      1.0  0.39438  0.86878  0.36953  1.0000
  C   C254      1.0  0.13145  0.70443  0.22411  1.0000
  N   N22       1.0  0.19561  0.69379  0.23340  1.0000
  H   H255      1.0  0.36947  0.80135  0.23863  1.0000
  C   C255      1.0  0.09948  0.46148  0.24907  1.0000
  H   H256      1.0  0.12379  0.91414  0.27563  1.0000
  C   C256      1.0  0.39573  0.91247  0.33439  1.0000
  C   C257      1.0  0.00812  0.60195  0.20927  1.0000
  H   H257      1.0  0.39942  0.76599  0.40261  1.0000
  S   S80       1.0  0.13702  0.83330  0.19607  1.0000
  H   H258      1.0  0.01536  0.46943  0.43583  1.0000
  H   H259      1.0  0.35415  0.59843  0.60050  1.0000
  C   C258      1.0  0.04995  0.63770  0.65657  1.0000
  C   C259      1.0  0.97425  0.76460  0.59797  1.0000
  H   H260      1.0  0.26215  0.80339  0.62957  1.0000
  C   C260      1.0  0.07671  0.57436  0.57251  1.0000
  H   H261      1.0  0.08748  0.54929  0.54038  1.0000
  Fe  Fe41      1.0  0.16474  0.88220  0.51608  1.0000
  H   H262      1.0  0.20180  0.62503  0.51235  1.0000
  H   H263      1.0  0.12631  0.62068  0.44974  1.0000
  C   C261      1.0  0.30752  0.52759  0.63195  1.0000
  C   C262      1.0  0.27134  0.77445  0.66560  1.0000
  C   C263      1.0  0.03758  0.76930  0.56635  1.0000
  C   C264      1.0  0.35960  0.56797  0.63536  1.0000
  S   S81       1.0  0.20914  0.83529  0.45884  1.0000
  H   H264      1.0  0.38100  0.90874  0.61635  1.0000
  H   H265      1.0  0.08256  0.79508  0.58109  1.0000
  Fe  Fe42      1.0  0.04711  0.86898  0.61578  1.0000
  S   S82       1.0  0.38462  0.55323  0.44843  1.0000
  H   H266      1.0  0.24262  0.72601  0.58662  1.0000
  H   H267      1.0  0.36981  0.79668  0.55454  1.0000
  S   S83       1.0  0.05879  0.94540  0.61876  1.0000
  H   H268      1.0  0.09248  0.74668  0.48905  1.0000
  H   H269      1.0  0.27387  0.45659  0.67431  1.0000
  C   C265      1.0  0.11537  0.45541  0.47161  1.0000
  C   C266      1.0  0.91740  0.72914  0.58022  1.0000
  H   H270      1.0  0.26226  0.52694  0.59540  1.0000
  S   S84       1.0  0.05044  0.87648  0.49753  1.0000
  N   N23       1.0  0.10572  0.62034  0.55806  1.0000
  H   H271      1.0  0.01091  0.52246  0.64182  1.0000
  H   H272      1.0  0.12008  0.68768  0.59126  1.0000
  S   S85       1.0  0.96627  0.80606  0.65405  1.0000
  S   S86       1.0  0.16184  0.87245  0.63480  1.0000
  C   C267      1.0  0.15166  0.63565  0.49867  1.0000
  C   C268      1.0  0.09429  0.65167  0.60036  1.0000
  C   C269      1.0  0.31393  0.48814  0.67628  1.0000
  C   C270      1.0  0.01911  0.59107  0.67080  1.0000
  S   S87       1.0  0.25593  0.63806  0.65923  1.0000
  C   C271      1.0  0.25984  0.73063  0.64140  1.0000
  C   C272      1.0  0.03323  0.55900  0.62943  1.0000
  S   S88       1.0  0.33127  0.67536  0.45131  1.0000
  C   C273      1.0  0.04332  0.74148  0.51393  1.0000
  C   C274      1.0  0.92389  0.69980  0.52910  1.0000
  C   C275      1.0  0.98678  0.70674  0.49496  1.0000
  S   S89       1.0  0.93366  0.45080  0.56104  1.0000
  C   C276      1.0  0.04638  0.45783  0.48050  1.0000
  H   H273      1.0  0.16384  0.67376  0.48697  1.0000
  C   C277      1.0  0.38839  0.88528  0.57755  1.0000
  H   H274      1.0  0.33509  0.86762  0.55901  1.0000
  Fe  Fe43      1.0  0.28099  0.50284  0.43875  1.0000
  C   C278      1.0  0.29353  0.69940  0.75872  1.0000
  H   H275      1.0  0.98560  0.57969  0.71485  1.0000
  C   C279      1.0  0.37208  0.48942  0.72319  1.0000
  H   H276      1.0  0.32655  0.74810  0.83611  1.0000
  C   C280      1.0  0.29883  0.78125  0.73482  1.0000
  Fe  Fe44      1.0  0.09587  0.52722  0.82009  1.0000
  H   H277      1.0  0.23271  0.79031  0.87475  1.0000
  C   C281      1.0  0.05316  0.81822  0.82163  1.0000
  H   H278      1.0  0.30146  0.67057  0.79535  1.0000
  H   H279      1.0  0.06148  0.90509  0.77455  1.0000
  H   H280      1.0  0.22184  0.87113  0.84829  1.0000
  H   H281      1.0  0.12794  0.72637  0.86425  1.0000
  Fe  Fe45      1.0  0.20594  0.58583  0.91241  1.0000
  H   H282      1.0  0.15327  0.92440  0.79315  1.0000
  H   H283      1.0  0.09366  0.91295  0.86483  1.0000
  S   S90       1.0  0.32576  0.83715  0.76085  1.0000
  H   H284      1.0  0.37723  0.45892  0.75822  1.0000
  C   C282      1.0  0.18195  0.79782  0.85994  1.0000
  S   S91       1.0  0.15360  0.51105  0.92233  1.0000
  C   C283      1.0  0.05817  0.77213  0.83491  1.0000
  Fe  Fe46      1.0  0.22509  0.58841  0.75435  1.0000
  S   S92       1.0  0.17425  0.51365  0.75054  1.0000
  Fe  Fe47      1.0  0.23603  0.50317  0.85290  1.0000
  S   S93       1.0  0.29336  0.44792  0.88822  1.0000
  H   H285      1.0  0.01185  0.74457  0.83093  1.0000
  C   C284      1.0  0.17532  0.84353  0.84521  1.0000
  H   H286      1.0  0.00230  0.82580  0.80743  1.0000
  S   S94       1.0  0.98182  0.49890  0.80146  1.0000
  S   S95       1.0  0.14137  0.60281  0.81523  1.0000
  N   N24       1.0  0.11148  0.85320  0.82598  1.0000
  C   C285      1.0  0.10477  0.90127  0.81420  1.0000
  C   C286      1.0  0.12312  0.76195  0.85392  1.0000
  S   S96       1.0  0.29392  0.57713  0.85121  1.0000
  C   C287      1.0  0.30821  0.74350  0.78181  1.0000
  H   H287      1.0  0.96859  0.61149  0.93175  1.0000
  C   C288      1.0  0.27112  0.69309  0.68809  1.0000
  Fe  Fe48      1.0  0.40124  0.83953  0.85602  1.0000
  H   H288      1.0  0.04080  0.66283  0.68947  1.0000
