data_image0
_chemical_formula_structural       FeS2FeS2FeSFeS3FeS2HSFeSFeS2FeSFeS2HFeHS2FeS2FeS2CFeSCSH2C7H5NCSC2HFeC5HC6H5C2H3C6H4C2H2C5HC8H5C2HNC3H2SCH2C2H2C4SH2SHC3FeCHSCH4CHNC6H8CH2CHNHSHNHSHCH5SH4FeH2CHCFeC2FeH2CHCH2C2HCH4NFeS2FeS2FeSFeS3FeS2FeCHFeS3HSHFeSFeSFeS2HC2HC2FeS2FeSFeS3HFeHC2H2C6H7CS2CHCHC2HC6H4C2HC7H4C3SCH2C6H4C2HC2H2CHC4H2CHCHSHCHN2CH3NHCH4NCHC3HCH2C2HNH2SCFeC2FeHC6SH2C3NFeCH3CHCHC2NCHCH5FeCHCH5CHSH2SHCH4NCFeS2FeS2FeSFeS4NH2CHC2HC2SHNC3HCFeCH2C6H4C6H2CHC6H4C2H2CSH2C2H2S2H3SHC2H2CNHCNC2HC3H8SCNH4C5HFeH2C3HCSCH3CHFeCHCH3NC2HFeHSFeS2FeS2FeSFeS3H3CSCHC2HC4H2C6H4C6H4SC8H4NC4H6C2H7SH3CHCH4C2FeHCNHNH2CNC2HC2HC2HCNCHSHCHCH4SHC2HC3SH3CSC3HCFeH2CH2CNHCFeS2FeS2FeSFeS3FeSFeSCFeSFeS2HSFeSCFeSFeS2FeS2FeS2Fe2SHSH2CHCH2C8H4C2H3CH3CHC6H4CHS2C2H3C6H5C5H4C2HCHCHNHSH2CH2C3H3FeHCHFeC2HCHC5S2NC3NHCNC6H9CHC2H2SHSHC2H2C3HC2HC2HC6H5SHCH2C2H2CNHNC3SH2CH2FeS2FeS2FeSFeS3CSFeSHFeSFeS2FeSFeS2CFeS3FeSFeS2FeSFeS4HC4NHCH7NC7H4C3HC2SHC8H4C6H4SCHCH2C4H2C6H5CHC2H2NHNHCHC3H3CH2SC3H2CHC3H3SC2SNC5H10C2H2C4HC2H2CNC6H5FeSH3CHFeHC2H2CHCH4FeHC2HFeS2FeS2FeSFeS3HC6H6NCHC6H6CHCHSHC6H5C2H3SC3HSHNC2HC2SC7HC2SCHNC2HCH2C2H2CH5CSHFeH4CH3C2HC2SCSHSC2H3CFeS2FeS2FeSFeS4C3HC7H4C6H4CHC9H3C3SCHSC3H3CFeHC2HFeCSNH3C2H2SHCH3C2NH2C2HC2H3CHCH2FeH2NHCH3NHCHCNH5CH3NHFeS2CSCHC2SHC2NHCHSCFeS2FeS2FeSFeS4C6H5CHSHC6HNH2CHC4H6CH3CHC2NH6C3H2FeC3H2CHC3H3C4HC2H5CHCSCNCSHCHC2HFeC2HCSCH3FeS2FeS2FeSFeS3C3H2C7H4C6H4CSHC3HCH5CHCHCSH4CHNC2H2NHCHC2HNC6HCH4NH4CH2CHCH2CH2C5HNHCHSC4H2CH5C2H2SH2CH2CH2C2FeSFeSHFeS2FeS2FeSFeS3HSFeSHFeSFeS2FeSHS2FeSFeS2HSHFeS2FeS2CFeSCSC6H4CH3SC4HC6H4SHCHC2H2C4NH2C6H4C6H5C3HC2HNC6H9NC6H6CNH5NC6H8C2H2FeC4SHC3H2C3H2FeHCSC2HSHNHCH2CH2CH3FeCHCNC2H5SFeSHFeS2FeS2FeSFeHS2FeSH2SFeSFeS2HSFeSCFeSFeS2CHCSCFeSCHFeSCSC2HSHC2FeNC7H2SHC2FeHC2H2CFeC6H4C6HSH2CHCH2CHCH2FeHC6H4NCHCFeCSH2CSH2C6NCHCNCHNCHCH4CHSCSCHCH2CSH2CHCHFeHCHCHCHCHC2SNC6H9C2H6CH2C2HSNCHCNC4FeS2FeS2FeSFeS3HCNCH4C5HC2H2C6H2CHC4HC4HNH2SHC6H7CH3CH3CHCHSCH6C2HC2HCHCHCNSFeC2HFeCH3NH4NCSC2S3CH7CHC2H6SC3HC2HNH2FeS2FeS2FeSFeS4NHSC2NCH3C2H3SH2CHC3H2CH4C6H4C2H3CH2C6H6CFeCHNCHSH5C3HCHCHCHCH3C2H2C2HC2HSC2SHC2H3FeCHCH2C3H4FeNHCHCFeS2FeS2FeSFeS3FeS2FeSFeCFeS2HNCHCSCSHSFe2SFeSCFeS2FeSHFeSHSCH2C3HC7H4C4H2C3HSC2H3C6H4C6H4CFeHSHCH3C2HC6H4C2H3SCHSCH2C3H3C2HNCHNC4SH2C4H2SCHNC6H10CHN2CH2NH2FeS2HFeH5FeHCHSC3H2C2NFeH2C2H2CH3SFeS2FeS2FeSFeS3FeSHFeSFeSFeS2CSC2FeSC2SFeSFeS2FeS2FeS2CFeSHSH3C6H2C2HSCH3SCH2C5H2CH3C6H4C3HC3NC2H4C3HSH2C6H4C3HNC6H8CHCHCSH3CH4CH2NC2NC3H5SHC3HNC6H14CNC2HSNCFeC2SC3H2C2HC2H2CHC2HC2HFeH2C3
_chemical_formula_sum              "Fe192 S384 H1152 C1152 N96"
_cell_length_a       60.092
_cell_length_b       60.7864
_cell_length_c       47.9123
_cell_angle_alpha    88.9102
_cell_angle_beta     89.0682
_cell_angle_gamma    89.2915

_space_group_name_H-M_alt    "P 1"
_space_group_IT_number       1

loop_
  _space_group_symop_operation_xyz
  'x, y, z'

loop_
  _atom_site_type_symbol
  _atom_site_label
  _atom_site_symmetry_multiplicity
  _atom_site_fract_x
  _atom_site_fract_y
  _atom_site_fract_z
  _atom_site_occupancy
  Fe  Fe1       1.0  0.16350  0.18880  0.17876  1.0000
  S   S1        1.0  0.14147  0.16040  0.16828  1.0000
  S   S2        1.0  0.20023  0.18286  0.18710  1.0000
  Fe  Fe2       1.0  0.12514  0.22202  0.17602  1.0000
  S   S3        1.0  0.10004  0.19651  0.16626  1.0000
  S   S4        1.0  0.11823  0.25860  0.17668  1.0000
  Fe  Fe3       1.0  0.11704  0.17534  0.19863  1.0000
  S   S5        1.0  0.10056  0.15683  0.23484  1.0000
  Fe  Fe4       1.0  0.12634  0.18381  0.13656  1.0000
  S   S6        1.0  0.11290  0.17596  0.09401  1.0000
  S   S7        1.0  0.14012  0.20227  0.21120  1.0000
  S   S8        1.0  0.15053  0.21072  0.14430  1.0000
  Fe  Fe5       1.0  0.50342  0.18311  0.15833  1.0000
  S   S9        1.0  0.47197  0.20167  0.14752  1.0000
  S   S10       1.0  0.50216  0.14602  0.15891  1.0000
  H   H1        1.0  0.13319  0.13567  0.04117  1.0000
  S   S11       1.0  0.50069  0.24664  0.15598  1.0000
  Fe  Fe6       1.0  0.48091  0.22324  0.18299  1.0000
  S   S12       1.0  0.45864  0.23532  0.21806  1.0000
  Fe  Fe7       1.0  0.49461  0.22321  0.12136  1.0000
  S   S13       1.0  0.48765  0.23896  0.07926  1.0000
  S   S14       1.0  0.51087  0.20327  0.19564  1.0000
  Fe  Fe8       1.0  0.34408  0.08057  0.45108  1.0000
  S   S15       1.0  0.33250  0.09094  0.49388  1.0000
  Fe  Fe9       1.0  0.33390  0.08786  0.38948  1.0000
  S   S16       1.0  0.35526  0.05923  0.37637  1.0000
  S   S17       1.0  0.31571  0.10610  0.35521  1.0000
  H   H2        1.0  0.46069  0.13002  0.18948  1.0000
  Fe  Fe10      1.0  0.37968  0.07222  0.40657  1.0000
  H   H3        1.0  0.20756  0.16480  0.24572  1.0000
  S   S18       1.0  0.31669  0.06903  0.42393  1.0000
  S   S19       1.0  0.35922  0.10214  0.41750  1.0000
  Fe  Fe11      1.0  0.33539  0.23480  0.25778  1.0000
  S   S20       1.0  0.34903  0.24619  0.29827  1.0000
  S   S21       1.0  0.35475  0.21789  0.22337  1.0000
  Fe  Fe12      1.0  0.28759  0.24766  0.27321  1.0000
  S   S22       1.0  0.29734  0.26013  0.31524  1.0000
  S   S23       1.0  0.25212  0.25203  0.25831  1.0000
  C   C1        1.0  0.41769  0.04360  0.35910  1.0000
  Fe  Fe13      1.0  0.31900  0.22963  0.31730  1.0000
  S   S24       1.0  0.32414  0.20985  0.35708  1.0000
  C   C2        1.0  0.25858  0.22492  0.16581  1.0000
  S   S25       1.0  0.30693  0.21604  0.27710  1.0000
  H   H4        1.0  0.31420  0.23763  0.20083  1.0000
  H   H5        1.0  0.06346  0.04607  0.40322  1.0000
  C   C3        1.0  0.28748  0.05406  0.35936  1.0000
  C   C4        1.0  0.31655  0.13501  0.35660  1.0000
  C   C5        1.0  0.32373  0.14551  0.38050  1.0000
  C   C6        1.0  0.32552  0.16852  0.38059  1.0000
  C   C7        1.0  0.32013  0.18118  0.35683  1.0000
  C   C8        1.0  0.31256  0.17067  0.33311  1.0000
  C   C9        1.0  0.31071  0.14766  0.33304  1.0000
  H   H6        1.0  0.32777  0.13595  0.39900  1.0000
  H   H7        1.0  0.33120  0.17654  0.39910  1.0000
  H   H8        1.0  0.30816  0.18021  0.31482  1.0000
  H   H9        1.0  0.30499  0.13965  0.31455  1.0000
  H   H10       1.0  0.24288  0.22107  0.15623  1.0000
  N   N1        1.0  0.46589  0.15328  0.22152  1.0000
  C   C10       1.0  0.18466  0.18389  0.27045  1.0000
  S   S26       1.0  0.51031  0.03968  0.25112  1.0000
  C   C11       1.0  0.47592  0.13821  0.23895  1.0000
  C   C12       1.0  0.16276  0.18590  0.28033  1.0000
  H   H11       1.0  0.19689  0.19619  0.27534  1.0000
  Fe  Fe14      1.0  0.53246  0.06178  0.27511  1.0000
  C   C13       1.0  0.37191  0.07718  0.51724  1.0000
  C   C14       1.0  0.44921  0.03697  0.32752  1.0000
  C   C15       1.0  0.16039  0.19594  0.03800  1.0000
  C   C16       1.0  0.29605  0.21394  0.17777  1.0000
  C   C17       1.0  0.50046  0.20071  0.05319  1.0000
  H   H12       1.0  0.50313  0.19377  0.07382  1.0000
  C   C18       1.0  0.42979  0.23045  0.21858  1.0000
  C   C19       1.0  0.41665  0.23979  0.23980  1.0000
  C   C20       1.0  0.39364  0.23617  0.24121  1.0000
  C   C21       1.0  0.38360  0.22294  0.22160  1.0000
  C   C22       1.0  0.39675  0.21345  0.20042  1.0000
  C   C23       1.0  0.41980  0.21728  0.19881  1.0000
  H   H13       1.0  0.42430  0.25003  0.25509  1.0000
  H   H14       1.0  0.38372  0.24379  0.25738  1.0000
  H   H15       1.0  0.38907  0.20330  0.18508  1.0000
  H   H16       1.0  0.42974  0.21016  0.18222  1.0000
  H   H17       1.0  0.53070  0.16065  0.20311  1.0000
  C   C24       1.0  0.50999  0.10980  0.19226  1.0000
  C   C25       1.0  0.05071  0.26122  0.18202  1.0000
  H   H18       1.0  0.30971  0.20207  0.17754  1.0000
  H   H19       1.0  0.28068  0.05908  0.38001  1.0000
  H   H20       1.0  0.24550  0.27302  0.16247  1.0000
  C   C26       1.0  0.08749  0.13104  0.23209  1.0000
  C   C27       1.0  0.08110  0.12277  0.20642  1.0000
  C   C28       1.0  0.06965  0.10268  0.20548  1.0000
  C   C29       1.0  0.06490  0.09053  0.23007  1.0000
  C   C30       1.0  0.07181  0.09861  0.25563  1.0000
  C   C31       1.0  0.08282  0.11886  0.25664  1.0000
  H   H21       1.0  0.08454  0.13205  0.18737  1.0000
  H   H22       1.0  0.06437  0.09658  0.18560  1.0000
  H   H23       1.0  0.06850  0.08944  0.27469  1.0000
  H   H24       1.0  0.08772  0.12512  0.27657  1.0000
  C   C32       1.0  0.12699  0.18437  0.06315  1.0000
  C   C33       1.0  0.14919  0.19096  0.06332  1.0000
  H   H25       1.0  0.45560  0.15786  0.17945  1.0000
  H   H26       1.0  0.15793  0.19158  0.08284  1.0000
  C   C34       1.0  0.51420  0.13224  0.18766  1.0000
  C   C35       1.0  0.09043  0.26802  0.17913  1.0000
  C   C36       1.0  0.07279  0.25333  0.18222  1.0000
  C   C37       1.0  0.52690  0.14353  0.20678  1.0000
  C   C38       1.0  0.11374  0.24129  0.10108  1.0000
  H   H27       1.0  0.07612  0.23591  0.18457  1.0000
  C   C39       1.0  0.47797  0.18268  0.25024  1.0000
  C   C40       1.0  0.28080  0.24905  0.19167  1.0000
  C   C41       1.0  0.21408  0.20154  0.20838  1.0000
  C   C42       1.0  0.23594  0.19679  0.21679  1.0000
  C   C43       1.0  0.24759  0.21171  0.23307  1.0000
  C   C44       1.0  0.23742  0.23149  0.24101  1.0000
  C   C45       1.0  0.21532  0.23587  0.23334  1.0000
  C   C46       1.0  0.20369  0.22098  0.21706  1.0000
  H   H28       1.0  0.24402  0.18167  0.21033  1.0000
  H   H29       1.0  0.26460  0.20817  0.23890  1.0000
  H   H30       1.0  0.20732  0.25112  0.23947  1.0000
  H   H31       1.0  0.18681  0.22477  0.21086  1.0000
  H   H32       1.0  0.27369  0.19375  0.15489  1.0000
  C   C47       1.0  0.49273  0.22238  0.05002  1.0000
  C   C48       1.0  0.34985  0.08391  0.52179  1.0000
  H   H33       1.0  0.34441  0.03980  0.49499  1.0000
  N   N2        1.0  0.17501  0.15124  0.24606  1.0000
  C   C49       1.0  0.47579  0.04445  0.40453  1.0000
  C   C50       1.0  0.07528  0.22864  0.10813  1.0000
  C   C51       1.0  0.45375  0.14589  0.19718  1.0000
  H   H34       1.0  0.30562  0.05743  0.35911  1.0000
  H   H35       1.0  0.31538  0.04568  0.49545  1.0000
  S   S27       1.0  0.41567  0.07837  0.39522  1.0000
  C   C52       1.0  0.42741  0.06305  0.36779  1.0000
  H   H36       1.0  0.46385  0.05516  0.41506  1.0000
  H   H37       1.0  0.17776  0.20041  0.03817  1.0000
  C   C53       1.0  0.18129  0.13323  0.22749  1.0000
  C   C54       1.0  0.48771  0.14507  0.26210  1.0000
  H   H38       1.0  0.11883  0.24824  0.08040  1.0000
  H   H39       1.0  0.40212  0.03824  0.36842  1.0000
  C   C55       1.0  0.45848  0.05681  0.33552  1.0000
  C   C56       1.0  0.27594  0.20935  0.16504  1.0000
  C   C57       1.0  0.46640  0.17522  0.22723  1.0000
  C   C58       1.0  0.05259  0.23280  0.11292  1.0000
  S   S28       1.0  0.04935  0.06598  0.22827  1.0000
  H   H40       1.0  0.50375  0.06564  0.41053  1.0000
  H   H41       1.0  0.47554  0.12079  0.23449  1.0000
  S   S29       1.0  0.31510  0.26547  0.25049  1.0000
  H   H42       1.0  0.13008  0.17144  0.28090  1.0000
  C   C59       1.0  0.49809  0.05037  0.40184  1.0000
  C   C60       1.0  0.14725  0.17002  0.27363  1.0000
  C   C61       1.0  0.44765  0.06978  0.35564  1.0000
  Fe  Fe15      1.0  0.34022  0.04149  0.41355  1.0000
  C   C62       1.0  0.08278  0.26689  0.10924  1.0000
  H   H43       1.0  0.47881  0.20020  0.25412  1.0000
  S   S30       1.0  0.52531  0.20287  0.12916  1.0000
  C   C63       1.0  0.19058  0.16617  0.25354  1.0000
  H   H44       1.0  0.47408  0.06214  0.32639  1.0000
  H   H45       1.0  0.49651  0.13308  0.27509  1.0000
  H   H46       1.0  0.27989  0.06462  0.34280  1.0000
  H   H47       1.0  0.45825  0.18717  0.21362  1.0000
  C   C64       1.0  0.48891  0.16748  0.26756  1.0000
  H   H48       1.0  0.37873  0.07670  0.49622  1.0000
  N   N3        1.0  0.37027  0.14939  0.33270  1.0000
  C   C65       1.0  0.36376  0.14441  0.30634  1.0000
  C   C66       1.0  0.37330  0.17081  0.33989  1.0000
  C   C67       1.0  0.35993  0.16116  0.28644  1.0000
  C   C68       1.0  0.36959  0.18794  0.32053  1.0000
  C   C69       1.0  0.36290  0.18305  0.29364  1.0000
  C   C70       1.0  0.37500  0.13158  0.35292  1.0000
  H   H49       1.0  0.36117  0.12744  0.30075  1.0000
  H   H50       1.0  0.37804  0.17485  0.36091  1.0000
  H   H51       1.0  0.35447  0.15729  0.26565  1.0000
  H   H52       1.0  0.37126  0.20493  0.32665  1.0000
  H   H53       1.0  0.35979  0.19620  0.27850  1.0000
  H   H54       1.0  0.37217  0.13713  0.37468  1.0000
  H   H55       1.0  0.36377  0.11742  0.35002  1.0000
  H   H56       1.0  0.39253  0.12579  0.35058  1.0000
  C   C71       1.0  0.15377  0.15258  0.25657  1.0000
  H   H57       1.0  0.04223  0.03159  0.38548  1.0000
  H   H58       1.0  0.14159  0.14037  0.25130  1.0000
  C   C72       1.0  0.51305  0.03665  0.38768  1.0000
  H   H59       1.0  0.50034  0.10093  0.17739  1.0000
  N   N4        1.0  0.26109  0.24435  0.17933  1.0000
  H   H60       1.0  0.08104  0.21172  0.10616  1.0000
  S   S31       1.0  0.36682  0.05178  0.44285  1.0000
  H   H61       1.0  0.28272  0.26440  0.20252  1.0000
  N   N5        1.0  0.09003  0.24562  0.10641  1.0000
  H   H62       1.0  0.45517  0.08488  0.36217  1.0000
  S   S32       1.0  0.05442  0.05271  0.30887  1.0000
  H   H63       1.0  0.18711  0.11876  0.23995  1.0000
  C   C73       1.0  0.29857  0.23395  0.19102  1.0000
  H   H64       1.0  0.03713  0.24974  0.18392  1.0000
  H   H65       1.0  0.19467  0.13840  0.21251  1.0000
  H   H66       1.0  0.12382  0.24880  0.11759  1.0000
  H   H67       1.0  0.11766  0.22339  0.10110  1.0000
  H   H68       1.0  0.16694  0.12840  0.21465  1.0000
  S   S33       1.0  0.51951  0.05111  0.31744  1.0000
  H   H69       1.0  0.49851  0.17307  0.28499  1.0000
  H   H70       1.0  0.43585  0.14401  0.20255  1.0000
  H   H71       1.0  0.15779  0.19981  0.29295  1.0000
  H   H72       1.0  0.53047  0.04105  0.38535  1.0000
  Fe  Fe16      1.0  0.04451  0.04326  0.26606  1.0000
  H   H73       1.0  0.29062  0.03226  0.42525  1.0000
  H   H74       1.0  0.51408  0.08175  0.22008  1.0000
  C   C74       1.0  0.51777  0.09891  0.21641  1.0000
  H   H75       1.0  0.53200  0.24506  0.09683  1.0000
  C   C75       1.0  0.04503  0.25448  0.11557  1.0000
  Fe  Fe17      1.0  0.32644  0.27564  0.29280  1.0000
  C   C76       1.0  0.06017  0.27166  0.11356  1.0000
  C   C77       1.0  0.32818  0.03383  0.50331  1.0000
  Fe  Fe18      1.0  0.53000  0.22492  0.16564  1.0000
  H   H76       1.0  0.53433  0.27457  0.17146  1.0000
  H   H77       1.0  0.04105  0.21927  0.11499  1.0000
  C   C78       1.0  0.06054  0.03275  0.38822  1.0000
  H   H78       1.0  0.09865  0.17850  0.03743  1.0000
  C   C79       1.0  0.52989  0.11041  0.23595  1.0000
  H   H79       1.0  0.24770  0.03556  0.35875  1.0000
  H   H80       1.0  0.06812  0.03747  0.36769  1.0000
  C   C80       1.0  0.11585  0.18353  0.03768  1.0000
  C   C81       1.0  0.24295  0.26072  0.17960  1.0000
  H   H81       1.0  0.22650  0.25285  0.17719  1.0000
  C   C82       1.0  0.53473  0.13264  0.23084  1.0000
  H   H82       1.0  0.24222  0.26932  0.19992  1.0000
  H   H83       1.0  0.50740  0.27999  0.10980  1.0000
  H   H84       1.0  0.51028  0.17098  0.03220  1.0000
  H   H85       1.0  0.09459  0.28026  0.10891  1.0000
  N   N6        1.0  0.28283  0.03080  0.35469  1.0000
  Fe  Fe19      1.0  0.13143  0.16160  0.89660  1.0000
  S   S34       1.0  0.11936  0.18844  0.86776  1.0000
  S   S35       1.0  0.13036  0.12536  0.88700  1.0000
  Fe  Fe20      1.0  0.14768  0.19396  0.93969  1.0000
  S   S36       1.0  0.13739  0.22349  0.91389  1.0000
  S   S37       1.0  0.16473  0.19819  0.98097  1.0000
  Fe  Fe21      1.0  0.10629  0.20445  0.90669  1.0000
  S   S38       1.0  0.07182  0.21786  0.91563  1.0000
  Fe  Fe22      1.0  0.15176  0.20491  0.87742  1.0000
  S   S39       1.0  0.17101  0.22000  0.84085  1.0000
  S   S40       1.0  0.11572  0.17603  0.93491  1.0000
  S   S41       1.0  0.16469  0.17686  0.90378  1.0000
  Fe  Fe23      1.0  0.46173  0.20019  0.88630  1.0000
  S   S42       1.0  0.48693  0.21072  0.85378  1.0000
  S   S43       1.0  0.42518  0.19519  0.87831  1.0000
  Fe  Fe24      1.0  0.49660  0.19343  0.93125  1.0000
  C   C83       1.0  0.34892  0.14963  0.63783  1.0000
  H   H86       1.0  0.10251  0.12704  0.94166  1.0000
  Fe  Fe25      1.0  0.50785  0.18281  0.87065  1.0000
  S   S44       1.0  0.51268  0.26523  0.88087  1.0000
  S   S45       1.0  0.47455  0.22212  0.91965  1.0000
  S   S46       1.0  0.48165  0.17065  0.90068  1.0000
  H   H87       1.0  0.10201  0.24830  0.95050  1.0000
  S   S47       1.0  0.39687  0.06876  0.67632  1.0000
  H   H88       1.0  0.10769  0.15451  0.81589  1.0000
  Fe  Fe26      1.0  0.33587  0.05065  0.66991  1.0000
  S   S48       1.0  0.34816  0.08285  0.65172  1.0000
  Fe  Fe27      1.0  0.37751  0.06263  0.63780  1.0000
  S   S49       1.0  0.39410  0.06592  0.59554  1.0000
  Fe  Fe28      1.0  0.36617  0.08603  0.69204  1.0000
  S   S50       1.0  0.37411  0.11677  0.71532  1.0000
  S   S51       1.0  0.35119  0.05581  0.71185  1.0000
  H   H89       1.0  0.13935  0.09227  0.80020  1.0000
  C   C84       1.0  0.50437  0.12596  0.85452  1.0000
  C   C85       1.0  0.50445  0.18779  0.02957  1.0000
  H   H90       1.0  0.11833  0.18766  0.99295  1.0000
  C   C86       1.0  0.30947  0.03812  0.54890  1.0000
  C   C87       1.0  0.12186  0.12478  0.00109  1.0000
  Fe  Fe29      1.0  0.30806  0.22170  0.74566  1.0000
  S   S52       1.0  0.32151  0.21862  0.78880  1.0000
  S   S53       1.0  0.30019  0.19150  0.72138  1.0000
  Fe  Fe30      1.0  0.29450  0.24289  0.80000  1.0000
  S   S54       1.0  0.27479  0.23724  0.84022  1.0000
  Fe  Fe31      1.0  0.34196  0.24797  0.77711  1.0000
  S   S55       1.0  0.37839  0.25343  0.78445  1.0000
  S   S56       1.0  0.27984  0.24443  0.75734  1.0000
  S   S57       1.0  0.33087  0.24901  0.73256  1.0000
  H   H91       1.0  0.50062  0.13759  0.94820  1.0000
  Fe  Fe32      1.0  0.30410  0.27172  0.74852  1.0000
  H   H92       1.0  0.09725  0.10450  0.96584  1.0000
  C   C88       1.0  0.37672  0.07229  0.56733  1.0000
  C   C89       1.0  0.35452  0.07863  0.57178  1.0000
  H   H93       1.0  0.41739  0.13240  0.63222  1.0000
  H   H94       1.0  0.34762  0.07904  0.59268  1.0000
  C   C90       1.0  0.35323  0.13717  0.71756  1.0000
  C   C91       1.0  0.35814  0.15736  0.72958  1.0000
  C   C92       1.0  0.34200  0.17425  0.73066  1.0000
  C   C93       1.0  0.32088  0.17092  0.71978  1.0000
  C   C94       1.0  0.31599  0.15071  0.70779  1.0000
  C   C95       1.0  0.33214  0.13384  0.70665  1.0000
  H   H95       1.0  0.37453  0.16005  0.73780  1.0000
  H   H96       1.0  0.34591  0.18986  0.73979  1.0000
  H   H97       1.0  0.29963  0.14807  0.69944  1.0000
  H   H98       1.0  0.32826  0.11830  0.69733  1.0000
  H   H99       1.0  0.32408  0.08976  0.55263  1.0000
  H   H100      1.0  0.41147  0.06181  0.73408  1.0000
  H   H101      1.0  0.43088  0.03398  0.67987  1.0000
  C   C96       1.0  0.48914  0.23112  0.02312  1.0000
  S   S58       1.0  0.04249  0.05713  0.76356  1.0000
  S   S59       1.0  0.04372  0.09007  0.83001  1.0000
  C   C97       1.0  0.07254  0.25864  0.97272  1.0000
  H   H102      1.0  0.29470  0.04407  0.53833  1.0000
  C   C98       1.0  0.51564  0.08842  0.84393  1.0000
  H   H103      1.0  0.49225  0.13724  0.86316  1.0000
  C   C99       1.0  0.50018  0.10331  0.85532  1.0000
  C   C100      1.0  0.49305  0.21816  0.99949  1.0000
  H   H104      1.0  0.48503  0.09731  0.86513  1.0000
  C   C101      1.0  0.41241  0.21159  0.85228  1.0000
  C   C102      1.0  0.42446  0.22715  0.83660  1.0000
  C   C103      1.0  0.41386  0.23987  0.81581  1.0000
  C   C104      1.0  0.39115  0.23719  0.81068  1.0000
  C   C105      1.0  0.37904  0.22173  0.82648  1.0000
  C   C106      1.0  0.38968  0.20893  0.84717  1.0000
  H   H105      1.0  0.44192  0.22943  0.84055  1.0000
  H   H106      1.0  0.42330  0.25185  0.80374  1.0000
  H   H107      1.0  0.36150  0.21980  0.82296  1.0000
  H   H108      1.0  0.38029  0.19707  0.85949  1.0000
  C   C107      1.0  0.28679  0.17990  0.82368  1.0000
  C   C108      1.0  0.50063  0.19641  0.00269  1.0000
  H   H109      1.0  0.40390  0.04955  0.76670  1.0000
  C   C109      1.0  0.48032  0.06492  0.78210  1.0000
  C   C110      1.0  0.10553  0.11514  0.87344  1.0000
  C   C111      1.0  0.08662  0.12858  0.87074  1.0000
  C   C112      1.0  0.06747  0.12043  0.85822  1.0000
  C   C113      1.0  0.06718  0.09888  0.84819  1.0000
  C   C114      1.0  0.08593  0.08528  0.85153  1.0000
  C   C115      1.0  0.10502  0.09338  0.86424  1.0000
  H   H110      1.0  0.08681  0.14535  0.87791  1.0000
  H   H111      1.0  0.05299  0.13100  0.85580  1.0000
  H   H112      1.0  0.08578  0.06860  0.84414  1.0000
  H   H113      1.0  0.11957  0.08286  0.86647  1.0000
  C   C116      1.0  0.14636  0.13091  0.96239  1.0000
  C   C117      1.0  0.07529  0.25172  0.87683  1.0000
  C   C118      1.0  0.21815  0.28008  0.80255  1.0000
  S   S60       1.0  0.51087  0.06007  0.84817  1.0000
  C   C119      1.0  0.37557  0.12426  0.60292  1.0000
  H   H114      1.0  0.08969  0.24309  0.86843  1.0000
  H   H115      1.0  0.38595  0.11444  0.58906  1.0000
  C   C120      1.0  0.20034  0.22157  0.84077  1.0000
  C   C121      1.0  0.21168  0.22574  0.81541  1.0000
  C   C122      1.0  0.23476  0.22936  0.81480  1.0000
  C   C123      1.0  0.24662  0.22925  0.83965  1.0000
  C   C124      1.0  0.23543  0.22433  0.86494  1.0000
  C   C125      1.0  0.21237  0.22039  0.86551  1.0000
  H   H116      1.0  0.20249  0.22653  0.79617  1.0000
  H   H117      1.0  0.24314  0.23300  0.79519  1.0000
  H   H118      1.0  0.24448  0.22417  0.88429  1.0000
  H   H119      1.0  0.20379  0.21720  0.88518  1.0000
  C   C126      1.0  0.08812  0.13080  0.79441  1.0000
  C   C127      1.0  0.14944  0.19449  0.01244  1.0000
  H   H120      1.0  0.21432  0.26847  0.85506  1.0000
  C   C128      1.0  0.41292  0.06369  0.75697  1.0000
  C   C129      1.0  0.06317  0.24251  0.89918  1.0000
  H   H121      1.0  0.33867  0.15951  0.65180  1.0000
  H   H122      1.0  0.14997  0.13012  0.94017  1.0000
  C   C130      1.0  0.50723  0.12289  0.93836  1.0000
  H   H123      1.0  0.37555  0.14587  0.66690  1.0000
  C   C131      1.0  0.50338  0.08449  0.92771  1.0000
  C   C132      1.0  0.44151  0.05832  0.79239  1.0000
  C   C133      1.0  0.15735  0.14175  0.00828  1.0000
  C   C134      1.0  0.52412  0.13387  0.84250  1.0000
  H   H124      1.0  0.46782  0.05454  0.82252  1.0000
  H   H125      1.0  0.52235  0.26536  0.97427  1.0000
  C   C135      1.0  0.12506  0.10318  0.79795  1.0000
  H   H126      1.0  0.40826  0.10429  0.62938  1.0000
  C   C136      1.0  0.05640  0.27518  0.97570  1.0000
  H   H127      1.0  0.48302  0.24783  0.02059  1.0000
  S   S61       1.0  0.52457  0.20322  0.90243  1.0000
  H   H128      1.0  0.04262  0.27317  0.99044  1.0000
  C   C137      1.0  0.10740  0.13828  0.80681  1.0000
  H   H129      1.0  0.47185  0.03866  0.67992  1.0000
  N   N7        1.0  0.43627  0.06360  0.76538  1.0000
  N   N8        1.0  0.09075  0.28004  0.93655  1.0000
  C   C138      1.0  0.46360  0.05887  0.80114  1.0000
  H   H130      1.0  0.40436  0.11824  0.66167  1.0000
  H   H131      1.0  0.10205  0.06190  0.79298  1.0000
  H   H132      1.0  0.12126  0.06868  0.76482  1.0000
  N   N9        1.0  0.12671  0.12307  0.97318  1.0000
  H   H133      1.0  0.49751  0.06532  0.78863  1.0000
  C   C139      1.0  0.52353  0.08528  0.91289  1.0000
  H   H134      1.0  0.36203  0.17793  0.79712  1.0000
  H   H135      1.0  0.29809  0.19470  0.86131  1.0000
  H   H136      1.0  0.32030  0.15402  0.77676  1.0000
  H   H137      1.0  0.35711  0.14873  0.79568  1.0000
  N   N10       1.0  0.33115  0.16791  0.81476  1.0000
  C   C140      1.0  0.35479  0.16359  0.80866  1.0000
  H   H138      1.0  0.33756  0.18412  0.85292  1.0000
  C   C141      1.0  0.32508  0.17911  0.83827  1.0000
  C   C142      1.0  0.12598  0.12439  0.80873  1.0000
  C   C143      1.0  0.31549  0.16248  0.79569  1.0000
  H   H139      1.0  0.36430  0.16081  0.82816  1.0000
  C   C144      1.0  0.29313  0.16846  0.79978  1.0000
  H   H140      1.0  0.28097  0.16490  0.78401  1.0000
  H   H141      1.0  0.10604  0.11922  0.00961  1.0000
  C   C145      1.0  0.30281  0.18515  0.84316  1.0000
  C   C146      1.0  0.53502  0.10513  0.91075  1.0000
  H   H142      1.0  0.44848  0.07366  0.72511  1.0000
  N   N11       1.0  0.10619  0.09609  0.78547  1.0000
  H   H143      1.0  0.49001  0.22493  0.97888  1.0000
  H   H144      1.0  0.26963  0.18526  0.82676  1.0000
  S   S62       1.0  0.31641  0.27230  0.79242  1.0000
  C   C147      1.0  0.03816  0.27434  0.89873  1.0000
  Fe  Fe33      1.0  0.50158  0.23022  0.88820  1.0000
  C   C148      1.0  0.16191  0.14044  0.97973  1.0000
  C   C149      1.0  0.45257  0.06969  0.74660  1.0000
  Fe  Fe34      1.0  0.04396  0.05655  0.81032  1.0000
  H   H145      1.0  0.48786  0.07431  0.73946  1.0000
  C   C150      1.0  0.04435  0.25364  0.90971  1.0000
  C   C151      1.0  0.08984  0.26147  0.95313  1.0000
  C   C152      1.0  0.53511  0.09630  0.83111  1.0000
  C   C153      1.0  0.12699  0.18870  0.01242  1.0000
  C   C154      1.0  0.49513  0.10340  0.94055  1.0000
  C   C155      1.0  0.34120  0.08468  0.54908  1.0000
  S   S63       1.0  0.50559  0.17964  0.97358  1.0000
  H   H146      1.0  0.07327  0.14111  0.79389  1.0000
  H   H147      1.0  0.40259  0.06675  0.53649  1.0000
  C   C156      1.0  0.10536  0.07353  0.77531  1.0000
  C   C157      1.0  0.40424  0.12059  0.63857  1.0000
  C   C158      1.0  0.36974  0.14172  0.64637  1.0000
  N   N12       1.0  0.38250  0.12876  0.62923  1.0000
  Fe  Fe35      1.0  0.38106  0.03828  0.69362  1.0000
  C   C159      1.0  0.47485  0.07026  0.75461  1.0000
  H   H148      1.0  0.47937  0.10309  0.95192  1.0000
  H   H149      1.0  0.49405  0.06932  0.92877  1.0000
  H   H150      1.0  0.32526  0.15052  0.60447  1.0000
  C   C160      1.0  0.52788  0.26910  0.95246  1.0000
  H   H151      1.0  0.14068  0.12977  0.81946  1.0000
  C   C161      1.0  0.11048  0.11371  0.95435  1.0000
  H   H152      1.0  0.34937  0.12815  0.57280  1.0000
  C   C162      1.0  0.53468  0.24147  0.81856  1.0000
  C   C163      1.0  0.38539  0.07157  0.54003  1.0000
  N   N13       1.0  0.52701  0.12349  0.92381  1.0000
  C   C164      1.0  0.08774  0.10945  0.78400  1.0000
  H   H153      1.0  0.42861  0.05355  0.80730  1.0000
  C   C165      1.0  0.35491  0.13201  0.59359  1.0000
  H   H154      1.0  0.07238  0.10343  0.77549  1.0000
  H   H155      1.0  0.52844  0.20665  0.82203  1.0000
  H   H156      1.0  0.16907  0.14956  0.02184  1.0000
  H   H157      1.0  0.11883  0.10207  0.93979  1.0000
  H   H158      1.0  0.17714  0.14736  0.97100  1.0000
  Fe  Fe36      1.0  0.52865  0.03695  0.81877  1.0000
  C   C166      1.0  0.30917  0.03638  0.57810  1.0000
  H   H159      1.0  0.11341  0.26660  0.90661  1.0000
  C   C167      1.0  0.06879  0.27223  0.86541  1.0000
  H   H160      1.0  0.07138  0.24344  0.98487  1.0000
  H   H161      1.0  0.24266  0.27314  0.86349  1.0000
  H   H162      1.0  0.51443  0.27832  0.94142  1.0000
  H   H163      1.0  0.09209  0.07163  0.75964  1.0000
  H   H164      1.0  0.29440  0.04088  0.59019  1.0000
  C   C168      1.0  0.34143  0.14460  0.61131  1.0000
  H   H165      1.0  0.20179  0.27404  0.80857  1.0000
  S   S64       1.0  0.53044  0.16208  0.84329  1.0000
  H   H166      1.0  0.40459  0.07938  0.76290  1.0000
  H   H167      1.0  0.52978  0.07081  0.90219  1.0000
  S   S65       1.0  0.30044  0.04189  0.65984  1.0000
  H   H168      1.0  0.51718  0.24617  0.81898  1.0000
  C   C169      1.0  0.13718  0.13396  0.01910  1.0000
  H   H169      1.0  0.53010  0.25335  0.94124  1.0000
  H   H170      1.0  0.53230  0.15376  0.90261  1.0000
  H   H171      1.0  0.07822  0.27937  0.84814  1.0000
  H   H172      1.0  0.21087  0.28044  0.75849  1.0000
  N   N14       1.0  0.32830  0.03276  0.53391  1.0000
  C   C170      1.0  0.22822  0.28026  0.85203  1.0000
  Fe  Fe37      1.0  0.41089  0.43029  0.38027  1.0000
  S   S66       1.0  0.38127  0.41515  0.36043  1.0000
  S   S67       1.0  0.44308  0.43079  0.35486  1.0000
  Fe  Fe38      1.0  0.38613  0.43605  0.43598  1.0000
  S   S68       1.0  0.35479  0.42089  0.42080  1.0000
  S   S69       1.0  0.38804  0.45312  0.47747  1.0000
  Fe  Fe39      1.0  0.37739  0.39597  0.40050  1.0000
  S   S70       1.0  0.36963  0.35959  0.40265  1.0000
  Fe  Fe40      1.0  0.36109  0.44125  0.38206  1.0000
  S   S71       1.0  0.33405  0.45961  0.35891  1.0000
  S   S72       1.0  0.40847  0.40921  0.41934  1.0000
  S   S73       1.0  0.39101  0.45825  0.39825  1.0000
  S   S74       1.0  0.33636  0.31154  0.29488  1.0000
  N   N15       1.0  0.53591  0.53056  0.38348  1.0000
  H   H173      1.0  0.41060  0.36707  0.28392  1.0000
  H   H174      1.0  0.42794  0.42267  0.51751  1.0000
  C   C171      1.0  0.31284  0.40728  0.36466  1.0000
  H   H175      1.0  0.42530  0.39458  0.31643  1.0000
  C   C172      1.0  0.04361  0.45581  0.18596  1.0000
  C   C173      1.0  0.10967  0.48358  0.25544  1.0000
  H   H176      1.0  0.29798  0.38115  0.32513  1.0000
  C   C174      1.0  0.06379  0.29855  0.17640  1.0000
  C   C175      1.0  0.04791  0.46903  0.20888  1.0000
  S   S75       1.0  0.08781  0.51036  0.33574  1.0000
  H   H177      1.0  0.31098  0.41572  0.38497  1.0000
  N   N16       1.0  0.22200  0.52064  0.52437  1.0000
  C   C176      1.0  0.35009  0.49756  0.43536  1.0000
  C   C177      1.0  0.03996  0.38663  0.03478  1.0000
  C   C178      1.0  0.11488  0.52121  0.33596  1.0000
  H   H178      1.0  0.09578  0.45741  0.31610  1.0000
  C   C179      1.0  0.05289  0.43613  0.23768  1.0000
  Fe  Fe41      1.0  0.06556  0.52390  0.30184  1.0000
  C   C180      1.0  0.21344  0.51744  0.49626  1.0000
  H   H179      1.0  0.22201  0.50324  0.48628  1.0000
  H   H180      1.0  0.16180  0.49477  0.29872  1.0000
  C   C181      1.0  0.45712  0.45578  0.34774  1.0000
  C   C182      1.0  0.44935  0.47574  0.35845  1.0000
  C   C183      1.0  0.46090  0.49532  0.35245  1.0000
  C   C184      1.0  0.48025  0.49514  0.33561  1.0000
  C   C185      1.0  0.48812  0.47519  0.32497  1.0000
  C   C186      1.0  0.47658  0.45558  0.33104  1.0000
  H   H181      1.0  0.43442  0.47611  0.37133  1.0000
  H   H182      1.0  0.45471  0.51068  0.36076  1.0000
  H   H183      1.0  0.50300  0.47486  0.31195  1.0000
  H   H184      1.0  0.48270  0.44022  0.32266  1.0000
  C   C187      1.0  0.31219  0.47076  0.37923  1.0000
  C   C188      1.0  0.31021  0.46567  0.40772  1.0000
  C   C189      1.0  0.29344  0.47565  0.42395  1.0000
  C   C190      1.0  0.27872  0.49099  0.41188  1.0000
  C   C191      1.0  0.28031  0.49573  0.38325  1.0000
  C   C192      1.0  0.29698  0.48555  0.36693  1.0000
  H   H185      1.0  0.32184  0.45443  0.41747  1.0000
  H   H186      1.0  0.29226  0.47192  0.44609  1.0000
  C   C193      1.0  0.04616  0.28379  0.17863  1.0000
  H   H187      1.0  0.29836  0.48945  0.34484  1.0000
  C   C194      1.0  0.36063  0.34622  0.37256  1.0000
  C   C195      1.0  0.35663  0.32349  0.37376  1.0000
  C   C196      1.0  0.34910  0.31252  0.35013  1.0000
  C   C197      1.0  0.34558  0.32429  0.32521  1.0000
  C   C198      1.0  0.34979  0.34694  0.32398  1.0000
  C   C199      1.0  0.35723  0.35787  0.34755  1.0000
  H   H188      1.0  0.35923  0.31435  0.39306  1.0000
  H   H189      1.0  0.34598  0.29502  0.35122  1.0000
  H   H190      1.0  0.34715  0.35610  0.30470  1.0000
  H   H191      1.0  0.36019  0.37532  0.34633  1.0000
  C   C200      1.0  0.37597  0.41627  0.50847  1.0000
  C   C201      1.0  0.38024  0.43883  0.50839  1.0000
  H   H192      1.0  0.12307  0.50622  0.37569  1.0000
  H   H193      1.0  0.37649  0.40743  0.48907  1.0000
  C   C202      1.0  0.53456  0.50874  0.37715  1.0000
  S   S76       1.0  0.49442  0.52012  0.32915  1.0000
  H   H194      1.0  0.15936  0.50967  0.25019  1.0000
  H   H195      1.0  0.06044  0.31600  0.17393  1.0000
  C   C203      1.0  0.14595  0.49981  0.25899  1.0000
  C   C204      1.0  0.04842  0.42292  0.21481  1.0000
  H   H196      1.0  0.05515  0.46925  0.25265  1.0000
  H   H197      1.0  0.09946  0.30211  0.17444  1.0000
  S   S77       1.0  0.20177  0.52888  0.41273  1.0000
  S   S78       1.0  0.52360  0.52607  0.25476  1.0000
  H   H198      1.0  0.08867  0.44885  0.28159  1.0000
  H   H199      1.0  0.42949  0.38469  0.36644  1.0000
  H   H200      1.0  0.04445  0.37503  0.05131  1.0000
  S   S79       1.0  0.04910  0.39418  0.21905  1.0000
  H   H201      1.0  0.29167  0.34098  0.32866  1.0000
  C   C205      1.0  0.30873  0.35012  0.39465  1.0000
  C   C206      1.0  0.33315  0.52051  0.39972  1.0000
  H   H202      1.0  0.09489  0.48082  0.24329  1.0000
  H   H203      1.0  0.31287  0.34137  0.41386  1.0000
  C   C207      1.0  0.12966  0.47928  0.29760  1.0000
  N   N17       1.0  0.11111  0.47556  0.28224  1.0000
  H   H204      1.0  0.26885  0.50739  0.37374  1.0000
  C   C208      1.0  0.08587  0.29066  0.17661  1.0000
  N   N18       1.0  0.40673  0.34210  0.31548  1.0000
  C   C209      1.0  0.41251  0.36262  0.30579  1.0000
  C   C210      1.0  0.40928  0.33647  0.34306  1.0000
  H   H205      1.0  0.04018  0.42264  0.17126  1.0000
  C   C211      1.0  0.41740  0.35171  0.36181  1.0000
  C   C212      1.0  0.42326  0.37266  0.35212  1.0000
  C   C213      1.0  0.39842  0.32597  0.29589  1.0000
  H   H206      1.0  0.36106  0.49858  0.39226  1.0000
  H   H207      1.0  0.40446  0.32034  0.35091  1.0000
  H   H208      1.0  0.05450  0.28850  0.11659  1.0000
  H   H209      1.0  0.41859  0.34748  0.38386  1.0000
  H   H210      1.0  0.13056  0.47355  0.31914  1.0000
  H   H211      1.0  0.41228  0.31965  0.28255  1.0000
  H   H212      1.0  0.39046  0.31175  0.30689  1.0000
  H   H213      1.0  0.38539  0.33352  0.28239  1.0000
  S   S80       1.0  0.25982  0.50511  0.43367  1.0000
  C   C214      1.0  0.12700  0.49589  0.24345  1.0000
  N   N19       1.0  0.30802  0.38375  0.36745  1.0000
  H   H214      1.0  0.51853  0.50125  0.37390  1.0000
  H   H215      1.0  0.07743  0.47425  0.29574  1.0000
  H   H216      1.0  0.31943  0.38130  0.40940  1.0000
  H   H217      1.0  0.16163  0.52068  0.37565  1.0000
  C   C215      1.0  0.31241  0.37275  0.39197  1.0000
  C   C216      1.0  0.29687  0.34994  0.34680  1.0000
  C   C217      1.0  0.51869  0.28670  0.09320  1.0000
  C   C218      1.0  0.30091  0.33868  0.37188  1.0000
  C   C219      1.0  0.09236  0.46333  0.29448  1.0000
  H   H218      1.0  0.33014  0.40958  0.35674  1.0000
  Fe  Fe42      1.0  0.04837  0.51828  0.24322  1.0000
  H   H219      1.0  0.05642  0.42847  0.25771  1.0000
  H   H220      1.0  0.12554  0.50259  0.22238  1.0000
  C   C220      1.0  0.33448  0.50548  0.45467  1.0000
  C   C221      1.0  0.14740  0.49133  0.28617  1.0000
  C   C222      1.0  0.30060  0.37262  0.34491  1.0000
  H   H221      1.0  0.30129  0.41580  0.35000  1.0000
  C   C223      1.0  0.42084  0.37820  0.32396  1.0000
  S   S81       1.0  0.04705  0.49779  0.20467  1.0000
  C   C224      1.0  0.34944  0.50509  0.40768  1.0000
  H   H222      1.0  0.36241  0.48531  0.44175  1.0000
  H   H223      1.0  0.33463  0.49936  0.47610  1.0000
  H   H224      1.0  0.29877  0.32098  0.37332  1.0000
  C   C225      1.0  0.12903  0.51625  0.35828  1.0000
  H   H225      1.0  0.04018  0.46339  0.16584  1.0000
  Fe  Fe43      1.0  0.52529  0.52219  0.30143  1.0000
  C   C226      1.0  0.31839  0.52090  0.44598  1.0000
  H   H226      1.0  0.33251  0.52591  0.37804  1.0000
  C   C227      1.0  0.05227  0.45916  0.23484  1.0000
  H   H227      1.0  0.19517  0.51477  0.49711  1.0000
  H   H228      1.0  0.30597  0.52660  0.46096  1.0000
  H   H229      1.0  0.51738  0.30492  0.09358  1.0000
  N   N20       1.0  0.31782  0.52812  0.41876  1.0000
  C   C228      1.0  0.15085  0.52440  0.35828  1.0000
  C   C229      1.0  0.04355  0.43278  0.18900  1.0000
  H   H230      1.0  0.51266  0.28099  0.07278  1.0000
  Fe  Fe44      1.0  0.51167  0.51702  0.77421  1.0000
  H   H231      1.0  0.42142  0.38864  0.54594  1.0000
  S   S82       1.0  0.47584  0.50833  0.76618  1.0000
  Fe  Fe45      1.0  0.40512  0.43636  0.67183  1.0000
  S   S83       1.0  0.37966  0.44068  0.70592  1.0000
  S   S84       1.0  0.44202  0.44366  0.67350  1.0000
  Fe  Fe46      1.0  0.37099  0.41799  0.63212  1.0000
  S   S85       1.0  0.34253  0.42090  0.66319  1.0000
  S   S86       1.0  0.36774  0.40112  0.59077  1.0000
  Fe  Fe47      1.0  0.35744  0.45376  0.67205  1.0000
  S   S87       1.0  0.33928  0.48556  0.68118  1.0000
  Fe  Fe48      1.0  0.36696  0.40750  0.69430  1.0000
  S   S88       1.0  0.36026  0.38332  0.72997  1.0000
  S   S89       1.0  0.38395  0.45196  0.63852  1.0000
  S   S90       1.0  0.39435  0.40198  0.66276  1.0000
  H   H232      1.0  0.48794  0.44125  0.75452  1.0000
  H   H233      1.0  0.44072  0.46273  0.61742  1.0000
  H   H234      1.0  0.30877  0.40058  0.72425  1.0000
  C   C230      1.0  0.04531  0.45032  0.88262  1.0000
  S   S91       1.0  0.23844  0.49628  0.64767  1.0000
  C   C231      1.0  0.22315  0.28369  0.77420  1.0000
  H   H235      1.0  0.35767  0.32122  0.66410  1.0000
  C   C232      1.0  0.05776  0.29423  0.95916  1.0000
  C   C233      1.0  0.36970  0.29620  0.72619  1.0000
  H   H236      1.0  0.12380  0.28933  0.92627  1.0000
  C   C234      1.0  0.30566  0.41818  0.72521  1.0000
  C   C235      1.0  0.37126  0.41621  0.55920  1.0000
  C   C236      1.0  0.21656  0.50593  0.54528  1.0000
  C   C237      1.0  0.37501  0.43887  0.55901  1.0000
  H   H237      1.0  0.20569  0.49229  0.54124  1.0000
  H   H238      1.0  0.37466  0.44768  0.57838  1.0000
  C   C238      1.0  0.31197  0.48919  0.66921  1.0000
  C   C239      1.0  0.30004  0.50827  0.67647  1.0000
  C   C240      1.0  0.27762  0.51088  0.66922  1.0000
  C   C241      1.0  0.26705  0.49445  0.65454  1.0000
  C   C242      1.0  0.27909  0.47555  0.64679  1.0000
  C   C243      1.0  0.30150  0.47287  0.65418  1.0000
  H   H239      1.0  0.07570  0.31109  0.92628  1.0000
  H   H240      1.0  0.41805  0.47348  0.59685  1.0000
  H   H241      1.0  0.27097  0.46278  0.63542  1.0000
  H   H242      1.0  0.31061  0.45815  0.64844  1.0000
  C   C244      1.0  0.34111  0.36166  0.72805  1.0000
  C   C245      1.0  0.32766  0.35904  0.70481  1.0000
  C   C246      1.0  0.31326  0.34098  0.70375  1.0000
  C   C247      1.0  0.31266  0.32519  0.72555  1.0000
  C   C248      1.0  0.32608  0.32790  0.74877  1.0000
  C   C249      1.0  0.34001  0.34622  0.75015  1.0000
  H   H243      1.0  0.32846  0.37080  0.68758  1.0000
  H   H244      1.0  0.30288  0.33898  0.68575  1.0000
  H   H245      1.0  0.32564  0.31599  0.76577  1.0000
  H   H246      1.0  0.35031  0.34820  0.76823  1.0000
  S   S92       1.0  0.04458  0.40988  0.90881  1.0000
  C   C250      1.0  0.36526  0.31832  0.68427  1.0000
  C   C251      1.0  0.10895  0.28265  0.91606  1.0000
  C   C252      1.0  0.46704  0.49075  0.73968  1.0000
  C   C253      1.0  0.44429  0.48615  0.73797  1.0000
  C   C254      1.0  0.43648  0.47184  0.71772  1.0000
  C   C255      1.0  0.45140  0.46190  0.69901  1.0000
  C   C256      1.0  0.47422  0.46649  0.70069  1.0000
  C   C257      1.0  0.48205  0.48090  0.72095  1.0000
  H   H247      1.0  0.43257  0.49370  0.75237  1.0000
  H   H248      1.0  0.41889  0.46858  0.71656  1.0000
  H   H249      1.0  0.48586  0.45891  0.68622  1.0000
  H   H250      1.0  0.49963  0.48436  0.72206  1.0000
  N   N21       1.0  0.28134  0.44946  0.71826  1.0000
  C   C258      1.0  0.28515  0.42724  0.71719  1.0000
  C   C259      1.0  0.29761  0.46313  0.72710  1.0000
  C   C260      1.0  0.31837  0.45465  0.73499  1.0000
  C   C261      1.0  0.25941  0.45836  0.71064  1.0000
  H   H251      1.0  0.27232  0.41640  0.71002  1.0000
  H   H252      1.0  0.29487  0.48080  0.72742  1.0000
  H   H253      1.0  0.25461  0.45247  0.68976  1.0000
  H   H254      1.0  0.24666  0.45323  0.72637  1.0000
  H   H255      1.0  0.25927  0.47665  0.70925  1.0000
  H   H256      1.0  0.06324  0.44905  0.88399  1.0000
  C   C262      1.0  0.52097  0.44594  0.82249  1.0000
  C   C263      1.0  0.42497  0.40492  0.58514  1.0000
  H   H257      1.0  0.40005  0.32322  0.77304  1.0000
  H   H258      1.0  0.37808  0.30407  0.78011  1.0000
  H   H259      1.0  0.22043  0.49678  0.58890  1.0000
  H   H260      1.0  0.05100  0.36553  0.00151  1.0000
  H   H261      1.0  0.44655  0.47551  0.58421  1.0000
  H   H262      1.0  0.40399  0.29441  0.76523  1.0000
  H   H263      1.0  0.48397  0.46395  0.85601  1.0000
  S   S93       1.0  0.51694  0.52467  0.81928  1.0000
  H   H264      1.0  0.33149  0.46566  0.74094  1.0000
  H   H265      1.0  0.53016  0.44704  0.84172  1.0000
  H   H266      1.0  0.43387  0.45787  0.54101  1.0000
  C   C264      1.0  0.42510  0.40396  0.55607  1.0000
  H   H267      1.0  0.24495  0.52812  0.59850  1.0000
  C   C265      1.0  0.49434  0.47319  0.84053  1.0000
  H   H268      1.0  0.27624  0.30117  0.78058  1.0000
  H   H269      1.0  0.50865  0.48049  0.85144  1.0000
  H   H270      1.0  0.52284  0.41927  0.76074  1.0000
  H   H271      1.0  0.48436  0.48715  0.83172  1.0000
  C   C266      1.0  0.37931  0.33397  0.69523  1.0000
  C   C267      1.0  0.42854  0.42505  0.59791  1.0000
  Fe  Fe49      1.0  0.06147  0.52980  0.79352  1.0000
  H   H272      1.0  0.30807  0.52089  0.68819  1.0000
  C   C268      1.0  0.07516  0.29646  0.93960  1.0000
  N   N22       1.0  0.23385  0.28348  0.82235  1.0000
  H   H273      1.0  0.34913  0.28721  0.69175  1.0000
  N   N23       1.0  0.38302  0.31186  0.73707  1.0000
  H   H274      1.0  0.39814  0.34324  0.73065  1.0000
  H   H275      1.0  0.26705  0.29335  0.83039  1.0000
  C   C269      1.0  0.43448  0.46492  0.59577  1.0000
  N   N24       1.0  0.50220  0.45847  0.81850  1.0000
  C   C270      1.0  0.49014  0.45649  0.79471  1.0000
  C   C271      1.0  0.39182  0.30835  0.76519  1.0000
  H   H276      1.0  0.53173  0.31274  0.95467  1.0000
  C   C272      1.0  0.36044  0.29927  0.69978  1.0000
  C   C273      1.0  0.25452  0.29091  0.81473  1.0000
  H   H277      1.0  0.47486  0.46590  0.79189  1.0000
  C   C274      1.0  0.43205  0.44295  0.55359  1.0000
  C   C275      1.0  0.22484  0.50834  0.57219  1.0000
  H   H278      1.0  0.04584  0.48236  0.86221  1.0000
  C   C276      1.0  0.49740  0.44244  0.77355  1.0000
  N   N25       1.0  0.43212  0.44370  0.58213  1.0000
  C   C277      1.0  0.32232  0.43202  0.73419  1.0000
  H   H279      1.0  0.42801  0.42571  0.62052  1.0000
  S   S94       1.0  0.29503  0.30230  0.72337  1.0000
  H   H280      1.0  0.33838  0.42524  0.74021  1.0000
  C   C278      1.0  0.38804  0.33050  0.72188  1.0000
  H   H281      1.0  0.04509  0.30696  0.96100  1.0000
  C   C279      1.0  0.04361  0.38130  0.00687  1.0000
  H   H282      1.0  0.42117  0.39038  0.59772  1.0000
  H   H283      1.0  0.38258  0.34920  0.68376  1.0000
  H   H284      1.0  0.53580  0.30590  0.87670  1.0000
  H   H285      1.0  0.24840  0.29418  0.74435  1.0000
  S   S95       1.0  0.04367  0.31001  0.86331  1.0000
  H   H286      1.0  0.04768  0.44770  0.74750  1.0000
  C   C280      1.0  0.51692  0.43010  0.77708  1.0000
  C   C281      1.0  0.05050  0.28375  0.87671  1.0000
  H   H287      1.0  0.10398  0.29382  0.89851  1.0000
  C   C282      1.0  0.52870  0.43167  0.80181  1.0000
  C   C283      1.0  0.24416  0.29136  0.76627  1.0000
  C   C284      1.0  0.25990  0.29516  0.78664  1.0000
  S   S96       1.0  0.03957  0.34856  0.92714  1.0000
  H   H288      1.0  0.14331  0.52274  0.76729  1.0000
  H   H289      1.0  0.26840  0.52538  0.67558  1.0000
  H   H290      1.0  0.22332  0.29620  0.86136  1.0000
  C   C285      1.0  0.10946  0.52752  0.75412  1.0000
  S   S97       1.0  0.09828  0.52321  0.78794  1.0000
  C   C286      1.0  0.37947  0.45014  0.53367  1.0000
  C   C287      1.0  0.23867  0.52595  0.57762  1.0000
  C   C288      1.0  0.13262  0.52697  0.75000  1.0000
  H   H291      1.0  0.03976  0.39188  0.96420  1.0000
  C   C289      1.0  0.42876  0.42305  0.54013  1.0000
  Fe  Fe50      1.0  0.22172  0.52917  0.65511  1.0000
  H   H292      1.0  0.05032  0.43168  0.79534  1.0000
  H   H293      1.0  0.38264  0.46762  0.53370  1.0000
  C   C290      1.0  0.37146  0.40502  0.53382  1.0000
  H   H294      1.0  0.36848  0.38750  0.53382  1.0000
  H   H295      1.0  0.36583  0.28146  0.73827  1.0000
  C   C291      1.0  0.03688  0.39611  0.98586  1.0000
  N   N26       1.0  0.39545  0.76040  0.23121  1.0000
  H   H296      1.0  0.40272  0.68489  0.04908  1.0000
  C   C292      1.0  0.53616  0.77862  0.18341  1.0000
  Fe  Fe51      1.0  0.45377  0.67222  0.20207  1.0000
  S   S98       1.0  0.43334  0.70128  0.21650  1.0000
  S   S99       1.0  0.46004  0.64382  0.23226  1.0000
  Fe  Fe52      1.0  0.45544  0.68875  0.14189  1.0000
  S   S100      1.0  0.43474  0.71874  0.15107  1.0000
  S   S101      1.0  0.47286  0.68274  0.10050  1.0000
  Fe  Fe53      1.0  0.45600  0.72145  0.18881  1.0000
  S   S102      1.0  0.46471  0.75612  0.20019  1.0000
  Fe  Fe54      1.0  0.41357  0.69640  0.17800  1.0000
  S   S103      1.0  0.37602  0.69996  0.17630  1.0000
  S   S104      1.0  0.47841  0.69293  0.17800  1.0000
  S   S105      1.0  0.43234  0.66585  0.16512  1.0000
  Fe  Fe55      1.0  0.06314  0.74501  0.14303  1.0000
  S   S106      1.0  0.10037  0.74707  0.13892  1.0000
  Fe  Fe56      1.0  0.06446  0.69795  0.16670  1.0000
  S   S107      1.0  0.10169  0.69572  0.16410  1.0000
  C   C293      1.0  0.07249  0.65202  0.21373  1.0000
  Fe  Fe57      1.0  0.10044  0.73001  0.18100  1.0000
  S   S108      1.0  0.11915  0.73847  0.21966  1.0000
  Fe  Fe58      1.0  0.09825  0.71284  0.12229  1.0000
  S   S109      1.0  0.11493  0.70112  0.08269  1.0000
  S   S110      1.0  0.06320  0.73097  0.18655  1.0000
  H   H297      1.0  0.09704  0.63655  0.24021  1.0000
  S   S111      1.0  0.23723  0.56253  0.44102  1.0000
  Fe  Fe59      1.0  0.20429  0.55069  0.37457  1.0000
  S   S112      1.0  0.19957  0.58214  0.39789  1.0000
  C   C294      1.0  0.09310  0.73546  0.05663  1.0000
  Fe  Fe60      1.0  0.23684  0.58142  0.40034  1.0000
  S   S113      1.0  0.25836  0.61134  0.39468  1.0000
  Fe  Fe61      1.0  0.20039  0.56040  0.43625  1.0000
  S   S114      1.0  0.17653  0.56114  0.47285  1.0000
  S   S115      1.0  0.24181  0.55140  0.37435  1.0000
  Fe  Fe62      1.0  0.28372  0.73865  0.28252  1.0000
  S   S116      1.0  0.26748  0.72820  0.32328  1.0000
  S   S117      1.0  0.32132  0.73488  0.28105  1.0000
  Fe  Fe63      1.0  0.23918  0.75052  0.25631  1.0000
  S   S118      1.0  0.22000  0.74088  0.29488  1.0000
  S   S119      1.0  0.22155  0.76114  0.21693  1.0000
  Fe  Fe64      1.0  0.24636  0.75881  0.31765  1.0000
  Fe  Fe65      1.0  0.24270  0.71156  0.29662  1.0000
  S   S120      1.0  0.22715  0.67801  0.29975  1.0000
  H   H298      1.0  0.06809  0.68327  0.07129  1.0000
  S   S121      1.0  0.26036  0.71983  0.25625  1.0000
  H   H299      1.0  0.21352  0.70564  0.19667  1.0000
  H   H300      1.0  0.42960  0.76277  0.24205  1.0000
  C   C295      1.0  0.04701  0.61448  0.22527  1.0000
  H   H301      1.0  0.51593  0.60448  0.14815  1.0000
  C   C296      1.0  0.05143  0.65025  0.20201  1.0000
  H   H302      1.0  0.14170  0.67987  0.27388  1.0000
  H   H303      1.0  0.21605  0.53216  0.48257  1.0000
  C   C297      1.0  0.38229  0.75611  0.18456  1.0000
  C   C298      1.0  0.03868  0.63150  0.20793  1.0000
  C   C299      1.0  0.24823  0.63045  0.36980  1.0000
  C   C300      1.0  0.23295  0.62406  0.34990  1.0000
  C   C301      1.0  0.22618  0.63901  0.32892  1.0000
  C   C302      1.0  0.23456  0.66044  0.32779  1.0000
  C   C303      1.0  0.24949  0.66701  0.34804  1.0000
  C   C304      1.0  0.25639  0.65199  0.36895  1.0000
  H   H304      1.0  0.22669  0.60744  0.35031  1.0000
  H   H305      1.0  0.21467  0.63384  0.31328  1.0000
  H   H306      1.0  0.25593  0.68353  0.34742  1.0000
  H   H307      1.0  0.26811  0.65702  0.38442  1.0000
  C   C305      1.0  0.20649  0.58432  0.50315  1.0000
  C   C306      1.0  0.18823  0.57027  0.50388  1.0000
  H   H308      1.0  0.38530  0.75092  0.16326  1.0000
  H   H309      1.0  0.21306  0.59036  0.48334  1.0000
  H   H310      1.0  0.17742  0.70082  0.17286  1.0000
  C   C307      1.0  0.46529  0.58892  0.19451  1.0000
  H   H311      1.0  0.28640  0.54462  0.42420  1.0000
  H   H312      1.0  0.34032  0.77219  0.22830  1.0000
  H   H313      1.0  0.48536  0.64688  0.15407  1.0000
  C   C308      1.0  0.30125  0.54470  0.41004  1.0000
  H   H314      1.0  0.08069  0.56434  0.36280  1.0000
  C   C309      1.0  0.14680  0.74757  0.21762  1.0000
  C   C310      1.0  0.15777  0.75139  0.24258  1.0000
  C   C311      1.0  0.18047  0.75631  0.24232  1.0000
  C   C312      1.0  0.19248  0.75736  0.21714  1.0000
  C   C313      1.0  0.18128  0.75462  0.19197  1.0000
  C   C314      1.0  0.15844  0.74961  0.19218  1.0000
  H   H315      1.0  0.14874  0.75021  0.26226  1.0000
  H   H316      1.0  0.29508  0.54122  0.38884  1.0000
  H   H317      1.0  0.19039  0.75573  0.17234  1.0000
  H   H318      1.0  0.15000  0.74686  0.17280  1.0000
  C   C315      1.0  0.13470  0.57749  0.37324  1.0000
  H   H319      1.0  0.41584  0.74948  0.19724  1.0000
  S   S122      1.0  0.04700  0.55569  0.30799  1.0000
  S   S123      1.0  0.07899  0.59539  0.25902  1.0000
  C   C316      1.0  0.43335  0.68442  0.07191  1.0000
  C   C317      1.0  0.45655  0.68291  0.07014  1.0000
  H   H320      1.0  0.18043  0.69640  0.27583  1.0000
  H   H321      1.0  0.42511  0.68564  0.09208  1.0000
  H   H322      1.0  0.12525  0.68668  0.24381  1.0000
  C   C318      1.0  0.36039  0.70732  0.20634  1.0000
  C   C319      1.0  0.33758  0.71223  0.20392  1.0000
  C   C320      1.0  0.32512  0.72000  0.22693  1.0000
  C   C321      1.0  0.33547  0.72289  0.25250  1.0000
  C   C322      1.0  0.35804  0.71722  0.25521  1.0000
  C   C323      1.0  0.37046  0.70947  0.23224  1.0000
  H   H323      1.0  0.32965  0.71053  0.18396  1.0000
  H   H324      1.0  0.30774  0.72438  0.22459  1.0000
  H   H325      1.0  0.36611  0.71928  0.27500  1.0000
  H   H326      1.0  0.38786  0.70543  0.23451  1.0000
  H   H327      1.0  0.23992  0.54963  0.51297  1.0000
  C   C324      1.0  0.35704  0.76800  0.22106  1.0000
  C   C325      1.0  0.50407  0.63494  0.21804  1.0000
  C   C326      1.0  0.48550  0.62915  0.23442  1.0000
  C   C327      1.0  0.48669  0.61051  0.25213  1.0000
  C   C328      1.0  0.50608  0.59735  0.25295  1.0000
  H   H328      1.0  0.12577  0.58765  0.28406  1.0000
  H   H329      1.0  0.50337  0.64937  0.20453  1.0000
  H   H330      1.0  0.47239  0.60599  0.26490  1.0000
  H   H331      1.0  0.50665  0.58280  0.26629  1.0000
  C   C329      1.0  0.50895  0.74928  0.18645  1.0000
  C   C330      1.0  0.49245  0.76437  0.19461  1.0000
  H   H332      1.0  0.48579  0.56219  0.21018  1.0000
  C   C331      1.0  0.50285  0.58151  0.17852  1.0000
  H   H333      1.0  0.50495  0.73214  0.18439  1.0000
  C   C332      1.0  0.14469  0.54171  0.31318  1.0000
  H   H334      1.0  0.21482  0.70290  0.24840  1.0000
  N   N27       1.0  0.15987  0.69450  0.23997  1.0000
  H   H335      1.0  0.15581  0.59350  0.34286  1.0000
  S   S124      1.0  0.03967  0.77027  0.12453  1.0000
  H   H336      1.0  0.49336  0.63130  0.12377  1.0000
  H   H337      1.0  0.18855  0.75944  0.26165  1.0000
  C   C333      1.0  0.48141  0.63223  0.14167  1.0000
  H   H338      1.0  0.30860  0.56137  0.40997  1.0000
  H   H339      1.0  0.11023  0.56034  0.39846  1.0000
  C   C334      1.0  0.10183  0.58211  0.33351  1.0000
  C   C335      1.0  0.07899  0.66291  0.03754  1.0000
  C   C336      1.0  0.06809  0.61625  0.23693  1.0000
  H   H340      1.0  0.41034  0.76799  0.27010  1.0000
  H   H341      1.0  0.14445  0.60699  0.29905  1.0000
  H   H342      1.0  0.45138  0.58539  0.20853  1.0000
  Fe  Fe66      1.0  0.05959  0.56399  0.26473  1.0000
  H   H343      1.0  0.08992  0.74180  0.07727  1.0000
  C   C337      1.0  0.09699  0.57139  0.35895  1.0000
  H   H344      1.0  0.37106  0.76995  0.26176  1.0000
  Fe  Fe67      1.0  0.23879  0.53238  0.41490  1.0000
  C   C338      1.0  0.06670  0.68026  0.04913  1.0000
  C   C339      1.0  0.10591  0.71632  0.05328  1.0000
  H   H345      1.0  0.08901  0.58352  0.31783  1.0000
  C   C340      1.0  0.36097  0.76259  0.19323  1.0000
  H   H346      1.0  0.14320  0.69465  0.20097  1.0000
  C   C341      1.0  0.13935  0.69212  0.25667  1.0000
  C   C342      1.0  0.17834  0.69916  0.19540  1.0000
  C   C343      1.0  0.46702  0.68128  0.04381  1.0000
  C   C344      1.0  0.19856  0.70186  0.20873  1.0000
  C   C345      1.0  0.46448  0.60725  0.17643  1.0000
  S   S125      1.0  0.04057  0.67134  0.18019  1.0000
  S   S126      1.0  0.06112  0.71199  0.12347  1.0000
  N   N28       1.0  0.12266  0.59009  0.32800  1.0000
  C   C346      1.0  0.19928  0.70057  0.23779  1.0000
  C   C347      1.0  0.17969  0.69691  0.25320  1.0000
  C   C348      1.0  0.12740  0.60015  0.30053  1.0000
  N   N29       1.0  0.48231  0.61238  0.15952  1.0000
  H   H347      1.0  0.46460  0.63464  0.13263  1.0000
  C   C349      1.0  0.52450  0.60290  0.23622  1.0000
  N   N30       1.0  0.30622  0.67105  0.31062  1.0000
  C   C350      1.0  0.29669  0.67657  0.28569  1.0000
  C   C351      1.0  0.30102  0.65166  0.32406  1.0000
  C   C352      1.0  0.28144  0.66256  0.27358  1.0000
  C   C353      1.0  0.28607  0.63711  0.31235  1.0000
  C   C354      1.0  0.27611  0.64273  0.28706  1.0000
  C   C355      1.0  0.32147  0.68653  0.32320  1.0000
  H   H348      1.0  0.30064  0.69204  0.27523  1.0000
  H   H349      1.0  0.30795  0.64752  0.34427  1.0000
  H   H350      1.0  0.27337  0.66732  0.25427  1.0000
  H   H351      1.0  0.28145  0.62208  0.32347  1.0000
  H   H352      1.0  0.26370  0.63209  0.27843  1.0000
  H   H353      1.0  0.32980  0.67935  0.34183  1.0000
  H   H354      1.0  0.33462  0.69149  0.30780  1.0000
  H   H355      1.0  0.31217  0.70160  0.32959  1.0000
  H   H356      1.0  0.13453  0.70830  0.26555  1.0000
  C   C356      1.0  0.11357  0.56909  0.37890  1.0000
  H   H357      1.0  0.11524  0.61367  0.29610  1.0000
  C   C357      1.0  0.48461  0.57597  0.19550  1.0000
  C   C358      1.0  0.52433  0.75537  0.10629  1.0000
  H   H358      1.0  0.14787  0.57526  0.38833  1.0000
  H   H359      1.0  0.44975  0.61778  0.17675  1.0000
  S   S127      1.0  0.07944  0.53279  0.25955  1.0000
  H   H360      1.0  0.34734  0.76261  0.17864  1.0000
  S   S128      1.0  0.18585  0.54747  0.33425  1.0000
  H   H361      1.0  0.47630  0.72755  0.11809  1.0000
  C   C359      1.0  0.42068  0.68399  0.04750  1.0000
  C   C360      1.0  0.13904  0.58790  0.34746  1.0000
  H   H362      1.0  0.15071  0.55148  0.29558  1.0000
  H   H363      1.0  0.08232  0.66650  0.20951  1.0000
  C   C361      1.0  0.08076  0.63508  0.23119  1.0000
  C   C362      1.0  0.50144  0.59993  0.16062  1.0000
  C   C363      1.0  0.15901  0.69559  0.21144  1.0000
  H   H364      1.0  0.41468  0.74015  0.25821  1.0000
  C   C364      1.0  0.41335  0.75771  0.25146  1.0000
  C   C365      1.0  0.48787  0.74110  0.11725  1.0000
  H   H365      1.0  0.51827  0.57209  0.18010  1.0000
  C   C366      1.0  0.48131  0.76183  0.12653  1.0000
  C   C367      1.0  0.39944  0.75507  0.20395  1.0000
  H   H366      1.0  0.03804  0.77399  0.18508  1.0000
  C   C368      1.0  0.23574  0.53784  0.52945  1.0000
  C   C369      1.0  0.12275  0.53420  0.31364  1.0000
  C   C370      1.0  0.50949  0.73777  0.10709  1.0000
  C   C371      1.0  0.52357  0.62188  0.21907  1.0000
  C   C372      1.0  0.15873  0.53704  0.33558  1.0000
  C   C373      1.0  0.51569  0.54426  0.38514  1.0000
  H   H367      1.0  0.51643  0.55579  0.40278  1.0000
  H   H368      1.0  0.48496  0.68002  0.04232  1.0000
  H   H369      1.0  0.51461  0.72157  0.10002  1.0000
  H   H370      1.0  0.51371  0.55378  0.36525  1.0000
  H   H371      1.0  0.11210  0.53842  0.29655  1.0000
  S   S129      1.0  0.26432  0.77057  0.27879  1.0000
  H   H372      1.0  0.08971  0.65278  0.05067  1.0000
  C   C374      1.0  0.53074  0.75639  0.18092  1.0000
  H   H373      1.0  0.46471  0.76438  0.13524  1.0000
  H   H374      1.0  0.07400  0.76105  0.03615  1.0000
  C   C375      1.0  0.37455  0.76667  0.23993  1.0000
  C   C376      1.0  0.17950  0.56296  0.52967  1.0000
  H   H375      1.0  0.16527  0.55220  0.53032  1.0000
  H   H376      1.0  0.23004  0.60198  0.52747  1.0000
  C   C377      1.0  0.21599  0.59101  0.52815  1.0000
  N   N31       1.0  0.05404  0.69388  0.03257  1.0000
  H   H377      1.0  0.04954  0.71828  0.06369  1.0000
  N   N32       1.0  0.51779  0.77566  0.11552  1.0000
  C   C378      1.0  0.08404  0.74633  0.03330  1.0000
  C   C379      1.0  0.04119  0.71199  0.04497  1.0000
  C   C380      1.0  0.49655  0.77906  0.12539  1.0000
  S   S130      1.0  0.23451  0.77961  0.35385  1.0000
  H   H378      1.0  0.03710  0.60008  0.22966  1.0000
  H   H379      1.0  0.50054  0.53408  0.38823  1.0000
  C   C381      1.0  0.47657  0.60049  0.77926  1.0000
  H   H380      1.0  0.08749  0.64599  0.99956  1.0000
  H   H381      1.0  0.35412  0.63961  0.95068  1.0000
  Fe  Fe68      1.0  0.43875  0.65715  0.89333  1.0000
  S   S131      1.0  0.44430  0.68816  0.86792  1.0000
  S   S132      1.0  0.44026  0.62302  0.87512  1.0000
  Fe  Fe69      1.0  0.42912  0.68200  0.94742  1.0000
  S   S133      1.0  0.43475  0.71473  0.92644  1.0000
  S   S134      1.0  0.41438  0.68128  0.99123  1.0000
  Fe  Fe70      1.0  0.41451  0.70173  0.89143  1.0000
  S   S135      1.0  0.38689  0.72505  0.87745  1.0000
  Fe  Fe71      1.0  0.46373  0.69828  0.90516  1.0000
  S   S136      1.0  0.49847  0.71150  0.90182  1.0000
  S   S137      1.0  0.40717  0.66984  0.91358  1.0000
  S   S138      1.0  0.45998  0.66639  0.92926  1.0000
  C   C382      1.0  0.43633  0.61253  0.80402  1.0000
  S   S139      1.0  0.06495  0.75475  0.90036  1.0000
  Fe  Fe72      1.0  0.06586  0.69102  0.90543  1.0000
  S   S140      1.0  0.09616  0.71099  0.91425  1.0000
  H   H382      1.0  0.50727  0.71738  0.96552  1.0000
  Fe  Fe73      1.0  0.07234  0.73310  0.93755  1.0000
  S   S141      1.0  0.07349  0.75063  0.97838  1.0000
  Fe  Fe74      1.0  0.08591  0.73064  0.87629  1.0000
  S   S142      1.0  0.10813  0.74011  0.83971  1.0000
  S   S143      1.0  0.05700  0.70929  0.86601  1.0000
  Fe  Fe75      1.0  0.21091  0.57146  0.62340  1.0000
  S   S144      1.0  0.22058  0.59096  0.58480  1.0000
  Fe  Fe76      1.0  0.21770  0.57254  0.68586  1.0000
  S   S145      1.0  0.20253  0.53925  0.69355  1.0000
  S   S146      1.0  0.23154  0.59189  0.72122  1.0000
  C   C383      1.0  0.22875  0.64045  0.62693  1.0000
  Fe  Fe77      1.0  0.17660  0.55139  0.66361  1.0000
  S   S147      1.0  0.04736  0.54048  0.83512  1.0000
  S   S148      1.0  0.23948  0.56118  0.65036  1.0000
  S   S149      1.0  0.19048  0.58539  0.65852  1.0000
  Fe  Fe78      1.0  0.25612  0.75976  0.76715  1.0000
  S   S150      1.0  0.26655  0.74794  0.80984  1.0000
  Fe  Fe79      1.0  0.23795  0.71482  0.75261  1.0000
  S   S151      1.0  0.24672  0.69981  0.79410  1.0000
  S   S152      1.0  0.22104  0.69563  0.71917  1.0000
  Fe  Fe80      1.0  0.23331  0.73133  0.81150  1.0000
  S   S153      1.0  0.21259  0.73133  0.85120  1.0000
  Fe  Fe81      1.0  0.27907  0.71761  0.78848  1.0000
  S   S154      1.0  0.31167  0.69892  0.79387  1.0000
  S   S155      1.0  0.22202  0.74539  0.77038  1.0000
  S   S156      1.0  0.27123  0.73056  0.74541  1.0000
  S   S157      1.0  0.53040  0.58972  0.81881  1.0000
  H   H383      1.0  0.15479  0.66983  0.88067  1.0000
  C   C384      1.0  0.07788  0.65924  0.00892  1.0000
  C   C385      1.0  0.20751  0.58337  0.55393  1.0000
  C   C386      1.0  0.05959  0.61668  0.88075  1.0000
  C   C387      1.0  0.18923  0.56934  0.55466  1.0000
  N   N33       1.0  0.46020  0.58523  0.78306  1.0000
  H   H384      1.0  0.18238  0.56362  0.57444  1.0000
  C   C388      1.0  0.45434  0.68105  0.01935  1.0000
  H   H385      1.0  0.08613  0.70523  0.81001  1.0000
  H   H386      1.0  0.26694  0.67578  0.70003  1.0000
  H   H387      1.0  0.13430  0.69584  0.80120  1.0000
  H   H388      1.0  0.18139  0.59095  0.72188  1.0000
  H   H389      1.0  0.24227  0.60801  0.63441  1.0000
  H   H390      1.0  0.47518  0.56116  0.75652  1.0000
  H   H391      1.0  0.44909  0.55328  0.77165  1.0000
  N   N34       1.0  0.25739  0.65370  0.66828  1.0000
  C   C389      1.0  0.13023  0.68728  0.82065  1.0000
  C   C390      1.0  0.22663  0.62050  0.72228  1.0000
  C   C391      1.0  0.23828  0.63298  0.74137  1.0000
  C   C392      1.0  0.23599  0.65600  0.74139  1.0000
  C   C393      1.0  0.22184  0.66669  0.72248  1.0000
  C   C394      1.0  0.20948  0.65414  0.70416  1.0000
  C   C395      1.0  0.21195  0.63113  0.70395  1.0000
  H   H392      1.0  0.24963  0.62488  0.75569  1.0000
  H   H393      1.0  0.24587  0.66544  0.75532  1.0000
  H   H394      1.0  0.19844  0.66229  0.68952  1.0000
  H   H395      1.0  0.20280  0.62178  0.68923  1.0000
  C   C396      1.0  0.08728  0.73786  0.00654  1.0000
  C   C397      1.0  0.10048  0.71896  0.00299  1.0000
  C   C398      1.0  0.35474  0.76622  0.80059  1.0000
  H   H396      1.0  0.10319  0.71244  0.98236  1.0000
  C   C399      1.0  0.06450  0.67287  0.99230  1.0000
  C   C400      1.0  0.35251  0.65647  0.94306  1.0000
  S   S158      1.0  0.06860  0.65405  0.90976  1.0000
  H   H397      1.0  0.42776  0.57863  0.79975  1.0000
  C   C401      1.0  0.04922  0.60476  0.85977  1.0000
  C   C402      1.0  0.11003  0.70837  0.02634  1.0000
  C   C403      1.0  0.13705  0.73757  0.84349  1.0000
  C   C404      1.0  0.14661  0.73410  0.86964  1.0000
  C   C405      1.0  0.16983  0.73187  0.87178  1.0000
  C   C406      1.0  0.18350  0.73277  0.84779  1.0000
  C   C407      1.0  0.17384  0.73591  0.82165  1.0000
  C   C408      1.0  0.15072  0.73861  0.81955  1.0000
  H   H398      1.0  0.13618  0.73344  0.88822  1.0000
  H   H399      1.0  0.17722  0.72957  0.89210  1.0000
  H   H400      1.0  0.18414  0.73654  0.80306  1.0000
  H   H401      1.0  0.14338  0.74128  0.79927  1.0000
  C   C409      1.0  0.36504  0.71633  0.85644  1.0000
  C   C410      1.0  0.36631  0.69648  0.84225  1.0000
  C   C411      1.0  0.34929  0.69089  0.82396  1.0000
  C   C412      1.0  0.33081  0.70494  0.82006  1.0000
  C   C413      1.0  0.32906  0.72429  0.83527  1.0000
  C   C414      1.0  0.34623  0.73004  0.85325  1.0000
  H   H402      1.0  0.38070  0.68578  0.84472  1.0000
  H   H403      1.0  0.35070  0.67587  0.81226  1.0000
  H   H404      1.0  0.31489  0.73520  0.83241  1.0000
  H   H405      1.0  0.34510  0.74535  0.86436  1.0000
  S   S159      1.0  0.52672  0.54868  0.75879  1.0000
  C   C415      1.0  0.12830  0.53855  0.70158  1.0000
  H   H406      1.0  0.07121  0.60842  0.89456  1.0000
  C   C416      1.0  0.22933  0.66249  0.63449  1.0000
  H   H407      1.0  0.46250  0.67957  0.99916  1.0000
  H   H408      1.0  0.24403  0.68602  0.66132  1.0000
  C   C417      1.0  0.14718  0.68281  0.83972  1.0000
  C   C418      1.0  0.50204  0.73966  0.89445  1.0000
  C   C419      1.0  0.52369  0.74788  0.89300  1.0000
  C   C420      1.0  0.48752  0.76976  0.95839  1.0000
  H   H409      1.0  0.15987  0.53246  0.72098  1.0000
  H   H410      1.0  0.30246  0.76668  0.75498  1.0000
  C   C421      1.0  0.46650  0.61322  0.86328  1.0000
  C   C422      1.0  0.48430  0.62754  0.85880  1.0000
  C   C423      1.0  0.50413  0.61992  0.84605  1.0000
  C   C424      1.0  0.50637  0.59793  0.83787  1.0000
  C   C425      1.0  0.48890  0.58340  0.84337  1.0000
  C   C426      1.0  0.46900  0.59105  0.85591  1.0000
  H   H411      1.0  0.48258  0.64464  0.86447  1.0000
  H   H412      1.0  0.47200  0.73786  0.95773  1.0000
  H   H413      1.0  0.49056  0.56637  0.83754  1.0000
  H   H414      1.0  0.45534  0.57987  0.85951  1.0000
  H   H415      1.0  0.25427  0.55503  0.56042  1.0000
  C   C427      1.0  0.46467  0.56227  0.77575  1.0000
  H   H416      1.0  0.03990  0.72620  0.03007  1.0000
  C   C428      1.0  0.09571  0.53273  0.73162  1.0000
  C   C429      1.0  0.48728  0.74678  0.96067  1.0000
  H   H417      1.0  0.33022  0.73637  0.75164  1.0000
  H   H418      1.0  0.48641  0.63409  0.78552  1.0000
  N   N35       1.0  0.10869  0.68174  0.82689  1.0000
  H   H419      1.0  0.27546  0.64786  0.70570  1.0000
  N   N36       1.0  0.35150  0.74963  0.78220  1.0000
  H   H420      1.0  0.51761  0.63126  0.84206  1.0000
  C   C430      1.0  0.44035  0.59093  0.79553  1.0000
  H   H421      1.0  0.21752  0.63513  0.61089  1.0000
  C   C431      1.0  0.25693  0.63205  0.66097  1.0000
  C   C432      1.0  0.11991  0.66719  0.87155  1.0000
  C   C433      1.0  0.14191  0.67285  0.86541  1.0000
  H   H422      1.0  0.15348  0.57372  0.78870  1.0000
  H   H423      1.0  0.26735  0.61990  0.67154  1.0000
  H   H424      1.0  0.36085  0.71650  0.77334  1.0000
  C   C434      1.0  0.24265  0.62514  0.64019  1.0000
  H   H425      1.0  0.16416  0.68772  0.83498  1.0000
  H   H426      1.0  0.33464  0.64806  0.90615  1.0000
  S   S160      1.0  0.13943  0.54829  0.66949  1.0000
  C   C435      1.0  0.05257  0.69019  0.00458  1.0000
  C   C436      1.0  0.24396  0.66891  0.65519  1.0000
  C   C437      1.0  0.50714  0.73526  0.96515  1.0000
  H   H427      1.0  0.49277  0.59568  0.77091  1.0000
  H   H428      1.0  0.06355  0.67017  0.96998  1.0000
  C   C438      1.0  0.10343  0.67184  0.85195  1.0000
  H   H429      1.0  0.08635  0.66770  0.85704  1.0000
  C   C439      1.0  0.48387  0.75411  0.89153  1.0000
  C   C440      1.0  0.47309  0.62225  0.78748  1.0000
  C   C441      1.0  0.33295  0.74964  0.76600  1.0000
  H   H430      1.0  0.04245  0.70093  0.99156  1.0000
  H   H431      1.0  0.09674  0.68537  0.78537  1.0000
  H   H432      1.0  0.07600  0.67741  0.81087  1.0000
  S   S161      1.0  0.04380  0.55586  0.76839  1.0000
  C   C442      1.0  0.52646  0.76980  0.96604  1.0000
  C   C443      1.0  0.05495  0.63919  0.88390  1.0000
  S   S162      1.0  0.19448  0.53862  0.62554  1.0000
  N   N37       1.0  0.36035  0.69487  0.94808  1.0000
  C   C444      1.0  0.34981  0.69963  0.92357  1.0000
  C   C445      1.0  0.36184  0.67361  0.95788  1.0000
  C   C446      1.0  0.34023  0.68292  0.90826  1.0000
  C   C447      1.0  0.34167  0.66120  0.91807  1.0000
  C   C448      1.0  0.37145  0.71246  0.96280  1.0000
  H   H433      1.0  0.34916  0.71640  0.91544  1.0000
  H   H434      1.0  0.37071  0.66972  0.97694  1.0000
  H   H435      1.0  0.33213  0.68678  0.88863  1.0000
  H   H436      1.0  0.38850  0.71465  0.95392  1.0000
  H   H437      1.0  0.36212  0.72828  0.96079  1.0000
  H   H438      1.0  0.37297  0.70843  0.98545  1.0000
  H   H439      1.0  0.19415  0.77725  0.86499  1.0000
  H   H440      1.0  0.46711  0.74782  0.89240  1.0000
  H   H441      1.0  0.12002  0.69361  0.02366  1.0000
  H   H442      1.0  0.05282  0.58741  0.85755  1.0000
  C   C449      1.0  0.43109  0.68224  0.02117  1.0000
  C   C450      1.0  0.24410  0.54088  0.55619  1.0000
  H   H443      1.0  0.21839  0.67450  0.62454  1.0000
  H   H444      1.0  0.18456  0.59174  0.75880  1.0000
  C   C451      1.0  0.09102  0.68768  0.80728  1.0000
  C   C452      1.0  0.14204  0.53253  0.72381  1.0000
  C   C453      1.0  0.10512  0.53823  0.70542  1.0000
  C   C454      1.0  0.52724  0.77050  0.88934  1.0000
  H   H445      1.0  0.11256  0.57328  0.79571  1.0000
  C   C455      1.0  0.27317  0.66080  0.68923  1.0000
  C   C456      1.0  0.45283  0.62826  0.79996  1.0000
  H   H446      1.0  0.28949  0.66442  0.67913  1.0000
  H   H447      1.0  0.18199  0.56560  0.74182  1.0000
  C   C457      1.0  0.52688  0.74680  0.96798  1.0000
  N   N38       1.0  0.15184  0.58383  0.74590  1.0000
  C   C458      1.0  0.13835  0.58872  0.72382  1.0000
  C   C459      1.0  0.14283  0.57853  0.77153  1.0000
  C   C460      1.0  0.11519  0.58885  0.72729  1.0000
  C   C461      1.0  0.11972  0.57842  0.77570  1.0000
  C   C462      1.0  0.10586  0.58368  0.75342  1.0000
  C   C463      1.0  0.17607  0.58298  0.74191  1.0000
  H   H448      1.0  0.14540  0.59171  0.70310  1.0000
  H   H449      1.0  0.10459  0.59189  0.70947  1.0000
  H   H450      1.0  0.47344  0.55363  0.79308  1.0000
  H   H451      1.0  0.08793  0.58280  0.75616  1.0000
  H   H452      1.0  0.45032  0.64475  0.80785  1.0000
  Fe  Fe82      1.0  0.53420  0.55484  0.80357  1.0000
  S   S163      1.0  0.04309  0.71131  0.93217  1.0000
  H   H453      1.0  0.36942  0.76617  0.81352  1.0000
  H   H454      1.0  0.42102  0.61681  0.81509  1.0000
  H   H455      1.0  0.11549  0.65959  0.89155  1.0000
  C   C464      1.0  0.03988  0.64970  0.86601  1.0000
  H   H456      1.0  0.09442  0.54271  0.68822  1.0000
  Fe  Fe83      1.0  0.03690  0.73172  0.89362  1.0000
  H   H457      1.0  0.37775  0.72938  0.79845  1.0000
  C   C465      1.0  0.36855  0.73240  0.77874  1.0000
  C   C466      1.0  0.31705  0.76655  0.76800  1.0000
  H   H458      1.0  0.07784  0.53282  0.73445  1.0000
  H   H459      1.0  0.38055  0.73729  0.76198  1.0000
  C   C467      1.0  0.48746  0.77684  0.88805  1.0000
  H   H460      1.0  0.47214  0.77854  0.95389  1.0000
  C   C468      1.0  0.52485  0.93465  0.23021  1.0000
  H   H461      1.0  0.53025  0.80580  0.13082  1.0000
  H   H462      1.0  0.17575  0.86857  0.35205  1.0000
  H   H463      1.0  0.19527  0.87826  0.30762  1.0000
  H   H464      1.0  0.45124  0.02072  0.39432  1.0000
  Fe  Fe84      1.0  0.06808  0.01830  0.31312  1.0000
  H   H465      1.0  0.25538  0.92648  0.49501  1.0000
  C   C469      1.0  0.46870  0.02496  0.39259  1.0000
  C   C470      1.0  0.19010  0.92637  0.51862  1.0000
  H   H466      1.0  0.23739  0.95297  0.46214  1.0000
  Fe  Fe85      1.0  0.21590  0.94865  0.41222  1.0000
  S   S164      1.0  0.18652  0.93997  0.43958  1.0000
  S   S165      1.0  0.22760  0.98356  0.41656  1.0000
  Fe  Fe86      1.0  0.21800  0.90327  0.38591  1.0000
  S   S166      1.0  0.18900  0.89098  0.41155  1.0000
  S   S167      1.0  0.23593  0.88402  0.35205  1.0000
  Fe  Fe87      1.0  0.17328  0.92400  0.40149  1.0000
  S   S168      1.0  0.13726  0.92614  0.38835  1.0000
  Fe  Fe88      1.0  0.20492  0.90819  0.44727  1.0000
  S   S169      1.0  0.21093  0.89280  0.49001  1.0000
  S   S170      1.0  0.20120  0.93523  0.37337  1.0000
  S   S171      1.0  0.23535  0.91789  0.42229  1.0000
  H   H467      1.0  0.31711  0.02121  0.35154  1.0000
  C   C471      1.0  0.23744  0.85498  0.35418  1.0000
  C   C472      1.0  0.22788  0.84329  0.37665  1.0000
  C   C473      1.0  0.22780  0.82015  0.37667  1.0000
  C   C474      1.0  0.23721  0.80852  0.35426  1.0000
  C   C475      1.0  0.24734  0.82018  0.33215  1.0000
  C   C476      1.0  0.24746  0.84334  0.33215  1.0000
  H   H468      1.0  0.22027  0.85207  0.39382  1.0000
  H   H469      1.0  0.22005  0.81122  0.39392  1.0000
  H   H470      1.0  0.25484  0.81140  0.31493  1.0000
  H   H471      1.0  0.25504  0.85230  0.31482  1.0000
  H   H472      1.0  0.21753  0.98574  0.48012  1.0000
  H   H473      1.0  0.52069  0.97267  0.17344  1.0000
  N   N39       1.0  0.07046  0.01197  0.39826  1.0000
  C   C477      1.0  0.52505  0.93397  0.15096  1.0000
  H   H474      1.0  0.18273  0.93130  0.49904  1.0000
  C   C478      1.0  0.11222  0.98960  0.34552  1.0000
  C   C479      1.0  0.09914  0.97071  0.34597  1.0000
  C   C480      1.0  0.10727  0.95107  0.35836  1.0000
  C   C481      1.0  0.12849  0.95021  0.37026  1.0000
  C   C482      1.0  0.14179  0.96892  0.36906  1.0000
  C   C483      1.0  0.13365  0.98855  0.35676  1.0000
  H   H475      1.0  0.08262  0.97136  0.33734  1.0000
  H   H476      1.0  0.09694  0.93662  0.35917  1.0000
  H   H477      1.0  0.15815  0.96843  0.37816  1.0000
  H   H478      1.0  0.14385  0.00310  0.35643  1.0000
  H   H479      1.0  0.12002  0.99130  0.41974  1.0000
  H   H480      1.0  0.48523  0.79835  0.20366  1.0000
  C   C484      1.0  0.17869  0.83358  0.34575  1.0000
  H   H481      1.0  0.53130  0.80307  0.09325  1.0000
  C   C485      1.0  0.19237  0.86111  0.31314  1.0000
  H   H482      1.0  0.52291  0.98256  0.13767  1.0000
  S   S172      1.0  0.06056  0.00959  0.26896  1.0000
  H   H483      1.0  0.32498  0.01733  0.49474  1.0000
  C   C486      1.0  0.30173  0.99922  0.41713  1.0000
  C   C487      1.0  0.28570  0.01553  0.42238  1.0000
  C   C488      1.0  0.26303  0.01031  0.42318  1.0000
  C   C489      1.0  0.25622  0.98872  0.41876  1.0000
  C   C490      1.0  0.27222  0.97215  0.41467  1.0000
  C   C491      1.0  0.29496  0.97741  0.41390  1.0000
  H   H484      1.0  0.04400  0.96167  0.21146  1.0000
  H   H485      1.0  0.51705  0.00693  0.36461  1.0000
  H   H486      1.0  0.26712  0.95546  0.41111  1.0000
  H   H487      1.0  0.30728  0.96468  0.40987  1.0000
  H   H488      1.0  0.22209  0.81070  0.27426  1.0000
  C   C492      1.0  0.18147  0.85567  0.33820  1.0000
  C   C493      1.0  0.08997  0.97266  0.41666  1.0000
  H   H489      1.0  0.50954  0.92794  0.23877  1.0000
  H   H490      1.0  0.42125  0.01532  0.33274  1.0000
  H   H491      1.0  0.05806  0.95828  0.40931  1.0000
  S   S173      1.0  0.33003  0.00585  0.41238  1.0000
  C   C494      1.0  0.49792  0.78660  0.19732  1.0000
  C   C495      1.0  0.06768  0.97326  0.40890  1.0000
  C   C496      1.0  0.53324  0.79414  0.11351  1.0000
  H   H492      1.0  0.03667  0.89704  0.24740  1.0000
  S   S174      1.0  0.10175  0.01525  0.33347  1.0000
  H   H493      1.0  0.26989  0.96929  0.34499  1.0000
  N   N40       1.0  0.19809  0.82271  0.30386  1.0000
  C   C497      1.0  0.53177  0.97357  0.15462  1.0000
  C   C498      1.0  0.51972  0.79375  0.19163  1.0000
  H   H494      1.0  0.18560  0.80006  0.33470  1.0000
  C   C499      1.0  0.27352  0.98663  0.34701  1.0000
  C   C500      1.0  0.18712  0.81720  0.32821  1.0000
  S   S175      1.0  0.52518  0.00039  0.29585  1.0000
  C   C501      1.0  0.50534  0.01735  0.37587  1.0000
  C   C502      1.0  0.52952  0.95709  0.23354  1.0000
  C   C503      1.0  0.22571  0.97438  0.49457  1.0000
  C   C504      1.0  0.20048  0.84433  0.29600  1.0000
  C   C505      1.0  0.26121  0.02397  0.35488  1.0000
  C   C506      1.0  0.29552  0.99375  0.34677  1.0000
  C   C507      1.0  0.20465  0.90829  0.51981  1.0000
  H   H495      1.0  0.20930  0.84872  0.27683  1.0000
  C   C508      1.0  0.22508  0.97794  0.52335  1.0000
  C   C509      1.0  0.25623  0.00181  0.35109  1.0000
  S   S176      1.0  0.46367  0.01910  0.30487  1.0000
  C   C510      1.0  0.20681  0.80532  0.28573  1.0000
  H   H496      1.0  0.21165  0.79047  0.29821  1.0000
  N   N41       1.0  0.48334  0.01195  0.37800  1.0000
  C   C511      1.0  0.05812  0.99319  0.39974  1.0000
  C   C512      1.0  0.29991  0.01602  0.35071  1.0000
  H   H497      1.0  0.45785  0.99296  0.35987  1.0000
  C   C513      1.0  0.47568  0.99156  0.36565  1.0000
  H   H498      1.0  0.30914  0.98199  0.34468  1.0000
  H   H499      1.0  0.50993  0.93591  0.16341  1.0000
  C   C514      1.0  0.24724  0.94123  0.50283  1.0000
  C   C515      1.0  0.23688  0.95592  0.48436  1.0000
  H   H500      1.0  0.16563  0.87485  0.52933  1.0000
  H   H501      1.0  0.47795  0.97754  0.38052  1.0000
  C   C516      1.0  0.10243  0.99185  0.41498  1.0000
  H   H502      1.0  0.52069  0.89895  0.14707  1.0000
  H   H503      1.0  0.04087  0.99344  0.39339  1.0000
  H   H504      1.0  0.48497  0.98818  0.34588  1.0000
  H   H505      1.0  0.09787  0.95717  0.42281  1.0000
  H   H506      1.0  0.51774  0.96762  0.24439  1.0000
  C   C517      1.0  0.04237  0.92977  0.23165  1.0000
  S   S177      1.0  0.53241  0.89351  0.20889  1.0000
  H   H507      1.0  0.17075  0.82918  0.36553  1.0000
  Fe  Fe89      1.0  0.49929  0.02736  0.29365  1.0000
  H   H508      1.0  0.52379  0.81094  0.19365  1.0000
  H   H509      1.0  0.23911  0.99627  0.35241  1.0000
  H   H510      1.0  0.19408  0.80076  0.27038  1.0000
  H   H511      1.0  0.05041  0.93511  0.25046  1.0000
  C   C518      1.0  0.09241  0.01143  0.40542  1.0000
  H   H512      1.0  0.25070  0.02316  0.42650  1.0000
  H   H513      1.0  0.49142  0.79503  0.13312  1.0000
  H   H514      1.0  0.10249  0.02603  0.40282  1.0000
  C   C519      1.0  0.03873  0.94474  0.20973  1.0000
  C   C520      1.0  0.53102  0.91299  0.14170  1.0000
  H   H515      1.0  0.21621  0.99225  0.53118  1.0000
  C   C521      1.0  0.24646  0.94538  0.53146  1.0000
  C   C522      1.0  0.42859  0.03059  0.33899  1.0000
  S   S178      1.0  0.52389  0.95344  0.82104  1.0000
  C   C523      1.0  0.24422  0.98603  0.73813  1.0000
  S   S179      1.0  0.51343  0.81368  0.88579  1.0000
  H   H516      1.0  0.32809  0.02760  0.61442  1.0000
  S   S180      1.0  0.50605  0.01227  0.80039  1.0000
  C   C524      1.0  0.20354  0.95205  0.77951  1.0000
  C   C525      1.0  0.19262  0.78525  0.84463  1.0000
  H   H517      1.0  0.22791  0.78481  0.83608  1.0000
  H   H518      1.0  0.50208  0.93794  0.77328  1.0000
  H   H519      1.0  0.52290  0.81095  0.94908  1.0000
  C   C526      1.0  0.21390  0.90190  0.54547  1.0000
  Fe  Fe90      1.0  0.20663  0.89314  0.67817  1.0000
  S   S181      1.0  0.17523  0.91205  0.66826  1.0000
  S   S182      1.0  0.20474  0.85584  0.67708  1.0000
  Fe  Fe91      1.0  0.23309  0.93528  0.68402  1.0000
  S   S183      1.0  0.20388  0.95752  0.67500  1.0000
  S   S184      1.0  0.26737  0.94662  0.69526  1.0000
  Fe  Fe92      1.0  0.18443  0.93437  0.70281  1.0000
  S   S185      1.0  0.15989  0.94287  0.73751  1.0000
  Fe  Fe93      1.0  0.19715  0.93337  0.64110  1.0000
  S   S186      1.0  0.18561  0.94559  0.59887  1.0000
  S   S187      1.0  0.21433  0.91384  0.71488  1.0000
  S   S188      1.0  0.22787  0.91283  0.64802  1.0000
  S   S189      1.0  0.26379  0.79558  0.75774  1.0000
  C   C527      1.0  0.19339  0.93110  0.56875  1.0000
  C   C528      1.0  0.20827  0.91325  0.56990  1.0000
  C   C529      1.0  0.50699  0.80501  0.95839  1.0000
  H   H520      1.0  0.21524  0.90803  0.58961  1.0000
  C   C530      1.0  0.33894  0.78320  0.80344  1.0000
  C   C531      1.0  0.22117  0.83930  0.69973  1.0000
  C   C532      1.0  0.23694  0.84852  0.71701  1.0000
  C   C533      1.0  0.24994  0.83490  0.73456  1.0000
  C   C534      1.0  0.24715  0.81199  0.73520  1.0000
  C   C535      1.0  0.23121  0.80274  0.71816  1.0000
  C   C536      1.0  0.21835  0.81636  0.70038  1.0000
  H   H521      1.0  0.23934  0.86614  0.71661  1.0000
  H   H522      1.0  0.26227  0.84219  0.74763  1.0000
  H   H523      1.0  0.18641  0.95631  0.78698  1.0000
  H   H524      1.0  0.20622  0.80909  0.68703  1.0000
  C   C537      1.0  0.11259  0.00280  0.73637  1.0000
  C   C538      1.0  0.12902  0.00053  0.71536  1.0000
  C   C539      1.0  0.14321  0.98191  0.71490  1.0000
  C   C540      1.0  0.14123  0.96557  0.73573  1.0000
  C   C541      1.0  0.12489  0.96791  0.75679  1.0000
  C   C542      1.0  0.11050  0.98635  0.75700  1.0000
  H   H525      1.0  0.13067  0.01318  0.69928  1.0000
  H   H526      1.0  0.15575  0.98029  0.69859  1.0000
  H   H527      1.0  0.12332  0.95540  0.77304  1.0000
  H   H528      1.0  0.09795  0.98794  0.77332  1.0000
  C   C543      1.0  0.18452  0.93776  0.54302  1.0000
  H   H529      1.0  0.47342  0.78806  0.88624  1.0000
  C   C544      1.0  0.16016  0.88934  0.59731  1.0000
  C   C545      1.0  0.32820  0.02901  0.59183  1.0000
  C   C546      1.0  0.49325  0.95906  0.73872  1.0000
  C   C547      1.0  0.27069  0.00806  0.66053  1.0000
  C   C548      1.0  0.26325  0.98682  0.66775  1.0000
  C   C549      1.0  0.27698  0.97239  0.68296  1.0000
  C   C550      1.0  0.29829  0.97917  0.69036  1.0000
  C   C551      1.0  0.30578  0.00033  0.68298  1.0000
  C   C552      1.0  0.29190  0.01491  0.66829  1.0000
  H   H530      1.0  0.24679  0.98177  0.66203  1.0000
  H   H531      1.0  0.30895  0.96811  0.70223  1.0000
  H   H532      1.0  0.32215  0.00547  0.68908  1.0000
  C   C553      1.0  0.50801  0.94585  0.75411  1.0000
  C   C554      1.0  0.17164  0.79030  0.83404  1.0000
  C   C555      1.0  0.23524  0.96793  0.57138  1.0000
  S   S190      1.0  0.09548  0.02669  0.73681  1.0000
  C   C556      1.0  0.50917  0.78509  0.88747  1.0000
  H   H533      1.0  0.21409  0.94947  0.79813  1.0000
  S   S191      1.0  0.06895  0.02876  0.81282  1.0000
  C   C557      1.0  0.20935  0.79937  0.80196  1.0000
  C   C558      1.0  0.20341  0.84500  0.60464  1.0000
  C   C559      1.0  0.20733  0.00070  0.73045  1.0000
  H   H534      1.0  0.18100  0.98400  0.75255  1.0000
  H   H535      1.0  0.34138  0.79615  0.81831  1.0000
  H   H536      1.0  0.21697  0.85473  0.61377  1.0000
  C   C560      1.0  0.42961  0.01756  0.72007  1.0000
  Fe  Fe94      1.0  0.06558  0.02768  0.76625  1.0000
  H   H537      1.0  0.48970  0.98051  0.70267  1.0000
  C   C561      1.0  0.50085  0.96986  0.71453  1.0000
  C   C562      1.0  0.23507  0.96964  0.75548  1.0000
  H   H538      1.0  0.25440  0.93377  0.54572  1.0000
  Fe  Fe95      1.0  0.03900  0.00670  0.81395  1.0000
  C   C563      1.0  0.44219  0.00936  0.74240  1.0000
  S   S192      1.0  0.36443  0.03025  0.65351  1.0000
  N   N42       1.0  0.18683  0.85986  0.59203  1.0000
  H   H539      1.0  0.52093  0.90979  0.84420  1.0000
  H   H540      1.0  0.25989  0.01930  0.64916  1.0000
  H   H541      1.0  0.24968  0.97821  0.57654  1.0000
  C   C564      1.0  0.46535  0.01207  0.74250  1.0000
  C   C565      1.0  0.03838  0.82111  0.93451  1.0000
  H   H542      1.0  0.15360  0.80338  0.79908  1.0000
  H   H543      1.0  0.49373  0.81117  0.94419  1.0000
  S   S193      1.0  0.40049  0.01490  0.72129  1.0000
  H   H544      1.0  0.22418  0.80254  0.78941  1.0000
  C   C566      1.0  0.19880  0.98447  0.74861  1.0000
  H   H545      1.0  0.15179  0.90133  0.61047  1.0000
  H   H546      1.0  0.23598  0.95239  0.58402  1.0000
  H   H547      1.0  0.24603  0.95710  0.76430  1.0000
  C   C567      1.0  0.18319  0.85975  0.56389  1.0000
  C   C568      1.0  0.16999  0.79993  0.80737  1.0000
  N   N43       1.0  0.23530  0.96345  0.54139  1.0000
  H   H548      1.0  0.47481  0.00555  0.75972  1.0000
  H   H549      1.0  0.47614  0.96131  0.74584  1.0000
  C   C569      1.0  0.23024  0.00152  0.72532  1.0000
  C   C570      1.0  0.17544  0.87428  0.60873  1.0000
  H   H550      1.0  0.22525  0.88795  0.54646  1.0000
  C   C571      1.0  0.52307  0.96752  0.70613  1.0000
  C   C572      1.0  0.18682  0.81448  0.76385  1.0000
  H   H551      1.0  0.17302  0.95159  0.54201  1.0000
  H   H552      1.0  0.17846  0.87436  0.63099  1.0000
  H   H553      1.0  0.05444  0.82832  0.92970  1.0000
  C   C573      1.0  0.16785  0.87443  0.55180  1.0000
  H   H554      1.0  0.21095  0.83354  0.58928  1.0000
  C   C574      1.0  0.15639  0.88941  0.56865  1.0000
  H   H555      1.0  0.21959  0.97648  0.57793  1.0000
  H   H556      1.0  0.19618  0.01240  0.72028  1.0000
  Fe  Fe96      1.0  0.53365  0.98780  0.80751  1.0000
  H   H557      1.0  0.20251  0.93640  0.76803  1.0000
  H   H558      1.0  0.36247  0.01867  0.58703  1.0000
  N   N44       1.0  0.52974  0.94338  0.74553  1.0000
  H   H559      1.0  0.26204  0.98634  0.73408  1.0000
  C   C575      1.0  0.32001  0.78334  0.78695  1.0000
  H   H560      1.0  0.50468  0.81228  0.97932  1.0000
  H   H561      1.0  0.19257  0.84875  0.55041  1.0000
  H   H562      1.0  0.19560  0.83503  0.62179  1.0000
  N   N45       1.0  0.21267  0.96930  0.76100  1.0000
  H   H563      1.0  0.23718  0.01390  0.71117  1.0000
  C   C576      1.0  0.21160  0.78953  0.82841  1.0000
  H   H564      1.0  0.43396  0.00104  0.75980  1.0000
  C   C577      1.0  0.47612  0.02283  0.72014  1.0000
  N   N46       1.0  0.18875  0.80474  0.79195  1.0000
  H   H565      1.0  0.22897  0.78511  0.71840  1.0000
  H   H566      1.0  0.52927  0.97660  0.68797  1.0000
  H   H567      1.0  0.17111  0.82415  0.76155  1.0000
  H   H568      1.0  0.18731  0.80129  0.74810  1.0000
  H   H569      1.0  0.20072  0.82599  0.75921  1.0000
  C   C578      1.0  0.34736  0.02374  0.57643  1.0000
  H   H570      1.0  0.30757  0.79640  0.78874  1.0000
  H   H571      1.0  0.05214  0.78927  0.94504  1.0000
  H   H572      1.0  0.14513  0.90148  0.55940  1.0000
  N   N47       1.0  0.50702  0.78093  0.96064  1.0000
  H   H573      1.0  0.36215  0.02180  0.53545  1.0000
  Fe  Fe97      1.0  0.52341  0.02031  0.76002  1.0000
  S   S194      1.0  0.50515  0.02655  0.71973  1.0000
  S   S195      1.0  0.03757  0.00362  0.76740  1.0000
  C   C579      1.0  0.44037  0.02811  0.69753  1.0000
  S   S196      1.0  0.03716  0.97482  0.83895  1.0000
  C   C580      1.0  0.34709  0.02564  0.54728  1.0000
  H   H574      1.0  0.15676  0.78617  0.84611  1.0000
  C   C581      1.0  0.03695  0.79899  0.94289  1.0000
  C   C582      1.0  0.46359  0.03061  0.69750  1.0000
  S   S197      1.0  0.56460  0.23695  0.17431  1.0000
  H   H575      1.0  0.93034  0.27050  0.18128  1.0000
  C   C583      1.0  0.96232  0.09088  0.28209  1.0000
  C   C584      1.0  0.74224  0.25759  0.26693  1.0000
  N   N48       1.0  0.83909  0.04865  0.35336  1.0000
  H   H576      1.0  0.59486  0.03897  0.31865  1.0000
  C   C585      1.0  0.86550  0.13183  0.52059  1.0000
  H   H577      1.0  0.96891  0.10426  0.32218  1.0000
  S   S198      1.0  0.00433  0.05783  0.35740  1.0000
  C   C586      1.0  0.72776  0.03113  0.52302  1.0000
  Fe  Fe98      1.0  0.83937  0.11153  0.41313  1.0000
  S   S199      1.0  0.86664  0.08743  0.42358  1.0000
  S   S200      1.0  0.80280  0.10331  0.41236  1.0000
  Fe  Fe99      1.0  0.87127  0.14959  0.40336  1.0000
  S   S201      1.0  0.90126  0.12832  0.41304  1.0000
  S   S202      1.0  0.87741  0.18586  0.39485  1.0000
  Fe  Fe100     1.0  0.88511  0.10280  0.38722  1.0000
  S   S203      1.0  0.90088  0.08073  0.35450  1.0000
  Fe  Fe101     1.0  0.88038  0.11486  0.44863  1.0000
  S   S204      1.0  0.89634  0.10767  0.49035  1.0000
  S   S205      1.0  0.85663  0.12513  0.37466  1.0000
  S   S206      1.0  0.85167  0.13799  0.44106  1.0000
  S   S207      1.0  0.81258  0.24483  0.31959  1.0000
  C   C587      1.0  0.85935  0.20190  0.37354  1.0000
  C   C588      1.0  0.83967  0.19332  0.36327  1.0000
  C   C589      1.0  0.82553  0.20666  0.34675  1.0000
  C   C590      1.0  0.83097  0.22860  0.34022  1.0000
  C   C591      1.0  0.85069  0.23716  0.35044  1.0000
  C   C592      1.0  0.86476  0.22386  0.36710  1.0000
  H   H578      1.0  0.83527  0.17647  0.36816  1.0000
  H   H579      1.0  0.81030  0.19991  0.33898  1.0000
  H   H580      1.0  0.85504  0.25403  0.34564  1.0000
  H   H581      1.0  0.87994  0.23064  0.37498  1.0000
  H   H582      1.0  0.54429  0.14157  0.24576  1.0000
  C   C593      1.0  0.79816  0.06904  0.34392  1.0000
  H   H583      1.0  0.60091  0.25671  0.11192  1.0000
  S   S208      1.0  0.01039  0.03159  0.27980  1.0000
  H   H584      1.0  0.85648  0.13405  0.50141  1.0000
  C   C594      1.0  0.92950  0.07381  0.35619  1.0000
  C   C595      1.0  0.93885  0.05933  0.33659  1.0000
  C   C596      1.0  0.96171  0.05393  0.33700  1.0000
  C   C597      1.0  0.97535  0.06305  0.35702  1.0000
  C   C598      1.0  0.96595  0.07737  0.37674  1.0000
  C   C599      1.0  0.94312  0.08275  0.37633  1.0000
  H   H585      1.0  0.86810  0.04551  0.37789  1.0000
  N   N49       1.0  0.99889  0.09857  0.29870  1.0000
  H   H586      1.0  0.97639  0.08444  0.39235  1.0000
  H   H587      1.0  0.93609  0.09384  0.39159  1.0000
  C   C600      1.0  0.97161  0.08329  0.25712  1.0000
  H   H588      1.0  0.77256  0.24460  0.28491  1.0000
  C   C601      1.0  0.80989  0.05845  0.41720  1.0000
  C   C602      1.0  0.79450  0.07560  0.41319  1.0000
  C   C603      1.0  0.77215  0.07064  0.40843  1.0000
  C   C604      1.0  0.92701  0.15492  0.48426  1.0000
  H   H589      1.0  0.00494  0.10641  0.34123  1.0000
  H   H590      1.0  0.82708  0.06205  0.42106  1.0000
  H   H591      1.0  0.76017  0.08386  0.40528  1.0000
  H   H592      1.0  0.00214  0.07799  0.23362  1.0000
  H   H593      1.0  0.74143  0.24508  0.25114  1.0000
  H   H594      1.0  0.02841  0.09594  0.32242  1.0000
  C   C605      1.0  0.97628  0.09868  0.30269  1.0000
  H   H595      1.0  0.78484  0.03624  0.34517  1.0000
  H   H596      1.0  0.90027  0.17227  0.44552  1.0000
  H   H597      1.0  0.74832  0.04506  0.40180  1.0000
  C   C606      1.0  0.88543  0.11972  0.52082  1.0000
  H   H598      1.0  0.02759  0.25801  0.12011  1.0000
  C   C607      1.0  0.72584  0.27410  0.26861  1.0000
  C   C608      1.0  0.76539  0.04866  0.40659  1.0000
  N   N50       1.0  0.90669  0.16800  0.48901  1.0000
  H   H599      1.0  0.01864  0.12377  0.31513  1.0000
  H   H600      1.0  0.56982  0.23068  0.10627  1.0000
  H   H601      1.0  0.60456  0.26206  0.17706  1.0000
  H   H602      1.0  0.71195  0.03791  0.51608  1.0000
  H   H603      1.0  0.86605  0.19437  0.45294  1.0000
  H   H604      1.0  0.63604  0.04056  0.31669  1.0000
  C   C609      1.0  0.88093  0.18573  0.52051  1.0000
  C   C610      1.0  0.54551  0.25651  0.09901  1.0000
  C   C611      1.0  0.90018  0.17309  0.51565  1.0000
  H   H605      1.0  0.85332  0.20286  0.50132  1.0000
  H   H606      1.0  0.87242  0.04132  0.34112  1.0000
  Fe  Fe102     1.0  0.02172  0.03873  0.32312  1.0000
  C   C612      1.0  0.99463  0.08385  0.25293  1.0000
  C   C613      1.0  0.76059  0.27351  0.30594  1.0000
  C   C614      1.0  0.81728  0.08161  0.34621  1.0000
  H   H607      1.0  0.81614  0.09945  0.34543  1.0000
  H   H608      1.0  0.93016  0.14339  0.50211  1.0000
  C   C615      1.0  0.86847  0.19333  0.49789  1.0000
  H   H609      1.0  0.71230  0.27423  0.25388  1.0000
  C   C616      1.0  0.01341  0.10672  0.32040  1.0000
  C   C617      1.0  0.83776  0.07106  0.35073  1.0000
  C   C618      1.0  0.00808  0.09165  0.27404  1.0000
  H   H610      1.0  0.94148  0.16592  0.48115  1.0000
  H   H611      1.0  0.85257  0.08088  0.35261  1.0000
  H   H612      1.0  0.77404  0.27329  0.32079  1.0000
  C   C619      1.0  0.87553  0.18850  0.47078  1.0000
  C   C620      1.0  0.79973  0.04615  0.34602  1.0000
  C   C621      1.0  0.59074  0.27351  0.17494  1.0000
  C   C622      1.0  0.58439  0.26290  0.10700  1.0000
  H   H613      1.0  0.94445  0.09040  0.28576  1.0000
  C   C623      1.0  0.56894  0.26555  0.17403  1.0000
  C   C624      1.0  0.89488  0.17587  0.46669  1.0000
  H   H614      1.0  0.78207  0.07707  0.34143  1.0000
  H   H615      1.0  0.92536  0.14445  0.46564  1.0000
  H   H616      1.0  0.96877  0.04283  0.32175  1.0000
  H   H617      1.0  0.96104  0.07691  0.24110  1.0000
  H   H618      1.0  0.74746  0.04518  0.46729  1.0000
  C   C625      1.0  0.75968  0.25731  0.28582  1.0000
  H   H619      1.0  0.92841  0.05227  0.32100  1.0000
  C   C626      1.0  0.93742  0.27893  0.19874  1.0000
  S   S209      1.0  0.56134  0.03800  0.27595  1.0000
  C   C627      1.0  0.56695  0.24827  0.10384  1.0000
  N   N51       1.0  0.54149  0.27870  0.09770  1.0000
  C   C628      1.0  0.80311  0.03649  0.41561  1.0000
  S   S210      1.0  0.53786  0.09811  0.26785  1.0000
  H   H620      1.0  0.90790  0.27599  0.22478  1.0000
  C   C629      1.0  0.86076  0.03828  0.35901  1.0000
  H   H621      1.0  0.02595  0.09187  0.27066  1.0000
  C   C630      1.0  0.78095  0.03156  0.40976  1.0000
  C   C631      1.0  0.82045  0.03615  0.35085  1.0000
  H   H622      1.0  0.85412  0.08320  0.52423  1.0000
  Fe  Fe103     1.0  0.82116  0.27956  0.30533  1.0000
  C   C632      1.0  0.55115  0.28045  0.17153  1.0000
  C   C633      1.0  0.62786  0.03075  0.33281  1.0000
  H   H623      1.0  0.63591  0.04261  0.66729  1.0000
  C   C634      1.0  0.85721  0.14118  0.54531  1.0000
  S   S211      1.0  0.74429  0.04742  0.67283  1.0000
  C   C635      1.0  0.68226  0.05159  0.74591  1.0000
  H   H624      1.0  0.83298  0.27255  0.88957  1.0000
  H   H625      1.0  0.65109  0.06725  0.65743  1.0000
  H   H626      1.0  0.96209  0.06324  0.80155  1.0000
  Fe  Fe104     1.0  0.86970  0.13787  0.64281  1.0000
  S   S212      1.0  0.84223  0.13017  0.67374  1.0000
  S   S213      1.0  0.85804  0.15071  0.60078  1.0000
  Fe  Fe105     1.0  0.90590  0.12228  0.68281  1.0000
  S   S214      1.0  0.88123  0.11298  0.71636  1.0000
  S   S215      1.0  0.94298  0.11897  0.68981  1.0000
  Fe  Fe106     1.0  0.86142  0.09892  0.68173  1.0000
  S   S216      1.0  0.84789  0.06438  0.68236  1.0000
  Fe  Fe107     1.0  0.86435  0.14523  0.70539  1.0000
  S   S217      1.0  0.85096  0.16566  0.74123  1.0000
  S   S218      1.0  0.88760  0.10562  0.64880  1.0000
  S   S219      1.0  0.89038  0.15562  0.67388  1.0000
  C   C636      1.0  0.87589  0.06089  0.58349  1.0000
  C   C637      1.0  0.86867  0.13830  0.57042  1.0000
  C   C638      1.0  0.88845  0.12597  0.57074  1.0000
  H   H627      1.0  0.59696  0.22546  0.82005  1.0000
  H   H628      1.0  0.89747  0.12379  0.58997  1.0000
  C   C639      1.0  0.95447  0.07764  0.79172  1.0000
  C   C640      1.0  0.85301  0.19459  0.74075  1.0000
  C   C641      1.0  0.84691  0.20613  0.76485  1.0000
  C   C642      1.0  0.84639  0.22926  0.76459  1.0000
  C   C643      1.0  0.85192  0.24106  0.74018  1.0000
  C   C644      1.0  0.85883  0.22952  0.71636  1.0000
  C   C645      1.0  0.85930  0.20635  0.71659  1.0000
  H   H629      1.0  0.84213  0.19711  0.78364  1.0000
  H   H630      1.0  0.84113  0.23787  0.78306  1.0000
  H   H631      1.0  0.86330  0.23852  0.69743  1.0000
  H   H632      1.0  0.86410  0.19761  0.69793  1.0000
  C   C646      1.0  0.97075  0.05603  0.73110  1.0000
  C   C647      1.0  0.94818  0.05746  0.72410  1.0000
  C   C648      1.0  0.93957  0.07645  0.71073  1.0000
  C   C649      1.0  0.95356  0.09407  0.70408  1.0000
  C   C650      1.0  0.97627  0.09235  0.71029  1.0000
  C   C651      1.0  0.98485  0.07341  0.72381  1.0000
  H   H633      1.0  0.91224  0.10735  0.54630  1.0000
  H   H634      1.0  0.92206  0.07757  0.70589  1.0000
  H   H635      1.0  0.98720  0.10586  0.70496  1.0000
  H   H636      1.0  0.00233  0.07233  0.72869  1.0000
  C   C652      1.0  0.77312  0.05194  0.67540  1.0000
  S   S220      1.0  0.84828  0.26994  0.73782  1.0000
  H   H637      1.0  0.81625  0.22395  0.69017  1.0000
  C   C653      1.0  0.81903  0.06005  0.67987  1.0000
  C   C654      1.0  0.80374  0.07759  0.67979  1.0000
  C   C655      1.0  0.78085  0.07353  0.67751  1.0000
  H   H638      1.0  0.55219  0.23730  0.88650  1.0000
  C   C656      1.0  0.56867  0.27089  0.95170  1.0000
  H   H639      1.0  0.80947  0.09424  0.68184  1.0000
  H   H640      1.0  0.76910  0.08715  0.67764  1.0000
  H   H641      1.0  0.59222  0.24624  0.88695  1.0000
  H   H642      1.0  0.54718  0.08488  0.82241  1.0000
  H   H643      1.0  0.53684  0.15437  0.93975  1.0000
  C   C657      1.0  0.78843  0.03443  0.67541  1.0000
  H   H644      1.0  0.99472  0.09998  0.80946  1.0000
  C   C658      1.0  0.57948  0.23007  0.81951  1.0000
  H   H645      1.0  0.96794  0.12647  0.76247  1.0000
  C   C659      1.0  0.54096  0.21935  0.82073  1.0000
  S   S221      1.0  0.82855  0.27412  0.81733  1.0000
  H   H646      1.0  0.77968  0.27193  0.77563  1.0000
  H   H647      1.0  0.93720  0.04401  0.72950  1.0000
  H   H648      1.0  0.81296  0.08605  0.61449  1.0000
  H   H649      1.0  0.86302  0.06644  0.62485  1.0000
  C   C660      1.0  0.95778  0.11291  0.76998  1.0000
  H   H650      1.0  0.92758  0.12746  0.75356  1.0000
  N   N52       1.0  0.66281  0.05060  0.69369  1.0000
  C   C661      1.0  0.87339  0.06555  0.55506  1.0000
  C   C662      1.0  0.93152  0.07785  0.78714  1.0000
  H   H651      1.0  0.96662  0.26082  0.85076  1.0000
  H   H652      1.0  0.84187  0.15070  0.54498  1.0000
  N   N53       1.0  0.84452  0.08437  0.59404  1.0000
  H   H653      1.0  0.56944  0.25311  0.95035  1.0000
  C   C663      1.0  0.92173  0.09597  0.77364  1.0000
  H   H654      1.0  0.56831  0.19632  0.82342  1.0000
  C   C664      1.0  0.92647  0.27529  0.83603  1.0000
  C   C665      1.0  0.57991  0.25930  0.88496  1.0000
  H   H655      1.0  0.92152  0.06381  0.79335  1.0000
  N   N54       1.0  0.79908  0.23824  0.72504  1.0000
  C   C666      1.0  0.79747  0.21842  0.73894  1.0000
  C   C667      1.0  0.79272  0.25728  0.73789  1.0000
  C   C668      1.0  0.78976  0.21740  0.76666  1.0000
  C   C669      1.0  0.78465  0.25681  0.76544  1.0000
  C   C670      1.0  0.78331  0.23676  0.77994  1.0000
  C   C671      1.0  0.80696  0.23919  0.69592  1.0000
  H   H656      1.0  0.80289  0.20332  0.72898  1.0000
  C   C672      1.0  0.55111  0.25756  0.81661  1.0000
  H   H657      1.0  0.78920  0.20171  0.77783  1.0000
  H   H658      1.0  0.88507  0.05884  0.53983  1.0000
  H   H659      1.0  0.77742  0.23636  0.80149  1.0000
  H   H660      1.0  0.69598  0.04958  0.67708  1.0000
  N   N55       1.0  0.57319  0.25175  0.81727  1.0000
  H   H661      1.0  0.88937  0.05027  0.59063  1.0000
  H   H662      1.0  0.79387  0.26186  0.88080  1.0000
  H   H663      1.0  0.64852  0.05247  0.76224  1.0000
  H   H664      1.0  0.71360  0.05019  0.72318  1.0000
  C   C673      1.0  0.69556  0.05084  0.72179  1.0000
  H   H665      1.0  0.54604  0.27473  0.81538  1.0000
  H   H666      1.0  0.82690  0.11230  0.60951  1.0000
  C   C674      1.0  0.56346  0.21355  0.82137  1.0000
  H   H667      1.0  0.60452  0.27413  0.95059  1.0000
  C   C675      1.0  0.79734  0.27719  0.89104  1.0000
  H   H668      1.0  0.83594  0.09323  0.63580  1.0000
  H   H669      1.0  0.71786  0.03140  0.56662  1.0000
  C   C676      1.0  0.82926  0.09445  0.61437  1.0000
  H   H670      1.0  0.81871  0.25306  0.69270  1.0000
  H   H671      1.0  0.55464  0.12503  0.82100  1.0000
  C   C677      1.0  0.86103  0.07027  0.60279  1.0000
  C   C678      1.0  0.55720  0.25422  0.88492  1.0000
  C   C679      1.0  0.99131  0.09434  0.78803  1.0000
  C   C680      1.0  0.81130  0.03849  0.67763  1.0000
  C   C681      1.0  0.85599  0.07926  0.54629  1.0000
  H   H672      1.0  0.03489  0.24647  0.92693  1.0000
  N   N56       1.0  0.96731  0.09494  0.78291  1.0000
  H   H673      1.0  0.00056  0.10481  0.77266  1.0000
  C   C682      1.0  0.65262  0.05027  0.66612  1.0000
  H   H674      1.0  0.68984  0.05137  0.76631  1.0000
  S   S222      1.0  0.01435  0.03458  0.81589  1.0000
  C   C683      1.0  0.68549  0.05042  0.69569  1.0000
  C   C684      1.0  0.93490  0.11364  0.76500  1.0000
  C   C685      1.0  0.64964  0.05200  0.71719  1.0000
  C   C686      1.0  0.65914  0.05236  0.74364  1.0000
  H   H675      1.0  0.63164  0.05205  0.71570  1.0000
  H   H676      1.0  0.99808  0.07735  0.78584  1.0000
  C   C687      1.0  0.96624  0.27824  0.84540  1.0000
  H   H677      1.0  0.90406  0.09613  0.76929  1.0000
  H   H678      1.0  0.92934  0.26039  0.82333  1.0000
  H   H679      1.0  0.79436  0.27302  0.72703  1.0000
  H   H680      1.0  0.79267  0.24148  0.68175  1.0000
  H   H681      1.0  0.92098  0.27025  0.85745  1.0000
  C   C688      1.0  0.84172  0.08873  0.56619  1.0000
  C   C689      1.0  0.89685  0.11679  0.54595  1.0000
  H   H682      1.0  0.66274  0.04001  0.65156  1.0000
  H   H683      1.0  0.82872  0.10003  0.55929  1.0000
  S   S223      1.0  0.54438  0.04686  0.77771  1.0000
  H   H684      1.0  0.87545  0.18908  0.54175  1.0000
  H   H685      1.0  0.55704  0.14149  0.91729  1.0000
  C   C690      1.0  0.54122  0.27099  0.88202  1.0000
  H   H686      1.0  0.90948  0.16683  0.53340  1.0000
  H   H687      1.0  0.55012  0.10583  0.89806  1.0000
  C   C691      1.0  0.59026  0.26872  0.81433  1.0000
  H   H688      1.0  0.60493  0.26454  0.82740  1.0000
  H   H689      1.0  0.59574  0.27042  0.79218  1.0000
  C   C692      1.0  0.53936  0.11902  0.83046  1.0000
  C   C693      1.0  0.53892  0.14429  0.92072  1.0000
  Fe  Fe108     1.0  0.01472  0.03311  0.76921  1.0000
  S   S224      1.0  0.98044  0.03290  0.75039  1.0000
  Fe  Fe109     1.0  0.55388  0.50377  0.25441  1.0000
  S   S225      1.0  0.55640  0.47666  0.22270  1.0000
  H   H690      1.0  0.59037  0.37215  0.20522  1.0000
  Fe  Fe110     1.0  0.66601  0.34295  0.17630  1.0000
  S   S226      1.0  0.67476  0.37682  0.16122  1.0000
  S   S227      1.0  0.69313  0.31832  0.18797  1.0000
  Fe  Fe111     1.0  0.61701  0.35014  0.16271  1.0000
  S   S228      1.0  0.62229  0.38445  0.14577  1.0000
  S   S229      1.0  0.58133  0.33925  0.16371  1.0000
  Fe  Fe112     1.0  0.65272  0.36997  0.12497  1.0000
  S   S230      1.0  0.66717  0.37665  0.08177  1.0000
  Fe  Fe113     1.0  0.64353  0.38801  0.18343  1.0000
  S   S231      1.0  0.64323  0.41689  0.21256  1.0000
  S   S232      1.0  0.64563  0.33531  0.13873  1.0000
  S   S233      1.0  0.63650  0.35443  0.20178  1.0000
  H   H691      1.0  0.71088  0.38455  0.09843  1.0000
  S   S234      1.0  0.83624  0.48400  0.41361  1.0000
  Fe  Fe114     1.0  0.89967  0.48722  0.39881  1.0000
  S   S235      1.0  0.88291  0.45526  0.40953  1.0000
  H   H692      1.0  0.86707  0.41463  0.46367  1.0000
  Fe  Fe115     1.0  0.85656  0.46731  0.38025  1.0000
  S   S236      1.0  0.83856  0.44654  0.34955  1.0000
  Fe  Fe116     1.0  0.86420  0.47447  0.44200  1.0000
  S   S237      1.0  0.85536  0.45833  0.48347  1.0000
  S   S238      1.0  0.87473  0.49794  0.36683  1.0000
  Fe  Fe117     1.0  0.01216  0.32954  0.17463  1.0000
  S   S239      1.0  0.97863  0.34120  0.15983  1.0000
  H   H693      1.0  0.00051  0.51063  0.21006  1.0000
  S   S240      1.0  0.99314  0.39064  0.17923  1.0000
  S   S241      1.0  0.80915  0.29054  0.26284  1.0000
  Fe  Fe118     1.0  0.97722  0.36092  0.19890  1.0000
  S   S242      1.0  0.94983  0.36429  0.23131  1.0000
  Fe  Fe119     1.0  0.99766  0.36967  0.14124  1.0000
  S   S243      1.0  0.98958  0.38459  0.09900  1.0000
  S   S244      1.0  0.00913  0.34697  0.21521  1.0000
  H   H694      1.0  0.99576  0.42533  0.26689  1.0000
  S   S245      1.0  0.88306  0.50554  0.43388  1.0000
  H   H695      1.0  0.54647  0.37131  0.18616  1.0000
  Fe  Fe120     1.0  0.79748  0.32127  0.28397  1.0000
  S   S246      1.0  0.80686  0.30925  0.32696  1.0000
  S   S247      1.0  0.76513  0.34028  0.27819  1.0000
  Fe  Fe121     1.0  0.84221  0.30731  0.25890  1.0000
  S   S248      1.0  0.60777  0.52825  0.32569  1.0000
  S   S249      1.0  0.86291  0.30816  0.21932  1.0000
  C   C694      1.0  0.96447  0.31354  0.26619  1.0000
  Fe  Fe122     1.0  0.84000  0.32453  0.31750  1.0000
  S   S250      1.0  0.85945  0.34447  0.34770  1.0000
  C   C695      1.0  0.92489  0.28188  0.22319  1.0000
  S   S251      1.0  0.82960  0.33903  0.27644  1.0000
  C   C696      1.0  0.92596  0.34839  0.22752  1.0000
  C   C697      1.0  0.91160  0.34533  0.25056  1.0000
  C   C698      1.0  0.89217  0.33306  0.24810  1.0000
  C   C699      1.0  0.88700  0.32383  0.22253  1.0000
  C   C700      1.0  0.90123  0.32709  0.19939  1.0000
  C   C701      1.0  0.92079  0.33926  0.20191  1.0000
  H   H696      1.0  0.91549  0.35247  0.27040  1.0000
  H   H697      1.0  0.88125  0.33066  0.26605  1.0000
  H   H698      1.0  0.89720  0.32004  0.17954  1.0000
  H   H699      1.0  0.93169  0.34175  0.18399  1.0000
  C   C702      1.0  0.58381  0.40816  0.25797  1.0000
  H   H700      1.0  0.55539  0.31080  0.10036  1.0000
  H   H701      1.0  0.88564  0.49455  0.49209  1.0000
  H   H702      1.0  0.59233  0.41404  0.27611  1.0000
  S   S252      1.0  0.55387  0.49797  0.30089  1.0000
  C   C703      1.0  0.58277  0.38493  0.21778  1.0000
  C   C704      1.0  0.00533  0.34748  0.07279  1.0000
  C   C705      1.0  0.99373  0.36746  0.07013  1.0000
  C   C706      1.0  0.56374  0.41790  0.24980  1.0000
  H   H703      1.0  0.01087  0.34182  0.09310  1.0000
  C   C707      1.0  0.85451  0.37297  0.34624  1.0000
  C   C708      1.0  0.83590  0.38175  0.33266  1.0000
  C   C709      1.0  0.83154  0.40448  0.33313  1.0000
  C   C710      1.0  0.84554  0.41846  0.34755  1.0000
  C   C711      1.0  0.86437  0.40972  0.36070  1.0000
  C   C712      1.0  0.86887  0.38701  0.35998  1.0000
  H   H704      1.0  0.82451  0.37099  0.32247  1.0000
  H   H705      1.0  0.81691  0.41118  0.32300  1.0000
  H   H706      1.0  0.87546  0.42039  0.37142  1.0000
  H   H707      1.0  0.88334  0.38026  0.37041  1.0000
  S   S253      1.0  0.85523  0.29385  0.29942  1.0000
  H   H708      1.0  0.97360  0.30194  0.28018  1.0000
  C   C713      1.0  0.93648  0.51012  0.34350  1.0000
  H   H709      1.0  0.98460  0.30429  0.21771  1.0000
  C   C714      1.0  0.81099  0.39727  0.39831  1.0000
  C   C715      1.0  0.81682  0.41733  0.40964  1.0000
  H   H710      1.0  0.54126  0.31449  0.16689  1.0000
  H   H711      1.0  0.59782  0.35950  0.03388  1.0000
  C   C716      1.0  0.59336  0.39148  0.24198  1.0000
  C   C717      1.0  0.83562  0.41837  0.42637  1.0000
  C   C718      1.0  0.62817  0.36642  0.05534  1.0000
  C   C719      1.0  0.65077  0.37134  0.05243  1.0000
  N   N57       1.0  0.56343  0.39497  0.20949  1.0000
  H   H712      1.0  0.62047  0.36569  0.07590  1.0000
  H   H713      1.0  0.55271  0.47873  0.36828  1.0000
  C   C720      1.0  0.71387  0.32555  0.21160  1.0000
  C   C721      1.0  0.71192  0.34457  0.22743  1.0000
  C   C722      1.0  0.72824  0.34930  0.24708  1.0000
  C   C723      1.0  0.74669  0.33520  0.25084  1.0000
  C   C724      1.0  0.74907  0.31663  0.23424  1.0000
  C   C725      1.0  0.73261  0.31175  0.21481  1.0000
  H   H714      1.0  0.69758  0.35537  0.22500  1.0000
  H   H715      1.0  0.72629  0.36371  0.25987  1.0000
  H   H716      1.0  0.76321  0.30566  0.23698  1.0000
  H   H717      1.0  0.73428  0.29708  0.20246  1.0000
  C   C726      1.0  0.58191  0.46237  0.21817  1.0000
  C   C727      1.0  0.58444  0.44793  0.19579  1.0000
  C   C728      1.0  0.60343  0.43431  0.19344  1.0000
  C   C729      1.0  0.62014  0.43517  0.21336  1.0000
  C   C730      1.0  0.61800  0.45022  0.23516  1.0000
  C   C731      1.0  0.59891  0.46375  0.23764  1.0000
  H   H718      1.0  0.57143  0.44692  0.18055  1.0000
  H   H719      1.0  0.60502  0.42300  0.17640  1.0000
  H   H720      1.0  0.63093  0.45106  0.25054  1.0000
  H   H721      1.0  0.59713  0.47484  0.25494  1.0000
  H   H722      1.0  0.81355  0.47995  0.52060  1.0000
  C   C732      1.0  0.82403  0.37856  0.40370  1.0000
  C   C733      1.0  0.57692  0.31098  0.16915  1.0000
  C   C734      1.0  0.55323  0.38818  0.18349  1.0000
  H   H723      1.0  0.92407  0.29579  0.26400  1.0000
  C   C735      1.0  0.57578  0.52750  0.38453  1.0000
  C   C736      1.0  0.84289  0.38026  0.42024  1.0000
  H   H724      1.0  0.53863  0.41945  0.21859  1.0000
  N   N58       1.0  0.86636  0.38460  0.23629  1.0000
  C   C737      1.0  0.86278  0.38919  0.26387  1.0000
  C   C738      1.0  0.88643  0.38911  0.22369  1.0000
  C   C739      1.0  0.87940  0.39890  0.27943  1.0000
  C   C740      1.0  0.90334  0.39901  0.23857  1.0000
  C   C741      1.0  0.89980  0.40380  0.26666  1.0000
  C   C742      1.0  0.84909  0.37369  0.22050  1.0000
  H   H725      1.0  0.84706  0.38525  0.27410  1.0000
  H   H726      1.0  0.88971  0.38454  0.20221  1.0000
  H   H727      1.0  0.87653  0.40240  0.30132  1.0000
  H   H728      1.0  0.91939  0.40214  0.22865  1.0000
  H   H729      1.0  0.91297  0.41095  0.27863  1.0000
  H   H730      1.0  0.84953  0.37901  0.19820  1.0000
  H   H731      1.0  0.85171  0.35557  0.22164  1.0000
  H   H732      1.0  0.83218  0.37753  0.22897  1.0000
  H   H733      1.0  0.71621  0.32282  0.29706  1.0000
  N   N59       1.0  0.98987  0.48485  0.23770  1.0000
  C   C743      1.0  0.98704  0.48079  0.26573  1.0000
  C   C744      1.0  0.99397  0.46789  0.21990  1.0000
  C   C745      1.0  0.98915  0.45938  0.27672  1.0000
  C   C746      1.0  0.99592  0.44624  0.23013  1.0000
  C   C747      1.0  0.99374  0.44202  0.25875  1.0000
  C   C748      1.0  0.98751  0.50731  0.22636  1.0000
  H   H734      1.0  0.98345  0.49419  0.27981  1.0000
  H   H735      1.0  0.99634  0.47111  0.19770  1.0000
  H   H736      1.0  0.98733  0.45634  0.29904  1.0000
  H   H737      1.0  0.99969  0.43287  0.21603  1.0000
  H   H738      1.0  0.70141  0.31003  0.26987  1.0000
  H   H739      1.0  0.56594  0.38789  0.16633  1.0000
  C   C749      1.0  0.95905  0.28700  0.19683  1.0000
  N   N60       1.0  0.95509  0.30163  0.24290  1.0000
  H   H740      1.0  0.69648  0.30134  0.30573  1.0000
  H   H741      1.0  0.61162  0.30220  0.17262  1.0000
  H   H742      1.0  0.80735  0.43217  0.40462  1.0000
  H   H743      1.0  0.79690  0.39640  0.38451  1.0000
  H   H744      1.0  0.98960  0.51978  0.24275  1.0000
  N   N61       1.0  0.72006  0.35628  0.12296  1.0000
  C   C750      1.0  0.72977  0.34862  0.14694  1.0000
  C   C751      1.0  0.71911  0.37839  0.11705  1.0000
  C   C752      1.0  0.73891  0.36322  0.16574  1.0000
  C   C753      1.0  0.72795  0.39347  0.13547  1.0000
  C   C754      1.0  0.73782  0.38579  0.16002  1.0000
  C   C755      1.0  0.70911  0.34079  0.10473  1.0000
  H   H745      1.0  0.73000  0.33114  0.15200  1.0000
  H   H746      1.0  0.88287  0.40606  0.43331  1.0000
  H   H747      1.0  0.74622  0.35705  0.18497  1.0000
  H   H748      1.0  0.72655  0.41100  0.13106  1.0000
  H   H749      1.0  0.74425  0.39730  0.17484  1.0000
  H   H750      1.0  0.71842  0.32492  0.10380  1.0000
  H   H751      1.0  0.69199  0.33760  0.11283  1.0000
  H   H752      1.0  0.80778  0.51856  0.39361  1.0000
  C   C756      1.0  0.94669  0.52215  0.32162  1.0000
  C   C757      1.0  0.96983  0.52480  0.32085  1.0000
  H   H753      1.0  0.93657  0.52987  0.30564  1.0000
  H   H754      1.0  0.70771  0.34751  0.08306  1.0000
  Fe  Fe123     1.0  0.85653  0.51374  0.40268  1.0000
  C   C758      1.0  0.86878  0.40171  0.44759  1.0000
  C   C759      1.0  0.55512  0.30310  0.16912  1.0000
  C   C760      1.0  0.59475  0.29621  0.17240  1.0000
  C   C761      1.0  0.97266  0.50259  0.36323  1.0000
  S   S254      1.0  0.93707  0.48777  0.39410  1.0000
  H   H755      1.0  0.87279  0.38602  0.45878  1.0000
  C   C762      1.0  0.55371  0.41108  0.22533  1.0000
  C   C763      1.0  0.55385  0.49584  0.37409  1.0000
  C   C764      1.0  0.01023  0.33501  0.04902  1.0000
  H   H756      1.0  0.53966  0.39959  0.17687  1.0000
  H   H757      1.0  0.82023  0.36307  0.39401  1.0000
  C   C765      1.0  0.55853  0.29319  0.10066  1.0000
  C   C766      1.0  0.58024  0.28551  0.10519  1.0000
  C   C767      1.0  0.88085  0.48758  0.51212  1.0000
  H   H758      1.0  0.91861  0.50859  0.34431  1.0000
  H   H759      1.0  0.00076  0.51654  0.34080  1.0000
  Fe  Fe124     1.0  0.02533  0.37536  0.19282  1.0000
  H   H760      1.0  0.97604  0.32652  0.25842  1.0000
  C   C768      1.0  0.02953  0.40653  0.04136  1.0000
  S   S255      1.0  0.01842  0.29282  0.17461  1.0000
  C   C769      1.0  0.98288  0.51460  0.34132  1.0000
  C   C770      1.0  0.74418  0.29000  0.30673  1.0000
  H   H761      1.0  0.98273  0.49524  0.37954  1.0000
  S   S256      1.0  0.03151  0.35665  0.15317  1.0000
  H   H762      1.0  0.95120  0.32221  0.27831  1.0000
  N   N62       1.0  0.84832  0.39995  0.43157  1.0000
  H   H763      1.0  0.85348  0.36584  0.42319  1.0000
  C   C771      1.0  0.94942  0.50068  0.36466  1.0000
  H   H764      1.0  0.97081  0.50969  0.21716  1.0000
  H   H765      1.0  0.74534  0.30283  0.32206  1.0000
  C   C772      1.0  0.96772  0.29822  0.21933  1.0000
  H   H766      1.0  0.76717  0.52460  0.38969  1.0000
  H   H767      1.0  0.84022  0.43409  0.43476  1.0000
  C   C773      1.0  0.86717  0.46914  0.51366  1.0000
  H   H768      1.0  0.83889  0.51123  0.51166  1.0000
  H   H769      1.0  0.96910  0.28471  0.17803  1.0000
  H   H770      1.0  0.60931  0.38427  0.24763  1.0000
  Fe  Fe125     1.0  0.57560  0.52791  0.30178  1.0000
  C   C774      1.0  0.93409  0.29323  0.24527  1.0000
  H   H771      1.0  0.59354  0.29705  0.10854  1.0000
  C   C775      1.0  0.70937  0.30685  0.29039  1.0000
  N   N63       1.0  0.72709  0.29014  0.28819  1.0000
  C   C776      1.0  0.57458  0.50536  0.37771  1.0000
  C   C777      1.0  0.98653  0.37462  0.04372  1.0000
  H   H772      1.0  0.01947  0.31971  0.05114  1.0000
  H   H773      1.0  0.02589  0.41038  0.06304  1.0000
  H   H774      1.0  0.97742  0.39001  0.04161  1.0000
  H   H775      1.0  0.55657  0.43148  0.26147  1.0000
  H   H776      1.0  0.58977  0.49580  0.37454  1.0000
  S   S257      1.0  0.03597  0.50631  0.28507  1.0000
  Fe  Fe126     1.0  0.54984  0.50712  0.81381  1.0000
  S   S258      1.0  0.55987  0.48456  0.84979  1.0000
  H   H777      1.0  0.76807  0.34246  0.90851  1.0000
  Fe  Fe127     1.0  0.62074  0.37073  0.87089  1.0000
  S   S259      1.0  0.64361  0.34327  0.85715  1.0000
  S   S260      1.0  0.60844  0.39208  0.83478  1.0000
  Fe  Fe128     1.0  0.62445  0.35685  0.93253  1.0000
  S   S261      1.0  0.64802  0.32892  0.92333  1.0000
  S   S262      1.0  0.60839  0.36003  0.97529  1.0000
  Fe  Fe129     1.0  0.66458  0.35253  0.89314  1.0000
  S   S263      1.0  0.70150  0.35872  0.88692  1.0000
  Fe  Fe130     1.0  0.62488  0.32220  0.88823  1.0000
  H   H778      1.0  0.91285  0.29452  0.90307  1.0000
  S   S264      1.0  0.64282  0.38145  0.90533  1.0000
  S   S265      1.0  0.60026  0.34874  0.89901  1.0000
  Fe  Fe131     1.0  0.87708  0.49436  0.69739  1.0000
  S   S266      1.0  0.89139  0.47037  0.66684  1.0000
  H   H779      1.0  0.02395  0.28305  0.90743  1.0000
  H   H780      1.0  0.98615  0.36797  0.99963  1.0000
  S   S267      1.0  0.84261  0.47185  0.63705  1.0000
  Fe  Fe132     1.0  0.85860  0.45333  0.67248  1.0000
  S   S268      1.0  0.85836  0.41621  0.67615  1.0000
  Fe  Fe133     1.0  0.87401  0.49113  0.63436  1.0000
  S   S269      1.0  0.88865  0.50300  0.59317  1.0000
  S   S270      1.0  0.84509  0.47619  0.70491  1.0000
  H   H781      1.0  0.98559  0.45839  0.81497  1.0000
  S   S271      1.0  0.99229  0.32373  0.91504  1.0000
  Fe  Fe134     1.0  0.02337  0.37964  0.91148  1.0000
  S   S272      1.0  0.99230  0.37530  0.93750  1.0000
  C   C778      1.0  0.83684  0.52245  0.55419  1.0000
  Fe  Fe135     1.0  0.00733  0.34256  0.95004  1.0000
  S   S273      1.0  0.01164  0.32730  0.99299  1.0000
  Fe  Fe136     1.0  0.97987  0.35700  0.90042  1.0000
  S   S274      1.0  0.94747  0.36544  0.87938  1.0000
  S   S275      1.0  0.01002  0.36398  0.87357  1.0000
  C   C779      1.0  0.96556  0.32292  0.83270  1.0000
  H   H782      1.0  0.57673  0.46195  0.80047  1.0000
  C   C780      1.0  0.03374  0.44953  0.76197  1.0000
  S   S276      1.0  0.86089  0.31425  0.79361  1.0000
  C   C781      1.0  0.81352  0.50201  0.58534  1.0000
  Fe  Fe137     1.0  0.80071  0.29917  0.81804  1.0000
  S   S277      1.0  0.80831  0.31252  0.77499  1.0000
  C   C782      1.0  0.93724  0.50933  0.75682  1.0000
  H   H783      1.0  0.87898  0.43703  0.79366  1.0000
  Fe  Fe138     1.0  0.83047  0.33588  0.79685  1.0000
  S   S278      1.0  0.83017  0.37271  0.79185  1.0000
  C   C783      1.0  0.88221  0.40188  0.79705  1.0000
  S   S279      1.0  0.82076  0.32415  0.84002  1.0000
  C   C784      1.0  0.81700  0.49126  0.53722  1.0000
  C   C785      1.0  0.94630  0.31035  0.83099  1.0000
  H   H784      1.0  0.96945  0.51599  0.77357  1.0000
  S   S280      1.0  0.89574  0.50321  0.73608  1.0000
  H   H785      1.0  0.90718  0.45100  0.74030  1.0000
  C   C786      1.0  0.00886  0.43483  0.89119  1.0000
  C   C787      1.0  0.95998  0.51431  0.75481  1.0000
  Fe  Fe139     1.0  0.83187  0.49638  0.66906  1.0000
  N   N64       1.0  0.94683  0.28828  0.83725  1.0000
  C   C788      1.0  0.77988  0.29133  0.89882  1.0000
  C   C789      1.0  0.92641  0.34569  0.87865  1.0000
  C   C790      1.0  0.90801  0.34965  0.86155  1.0000
  C   C791      1.0  0.89159  0.33363  0.85898  1.0000
  C   C792      1.0  0.89339  0.31366  0.87376  1.0000
  C   C793      1.0  0.91149  0.30989  0.89141  1.0000
  C   C794      1.0  0.92807  0.32583  0.89372  1.0000
  H   H786      1.0  0.90662  0.36506  0.85000  1.0000
  H   H787      1.0  0.87754  0.33678  0.84560  1.0000
  S   S281      1.0  0.76612  0.28817  0.83092  1.0000
  H   H788      1.0  0.94212  0.32275  0.90712  1.0000
  C   C795      1.0  0.88151  0.48881  0.56292  1.0000
  C   C796      1.0  0.86856  0.46986  0.56444  1.0000
  Fe  Fe140     1.0  0.83788  0.28933  0.77588  1.0000
  H   H789      1.0  0.86393  0.46279  0.58450  1.0000
  C   C797      1.0  0.92458  0.50741  0.73268  1.0000
  C   C798      1.0  0.99905  0.45394  0.87966  1.0000
  H   H790      1.0  0.01446  0.43616  0.02516  1.0000
  H   H791      1.0  0.98110  0.45535  0.87867  1.0000
  C   C799      1.0  0.01973  0.43070  0.96990  1.0000
  Fe  Fe141     1.0  0.84946  0.30064  0.83510  1.0000
  C   C800      1.0  0.84777  0.40392  0.70710  1.0000
  C   C801      1.0  0.83960  0.41676  0.72896  1.0000
  C   C802      1.0  0.83352  0.40687  0.75457  1.0000
  C   C803      1.0  0.83535  0.38404  0.75843  1.0000
  C   C804      1.0  0.84270  0.37099  0.73630  1.0000
  C   C805      1.0  0.84897  0.38096  0.71067  1.0000
  H   H792      1.0  0.83830  0.43433  0.72640  1.0000
  H   H793      1.0  0.82771  0.41698  0.77161  1.0000
  H   H794      1.0  0.84411  0.35333  0.73915  1.0000
  H   H795      1.0  0.85520  0.37091  0.69378  1.0000
  C   C806      1.0  0.71844  0.33934  0.86925  1.0000
  C   C807      1.0  0.71156  0.31769  0.86564  1.0000
  C   C808      1.0  0.72614  0.30223  0.85329  1.0000
  C   C809      1.0  0.74758  0.30835  0.84425  1.0000
  C   C810      1.0  0.75427  0.33011  0.84737  1.0000
  C   C811      1.0  0.73976  0.34551  0.85987  1.0000
  H   H796      1.0  0.69517  0.31274  0.87285  1.0000
  S   S282      1.0  0.86250  0.51697  0.66457  1.0000
  H   H797      1.0  0.77068  0.33506  0.84034  1.0000
  H   H798      1.0  0.74518  0.36225  0.86248  1.0000
  C   C812      1.0  0.62513  0.36402  0.00470  1.0000
  H   H799      1.0  0.80649  0.49914  0.60607  1.0000
  C   C813      1.0  0.64783  0.36855  0.00181  1.0000
  H   H800      1.0  0.67802  0.37616  0.02322  1.0000
  H   H801      1.0  0.65548  0.36945  0.98124  1.0000
  C   C814      1.0  0.57077  0.29795  0.87931  1.0000
  H   H802      1.0  0.00055  0.32228  0.84180  1.0000
  C   C815      1.0  0.02285  0.42088  0.01981  1.0000
  H   H803      1.0  0.99848  0.42161  0.89906  1.0000
  H   H804      1.0  0.57586  0.31479  0.87633  1.0000
  Fe  Fe142     1.0  0.01980  0.51696  0.82612  1.0000
  H   H805      1.0  0.60306  0.31484  0.95396  1.0000
  C   C816      1.0  0.57443  0.45944  0.84529  1.0000
  C   C817      1.0  0.57923  0.44625  0.86887  1.0000
  C   C818      1.0  0.58969  0.42556  0.86602  1.0000
  C   C819      1.0  0.59527  0.41788  0.83948  1.0000
  C   C820      1.0  0.59069  0.43117  0.81590  1.0000
  C   C821      1.0  0.58035  0.45191  0.81877  1.0000
  H   H806      1.0  0.57463  0.45197  0.88946  1.0000
  H   H807      1.0  0.59323  0.41548  0.88432  1.0000
  H   H808      1.0  0.59509  0.42536  0.79530  1.0000
  H   H809      1.0  0.02493  0.48553  0.72469  1.0000
  N   N65       1.0  0.01501  0.46093  0.75409  1.0000
  C   C822      1.0  0.99783  0.46415  0.77276  1.0000
  H   H810      1.0  0.56663  0.33423  0.95599  1.0000
  C   C823      1.0  0.81924  0.28325  0.89580  1.0000
  Fe  Fe143     1.0  0.02356  0.33230  0.89134  1.0000
  C   C824      1.0  0.99894  0.45535  0.79991  1.0000
  S   S283      1.0  0.61532  0.28694  0.88115  1.0000
  H   H811      1.0  0.98337  0.47395  0.76695  1.0000
  H   H812      1.0  0.58395  0.28494  0.82163  1.0000
  C   C825      1.0  0.86144  0.46003  0.53987  1.0000
  S   S284      1.0  0.79632  0.50794  0.66348  1.0000
  H   H813      1.0  0.72083  0.28543  0.85097  1.0000
  H   H814      1.0  0.84050  0.30839  0.91126  1.0000
  C   C826      1.0  0.58777  0.30551  0.95365  1.0000
  C   C827      1.0  0.98589  0.29028  0.84700  1.0000
  C   C828      1.0  0.97013  0.51762  0.72862  1.0000
  C   C829      1.0  0.99152  0.36221  0.01992  1.0000
  C   C830      1.0  0.88340  0.42212  0.78270  1.0000
  C   C831      1.0  0.00361  0.34249  0.02250  1.0000
  N   N66       1.0  0.88927  0.42301  0.75499  1.0000
  C   C832      1.0  0.80558  0.31728  0.91522  1.0000
  H   H815      1.0  0.03469  0.43754  0.95903  1.0000
  C   C833      1.0  0.01233  0.47111  0.86912  1.0000
  N   N67       1.0  0.78414  0.31116  0.91056  1.0000
  C   C834      1.0  0.70295  0.52822  0.70179  1.0000
  H   H816      1.0  0.93084  0.31847  0.82522  1.0000
  N   N68       1.0  0.82791  0.51897  0.58032  1.0000
  C   C835      1.0  0.54765  0.30416  0.95399  1.0000
  H   H817      1.0  0.96492  0.34055  0.82858  1.0000
  C   C836      1.0  0.89008  0.44427  0.74008  1.0000
  H   H818      1.0  0.68685  0.52297  0.69463  1.0000
  H   H819      1.0  0.01983  0.45886  0.71004  1.0000
  H   H820      1.0  0.87656  0.40105  0.81867  1.0000
  H   H821      1.0  0.74938  0.31988  0.91175  1.0000
  C   C837      1.0  0.03551  0.46918  0.87033  1.0000
  H   H822      1.0  0.54379  0.42199  0.80498  1.0000
  S   S285      1.0  0.03562  0.50419  0.78685  1.0000
  C   C838      1.0  0.82344  0.30339  0.90803  1.0000
  S   S286      1.0  0.99805  0.52599  0.72552  1.0000
  C   C839      1.0  0.03201  0.43311  0.89297  1.0000
  H   H823      1.0  0.75723  0.51186  0.70405  1.0000
  C   C840      1.0  0.76577  0.32599  0.91856  1.0000
  H   H824      1.0  0.88491  0.44250  0.71808  1.0000
  H   H825      1.0  0.87847  0.45650  0.74960  1.0000
  C   C841      1.0  0.89389  0.38368  0.75489  1.0000
  S   S287      1.0  0.99940  0.49437  0.85393  1.0000
  H   H826      1.0  0.92523  0.50849  0.68771  1.0000
  H   H827      1.0  0.96539  0.51755  0.68411  1.0000
  C   C842      1.0  0.01412  0.47081  0.72596  1.0000
  H   H828      1.0  0.76504  0.32771  0.94158  1.0000
  C   C843      1.0  0.93489  0.50994  0.70645  1.0000
  H   H829      1.0  0.01895  0.43656  0.82899  1.0000
  Fe  Fe144     1.0  0.55921  0.52990  0.75819  1.0000
  H   H830      1.0  0.88556  0.36673  0.79357  1.0000
  C   C844      1.0  0.80805  0.48777  0.56397  1.0000
  H   H831      1.0  0.82689  0.52819  0.62328  1.0000
  C   C845      1.0  0.88739  0.38256  0.78297  1.0000
  H   H832      1.0  0.80900  0.33308  0.92427  1.0000
  C   C846      1.0  0.89480  0.40418  0.74115  1.0000
  H   H833      1.0  0.89720  0.36872  0.74349  1.0000
  C   C847      1.0  0.98548  0.31274  0.84052  1.0000
  H   H834      1.0  0.89897  0.40486  0.71900  1.0000
  C   C848      1.0  0.95762  0.51510  0.70446  1.0000
  C   C849      1.0  0.01778  0.44331  0.80792  1.0000
  S   S288      1.0  0.87376  0.29286  0.86933  1.0000
  N   N69       1.0  0.66742  0.41229  0.84688  1.0000
  C   C850      1.0  0.65074  0.42676  0.83981  1.0000
  C   C851      1.0  0.67891  0.41486  0.87101  1.0000
  C   C852      1.0  0.64425  0.44357  0.85787  1.0000
  C   C853      1.0  0.67288  0.43149  0.88958  1.0000
  C   C854      1.0  0.65527  0.44578  0.88304  1.0000
  C   C855      1.0  0.67330  0.39435  0.82800  1.0000
  H   H835      1.0  0.64184  0.42490  0.82049  1.0000
  H   H836      1.0  0.69242  0.40366  0.87642  1.0000
  H   H837      1.0  0.63040  0.45445  0.85261  1.0000
  H   H838      1.0  0.68152  0.43296  0.90915  1.0000
  H   H839      1.0  0.65007  0.45845  0.89750  1.0000
  H   H840      1.0  0.68226  0.38074  0.83909  1.0000
  H   H841      1.0  0.65801  0.38706  0.81939  1.0000
  H   H842      1.0  0.68404  0.40056  0.81061  1.0000
  H   H843      1.0  0.85106  0.44562  0.54124  1.0000
  C   C856      1.0  0.54808  0.29286  0.87923  1.0000
  C   C857      1.0  0.66056  0.37234  0.02561  1.0000
  H   H844      1.0  0.92936  0.50735  0.77717  1.0000
  H   H845      1.0  0.76293  0.28653  0.89469  1.0000
  H   H846      1.0  0.89822  0.51191  0.53538  1.0000
  H   H847      1.0  0.79727  0.47389  0.56830  1.0000
  H   H848      1.0  0.00986  0.42188  0.95429  1.0000
  H   H849      1.0  0.00135  0.28237  0.85341  1.0000
  C   C858      1.0  0.74238  0.52195  0.70726  1.0000
  H   H850      1.0  0.72050  0.49901  0.68825  1.0000
  H   H851      1.0  0.99696  0.47621  0.72049  1.0000
  C   C859      1.0  0.72178  0.51480  0.69825  1.0000
  C   C860      1.0  0.56723  0.31639  0.95470  1.0000
  H   H852      1.0  0.00931  0.44459  0.97760  1.0000
  S   S289      1.0  0.54336  0.49724  0.76971  1.0000
  N   N70       1.0  0.02652  0.41554  0.99246  1.0000
  C   C861      1.0  0.88797  0.49740  0.53669  1.0000
  H   H853      1.0  0.91247  0.28479  0.82651  1.0000
  C   C862      1.0  0.03537  0.44048  0.78895  1.0000
  N   N71       1.0  0.54856  0.28170  0.95229  1.0000
  C   C863      1.0  0.58856  0.28263  0.95208  1.0000
  C   C864      1.0  0.58674  0.28120  0.88226  1.0000
  C   C865      1.0  0.83130  0.50884  0.53219  1.0000
  C   C866      1.0  0.61537  0.36292  0.03152  1.0000
  Fe  Fe145     1.0  0.71924  0.64440  0.36995  1.0000
  S   S290      1.0  0.69183  0.65225  0.40070  1.0000
  S   S291      1.0  0.73076  0.66712  0.33459  1.0000
  Fe  Fe146     1.0  0.72411  0.59710  0.39182  1.0000
  S   S292      1.0  0.69679  0.60111  0.42403  1.0000
  S   S293      1.0  0.73999  0.56333  0.38928  1.0000
  Fe  Fe147     1.0  0.67831  0.61905  0.38997  1.0000
  S   S294      1.0  0.64151  0.61541  0.38149  1.0000
  Fe  Fe148     1.0  0.71268  0.63351  0.43198  1.0000
  S   S295      1.0  0.72200  0.64568  0.47466  1.0000
  S   S296      1.0  0.70427  0.61241  0.35708  1.0000
  S   S297      1.0  0.74140  0.62831  0.40198  1.0000
  H   H854      1.0  0.64485  0.56263  0.25208  1.0000
  C   C867      1.0  0.68358  0.68166  0.50968  1.0000
  N   N72       1.0  0.62593  0.58185  0.28059  1.0000
  C   C868      1.0  0.79192  0.57416  0.45845  1.0000
  H   H855      1.0  0.79171  0.72370  0.36151  1.0000
  H   H856      1.0  0.97472  0.76898  0.19827  1.0000
  H   H857      1.0  0.88943  0.57210  0.32942  1.0000
  H   H858      1.0  0.54115  0.75265  0.09847  1.0000
  C   C869      1.0  0.00687  0.72142  0.16303  1.0000
  C   C870      1.0  0.94867  0.55129  0.39053  1.0000
  C   C871      1.0  0.73348  0.55344  0.45921  1.0000
  C   C872      1.0  0.76672  0.60462  0.46671  1.0000
  C   C873      1.0  0.94845  0.56291  0.36513  1.0000
  H   H859      1.0  0.78665  0.69522  0.32578  1.0000
  C   C874      1.0  0.77812  0.53858  0.39043  1.0000
  C   C875      1.0  0.78837  0.59656  0.46292  1.0000
  H   H860      1.0  0.67772  0.66664  0.49924  1.0000
  H   H861      1.0  0.64672  0.77134  0.19942  1.0000
  C   C876      1.0  0.63216  0.59076  0.36705  1.0000
  C   C877      1.0  0.60994  0.58935  0.35866  1.0000
  C   C878      1.0  0.60235  0.57043  0.34550  1.0000
  C   C879      1.0  0.61680  0.55254  0.34137  1.0000
  C   C880      1.0  0.63886  0.55374  0.35036  1.0000
  C   C881      1.0  0.64661  0.57288  0.36286  1.0000
  H   H862      1.0  0.59871  0.60317  0.36181  1.0000
  H   H863      1.0  0.58532  0.56968  0.33872  1.0000
  C   C882      1.0  0.00637  0.72264  0.19205  1.0000
  H   H864      1.0  0.66375  0.57378  0.36932  1.0000
  C   C883      1.0  0.71202  0.63297  0.50573  1.0000
  C   C884      1.0  0.59521  0.60754  0.27895  1.0000
  C   C885      1.0  0.69451  0.61804  0.50567  1.0000
  C   C886      1.0  0.63770  0.59612  0.29627  1.0000
  H   H865      1.0  0.68723  0.61346  0.48615  1.0000
  C   C887      1.0  0.76915  0.55997  0.38934  1.0000
  C   C888      1.0  0.78344  0.57795  0.38993  1.0000
  C   C889      1.0  0.80655  0.57447  0.39222  1.0000
  C   C890      1.0  0.81543  0.55302  0.39405  1.0000
  H   H866      1.0  0.59188  0.53506  0.38702  1.0000
  N   N73       1.0  0.90855  0.56050  0.36438  1.0000
  H   H867      1.0  0.77669  0.59450  0.38890  1.0000
  H   H868      1.0  0.81751  0.58842  0.39299  1.0000
  S   S298      1.0  0.54714  0.55175  0.30654  1.0000
  H   H869      1.0  0.87677  0.57610  0.36344  1.0000
  C   C891      1.0  0.73535  0.69538  0.33958  1.0000
  C   C892      1.0  0.73723  0.70405  0.36625  1.0000
  C   C893      1.0  0.74268  0.72633  0.36931  1.0000
  C   C894      1.0  0.74613  0.74007  0.34577  1.0000
  C   C895      1.0  0.74360  0.73153  0.31913  1.0000
  C   C896      1.0  0.73837  0.70923  0.31607  1.0000
  H   H870      1.0  0.73495  0.69349  0.38448  1.0000
  H   H871      1.0  0.74461  0.73284  0.38998  1.0000
  H   H872      1.0  0.74616  0.74193  0.30088  1.0000
  H   H873      1.0  0.73688  0.70260  0.29540  1.0000
  H   H874      1.0  0.64794  0.55465  0.28849  1.0000
  H   H875      1.0  0.70104  0.68412  0.50226  1.0000
  H   H876      1.0  0.76372  0.62202  0.47016  1.0000
  C   C897      1.0  0.60689  0.62196  0.29549  1.0000
  H   H877      1.0  0.55736  0.55745  0.39112  1.0000
  H   H878      1.0  0.82158  0.76595  0.29917  1.0000
  H   H879      1.0  0.67318  0.69590  0.50277  1.0000
  C   C898      1.0  0.92863  0.54461  0.40291  1.0000
  H   H880      1.0  0.95540  0.76303  0.13694  1.0000
  H   H881      1.0  0.57853  0.61171  0.27199  1.0000
  H   H882      1.0  0.68888  0.76960  0.27081  1.0000
  C   C899      1.0  0.74884  0.59017  0.46557  1.0000
  H   H883      1.0  0.79917  0.70248  0.27705  1.0000
  C   C900      1.0  0.79784  0.72647  0.34031  1.0000
  H   H884      1.0  0.80861  0.75943  0.34792  1.0000
  S   S299      1.0  0.98174  0.54202  0.29500  1.0000
  C   C901      1.0  0.62834  0.61633  0.30405  1.0000
  H   H885      1.0  0.80234  0.60768  0.46315  1.0000
  H   H886      1.0  0.99469  0.74123  0.22734  1.0000
  H   H887      1.0  0.65010  0.53989  0.34741  1.0000
  H   H888      1.0  0.80703  0.75015  0.24621  1.0000
  H   H889      1.0  0.62321  0.54787  0.27099  1.0000
  H   H890      1.0  0.53784  0.62629  0.20618  1.0000
  C   C902      1.0  0.88724  0.56476  0.35068  1.0000
  C   C903      1.0  0.99479  0.73988  0.20481  1.0000
  H   H891      1.0  0.68223  0.76029  0.22151  1.0000
  C   C904      1.0  0.90860  0.54955  0.38957  1.0000
  C   C905      1.0  0.81442  0.75019  0.30502  1.0000
  H   H892      1.0  0.83566  0.74675  0.25593  1.0000
  C   C906      1.0  0.80740  0.74653  0.33268  1.0000
  H   H893      1.0  0.01608  0.70820  0.15301  1.0000
  C   C907      1.0  0.80198  0.71479  0.29265  1.0000
  H   H894      1.0  0.65418  0.59168  0.30360  1.0000
  C   C908      1.0  0.60511  0.58751  0.27148  1.0000
  N   N74       1.0  0.75242  0.56835  0.46034  1.0000
  S   S300      1.0  0.02970  0.55046  0.24380  1.0000
  Fe  Fe149     1.0  0.01876  0.53920  0.28677  1.0000
  C   C909      1.0  0.79499  0.71049  0.32020  1.0000
  C   C910      1.0  0.63604  0.56079  0.27251  1.0000
  H   H895      1.0  0.59592  0.57650  0.25849  1.0000
  Fe  Fe150     1.0  0.54768  0.55360  0.25973  1.0000
  C   C911      1.0  0.98354  0.75550  0.18824  1.0000
  H   H896      1.0  0.92823  0.57575  0.33204  1.0000
  H   H897      1.0  0.77650  0.54296  0.45283  1.0000
  H   H898      1.0  0.82053  0.72350  0.24428  1.0000
  N   N75       1.0  0.98423  0.75421  0.15975  1.0000
  H   H899      1.0  0.54341  0.74463  0.17456  1.0000
  H   H900      1.0  0.73207  0.59661  0.46852  1.0000
  H   H901      1.0  0.63743  0.62718  0.31746  1.0000
  H   H902      1.0  0.59929  0.63739  0.30184  1.0000
  N   N76       1.0  0.81193  0.73430  0.28550  1.0000
  C   C912      1.0  0.99576  0.73750  0.14709  1.0000
  S   S301      1.0  0.75557  0.76716  0.35031  1.0000
  C   C913      1.0  0.77364  0.56020  0.45726  1.0000
  C   C914      1.0  0.81909  0.73877  0.25656  1.0000
  S   S302      1.0  0.54849  0.58589  0.23536  1.0000
  S   S303      1.0  0.76889  0.77731  0.26925  1.0000
  S   S304      1.0  0.84421  0.54902  0.39929  1.0000
  C   C915      1.0  0.66933  0.76864  0.23355  1.0000
  H   H903      1.0  0.01526  0.71037  0.20451  1.0000
  H   H904      1.0  0.71882  0.56195  0.44990  1.0000
  H   H905      1.0  0.99677  0.73677  0.12451  1.0000
  H   H906      1.0  0.02237  0.63007  0.19897  1.0000
  H   H907      1.0  0.72901  0.54730  0.48050  1.0000
  H   H908      1.0  0.89307  0.54425  0.39917  1.0000
  H   H909      1.0  0.80866  0.56776  0.45484  1.0000
  C   C916      1.0  0.55619  0.54003  0.38689  1.0000
  H   H910      1.0  0.02429  0.70634  0.05104  1.0000
  C   C917      1.0  0.64927  0.77508  0.22117  1.0000
  C   C918      1.0  0.97161  0.77008  0.14263  1.0000
  H   H911      1.0  0.96400  0.56755  0.35487  1.0000
  H   H912      1.0  0.98112  0.77448  0.12324  1.0000
  H   H913      1.0  0.73730  0.53933  0.44540  1.0000
  H   H914      1.0  0.92869  0.53496  0.42223  1.0000
  H   H915      1.0  0.87800  0.54913  0.34865  1.0000
  H   H916      1.0  0.96435  0.54681  0.40014  1.0000
  S   S305      1.0  0.57781  0.53165  0.25520  1.0000
  C   C919      1.0  0.80115  0.53511  0.39278  1.0000
  C   C920      1.0  0.67311  0.77395  0.26126  1.0000
  C   C921      1.0  0.92811  0.56735  0.35221  1.0000
  H   H917      1.0  0.73458  0.65064  0.53142  1.0000
  C   C922      1.0  0.72106  0.63904  0.53124  1.0000
  C   C923      1.0  0.68588  0.60955  0.53109  1.0000
  H   H918      1.0  0.67204  0.59832  0.53097  1.0000
  N   N77       1.0  0.77148  0.70183  0.73036  1.0000
  H   H919      1.0  0.62768  0.76669  0.97397  1.0000
  H   H920      1.0  0.00646  0.59156  0.75979  1.0000
  Fe  Fe151     1.0  0.68448  0.61257  0.69227  1.0000
  S   S306      1.0  0.71314  0.63408  0.70322  1.0000
  S   S307      1.0  0.66550  0.59840  0.72961  1.0000
  Fe  Fe152     1.0  0.69475  0.61697  0.63001  1.0000
  S   S308      1.0  0.72420  0.63854  0.63607  1.0000
  S   S309      1.0  0.68213  0.60636  0.58812  1.0000
  Fe  Fe153     1.0  0.73249  0.61517  0.67120  1.0000
  S   S310      1.0  0.76782  0.60689  0.68282  1.0000
  Fe  Fe154     1.0  0.70256  0.65582  0.66758  1.0000
  S   S311      1.0  0.70395  0.69304  0.66589  1.0000
  S   S312      1.0  0.70477  0.59186  0.66288  1.0000
  S   S313      1.0  0.67207  0.63602  0.65897  1.0000
  S   S314      1.0  0.72812  0.74206  0.77721  1.0000
  N   N78       1.0  0.58789  0.60627  0.77691  1.0000
  H   H921      1.0  0.67864  0.67449  0.62067  1.0000
  S   S315      1.0  0.00132  0.74305  0.88871  1.0000
  C   C924      1.0  0.77270  0.68007  0.73816  1.0000
  C   C925      1.0  0.94555  0.57703  0.78781  1.0000
  N   N79       1.0  0.72532  0.55550  0.72324  1.0000
  C   C926      1.0  0.69383  0.69111  0.58536  1.0000
  H   H922      1.0  0.99996  0.75879  0.94864  1.0000
  H   H923      1.0  0.01770  0.64606  0.83154  1.0000
  H   H924      1.0  0.59385  0.60739  0.69647  1.0000
  C   C927      1.0  0.93842  0.56413  0.74155  1.0000
  C   C928      1.0  0.76629  0.70780  0.70354  1.0000
  H   H925      1.0  0.60129  0.61002  0.81773  1.0000
  H   H926      1.0  0.96198  0.77019  0.89253  1.0000
  H   H927      1.0  0.76014  0.54837  0.72549  1.0000
  S   S316      1.0  0.58227  0.53568  0.72086  1.0000
  H   H928      1.0  0.54244  0.73795  0.97106  1.0000
  H   H929      1.0  0.56007  0.58550  0.77125  1.0000
  C   C929      1.0  0.72749  0.57727  0.73548  1.0000
  H   H930      1.0  0.79498  0.71981  0.75316  1.0000
  C   C930      1.0  0.77676  0.57998  0.67521  1.0000
  C   C931      1.0  0.79707  0.57199  0.68558  1.0000
  C   C932      1.0  0.80372  0.55005  0.68124  1.0000
  H   H931      1.0  0.82707  0.55059  0.59836  1.0000
  H   H932      1.0  0.75942  0.65698  0.67663  1.0000
  C   C933      1.0  0.76343  0.56616  0.65981  1.0000
  H   H933      1.0  0.80749  0.58267  0.69742  1.0000
  H   H934      1.0  0.54399  0.77654  0.88749  1.0000
  H   H935      1.0  0.03578  0.66689  0.86860  1.0000
  H   H936      1.0  0.74798  0.57226  0.65127  1.0000
  C   C934      1.0  0.70959  0.70692  0.69706  1.0000
  C   C935      1.0  0.71031  0.69559  0.72269  1.0000
  C   C936      1.0  0.71567  0.70673  0.74707  1.0000
  C   C937      1.0  0.72046  0.72926  0.74608  1.0000
  C   C938      1.0  0.71977  0.74068  0.72047  1.0000
  C   C939      1.0  0.71420  0.72954  0.69605  1.0000
  H   H937      1.0  0.70657  0.67828  0.72385  1.0000
  H   H938      1.0  0.71610  0.69783  0.76683  1.0000
  H   H939      1.0  0.72340  0.75808  0.71952  1.0000
  H   H940      1.0  0.71364  0.73846  0.67631  1.0000
  C   C940      1.0  0.71250  0.63048  0.55660  1.0000
  C   C941      1.0  0.69471  0.61586  0.55665  1.0000
  H   H941      1.0  0.62018  0.62821  0.72521  1.0000
  H   H942      1.0  0.71941  0.63550  0.57609  1.0000
  H   H943      1.0  0.73419  0.58898  0.71952  1.0000
  C   C942      1.0  0.66853  0.66423  0.55255  1.0000
  H   H944      1.0  0.61616  0.62726  0.77658  1.0000
  H   H945      1.0  0.92772  0.55600  0.72701  1.0000
  C   C943      1.0  0.60658  0.55156  0.72357  1.0000
  C   C944      1.0  0.61469  0.55752  0.74951  1.0000
  C   C945      1.0  0.63321  0.57133  0.75098  1.0000
  C   C946      1.0  0.64368  0.57945  0.72656  1.0000
  C   C947      1.0  0.63600  0.57307  0.70058  1.0000
  C   C948      1.0  0.61754  0.55909  0.69913  1.0000
  H   H946      1.0  0.60663  0.55162  0.76846  1.0000
  H   H947      1.0  0.63917  0.57609  0.77116  1.0000
  H   H948      1.0  0.64397  0.57921  0.68161  1.0000
  H   H949      1.0  0.61141  0.55447  0.67897  1.0000
  H   H950      1.0  0.85217  0.53447  0.60463  1.0000
  H   H951      1.0  0.73897  0.57656  0.75342  1.0000
  C   C949      1.0  0.99559  0.58770  0.74201  1.0000
  Fe  Fe155     1.0  0.73977  0.77733  0.77931  1.0000
  C   C950      1.0  0.66699  0.66220  0.58166  1.0000
  H   H952      1.0  0.56374  0.58577  0.71979  1.0000
  N   N80       1.0  0.97349  0.58060  0.75159  1.0000
  C   C951      1.0  0.69504  0.69265  0.55617  1.0000
  H   H953      1.0  0.71120  0.58379  0.74325  1.0000
  S   S317      1.0  0.99903  0.54261  0.80414  1.0000
  H   H954      1.0  0.58112  0.58877  0.81500  1.0000
  H   H955      1.0  0.57209  0.61712  0.81415  1.0000
  H   H956      1.0  0.75682  0.69659  0.66291  1.0000
  H   H957      1.0  0.96531  0.56794  0.71186  1.0000
  H   H958      1.0  0.65640  0.64979  0.59138  1.0000
  C   C952      1.0  0.76845  0.66363  0.71893  1.0000
  C   C953      1.0  0.95967  0.57098  0.73310  1.0000
  C   C954      1.0  0.59176  0.60763  0.71900  1.0000
  H   H959      1.0  0.69036  0.55906  0.71677  1.0000
  C   C955      1.0  0.93147  0.56692  0.76918  1.0000
  H   H960      1.0  0.03086  0.77778  0.86960  1.0000
  C   C956      1.0  0.96654  0.58406  0.77852  1.0000
  H   H961      1.0  0.70378  0.70164  0.59818  1.0000
  C   C957      1.0  0.60653  0.61930  0.73512  1.0000
  H   H962      1.0  0.94041  0.57920  0.80941  1.0000
  C   C958      1.0  0.74390  0.54258  0.71951  1.0000
  H   H963      1.0  0.76932  0.64634  0.72504  1.0000
  H   H964      1.0  0.00407  0.57438  0.73011  1.0000
  H   H965      1.0  0.97741  0.59184  0.79319  1.0000
  C   C959      1.0  0.67967  0.67581  0.59808  1.0000
  C   C960      1.0  0.78998  0.53607  0.66661  1.0000
  H   H966      1.0  0.77012  0.73517  0.74419  1.0000
  H   H967      1.0  0.76872  0.71482  0.77127  1.0000
  C   C961      1.0  0.77002  0.54425  0.65555  1.0000
  C   C962      1.0  0.57307  0.59515  0.76121  1.0000
  H   H968      1.0  0.77687  0.67536  0.75940  1.0000
  C   C963      1.0  0.99697  0.77134  0.88204  1.0000
  C   C964      1.0  0.60431  0.61848  0.76424  1.0000
  H   H969      1.0  0.02948  0.75683  0.94690  1.0000
  S   S318      1.0  0.56785  0.53829  0.80205  1.0000
  C   C965      1.0  0.58558  0.60560  0.80742  1.0000
  C   C966      1.0  0.76178  0.69179  0.68385  1.0000
  S   S319      1.0  0.02058  0.60111  0.81541  1.0000
  H   H970      1.0  0.76502  0.72503  0.69740  1.0000
  C   C967      1.0  0.70504  0.54865  0.71438  1.0000
  C   C968      1.0  0.57485  0.59554  0.73207  1.0000
  H   H971      1.0  0.99408  0.60265  0.72849  1.0000
  H   H972      1.0  0.91531  0.56097  0.77615  1.0000
  H   H973      1.0  0.81914  0.54381  0.68989  1.0000
  Fe  Fe156     1.0  0.02793  0.56501  0.80930  1.0000
  C   C969      1.0  0.77670  0.71869  0.75066  1.0000
  H   H974      1.0  0.65888  0.65329  0.53997  1.0000
  C   C970      1.0  0.76293  0.66958  0.69164  1.0000
  H   H975      1.0  0.53778  0.73672  0.89481  1.0000
  H   H976      1.0  0.01629  0.76464  0.97932  1.0000
  C   C971      1.0  0.01545  0.76634  0.95626  1.0000
  C   C972      1.0  0.03410  0.61532  0.84192  1.0000
  C   C973      1.0  0.02951  0.63782  0.84511  1.0000
  H   H977      1.0  0.54182  0.77872  0.96841  1.0000
  H   H978      1.0  0.66214  0.77739  0.85272  1.0000
  H   H979      1.0  0.75941  0.53351  0.64406  1.0000
  H   H980      1.0  0.61739  0.77727  0.94099  1.0000
  Fe  Fe157     1.0  0.01643  0.53126  0.76551  1.0000
  N   N81       1.0  0.68256  0.67921  0.54018  1.0000
  H   H981      1.0  0.84883  0.53541  0.55047  1.0000
  C   C974      1.0  0.83376  0.53380  0.60274  1.0000
  H   H982      1.0  0.70608  0.70459  0.54637  1.0000
  C   C975      1.0  0.97567  0.78059  0.88602  1.0000
  Fe  Fe158     1.0  0.95046  0.90292  0.16630  1.0000
  S   S320      1.0  0.93694  0.87856  0.19780  1.0000
  S   S321      1.0  0.95991  0.93827  0.17341  1.0000
  Fe  Fe159     1.0  0.94963  0.87005  0.11843  1.0000
  S   S322      1.0  0.93608  0.84274  0.14595  1.0000
  S   S323      1.0  0.96324  0.86692  0.07433  1.0000
  Fe  Fe160     1.0  0.91361  0.86896  0.16401  1.0000
  S   S324      1.0  0.87642  0.86643  0.17176  1.0000
  Fe  Fe161     1.0  0.96042  0.85447  0.17733  1.0000
  S   S325      1.0  0.98229  0.83176  0.20280  1.0000
  S   S326      1.0  0.92526  0.89546  0.13377  1.0000
  S   S327      1.0  0.97581  0.87960  0.14865  1.0000
  Fe  Fe162     1.0  0.70839  0.95438  0.39692  1.0000
  S   S328      1.0  0.72067  0.97968  0.36583  1.0000
  S   S329      1.0  0.70525  0.91776  0.39131  1.0000
  Fe  Fe163     1.0  0.69786  0.98862  0.44106  1.0000
  S   S330      1.0  0.68409  0.99488  0.48427  1.0000
  Fe  Fe164     1.0  0.69062  0.99945  0.37968  1.0000
  C   C976      1.0  0.67808  0.92909  0.45802  1.0000
  Fe  Fe165     1.0  0.73755  0.99473  0.40238  1.0000
  S   S331      1.0  0.67723  0.97309  0.40835  1.0000
  S   S332      1.0  0.72779  0.96752  0.43227  1.0000
  H   H983      1.0  0.62953  0.97290  0.32720  1.0000
  N   N82       1.0  0.53852  0.95156  0.14541  1.0000
  C   C977      1.0  0.61275  0.79384  0.22276  1.0000
  H   H984      1.0  0.81389  0.87198  0.24502  1.0000
  C   C978      1.0  0.60451  0.02974  0.33376  1.0000
  S   S333      1.0  0.57230  0.84228  0.21588  1.0000
  C   C979      1.0  0.68951  0.93275  0.51354  1.0000
  S   S334      1.0  0.60522  0.83198  0.16162  1.0000
  H   H985      1.0  0.81747  0.88134  0.28033  1.0000
  S   S335      1.0  0.59244  0.88287  0.17704  1.0000
  Fe  Fe166     1.0  0.55888  0.87088  0.19074  1.0000
  Fe  Fe167     1.0  0.58834  0.86078  0.14059  1.0000
  S   S336      1.0  0.59654  0.87443  0.09769  1.0000
  Fe  Fe168     1.0  0.60566  0.85303  0.19953  1.0000
  S   S337      1.0  0.63201  0.85595  0.23208  1.0000
  C   C980      1.0  0.87979  0.88243  0.24019  1.0000
  Fe  Fe169     1.0  0.79601  0.80252  0.26723  1.0000
  S   S338      1.0  0.79127  0.81211  0.31188  1.0000
  S   S339      1.0  0.83147  0.79553  0.25292  1.0000
  Fe  Fe170     1.0  0.74614  0.80521  0.25638  1.0000
  S   S340      1.0  0.73754  0.81567  0.29997  1.0000
  H   H986      1.0  0.96963  0.91182  0.03392  1.0000
  Fe  Fe171     1.0  0.76732  0.83742  0.29521  1.0000
  S   S341      1.0  0.77099  0.87346  0.30369  1.0000
  H   H987      1.0  0.65995  0.79033  0.29754  1.0000
  S   S342      1.0  0.77384  0.82926  0.25040  1.0000
  C   C981      1.0  0.00050  0.81650  0.18139  1.0000
  H   H988      1.0  0.01505  0.79820  0.21563  1.0000
  H   H989      1.0  0.64747  0.94573  0.46933  1.0000
  C   C982      1.0  0.94593  0.86337  0.04556  1.0000
  C   C983      1.0  0.58838  0.85791  0.06999  1.0000
  C   C984      1.0  0.57907  0.83722  0.07519  1.0000
  H   H990      1.0  0.00964  0.91190  0.16751  1.0000
  C   C985      1.0  0.85664  0.88270  0.24391  1.0000
  C   C986      1.0  0.65624  0.83987  0.22895  1.0000
  C   C987      1.0  0.67028  0.83795  0.25189  1.0000
  C   C988      1.0  0.69039  0.82622  0.24978  1.0000
  C   C989      1.0  0.69647  0.81611  0.22482  1.0000
  C   C990      1.0  0.68231  0.81784  0.20189  1.0000
  C   C991      1.0  0.66219  0.82976  0.20392  1.0000
  H   H991      1.0  0.66570  0.84575  0.27132  1.0000
  H   H992      1.0  0.70102  0.82488  0.26758  1.0000
  H   H993      1.0  0.02195  0.86817  0.22081  1.0000
  H   H994      1.0  0.65152  0.83139  0.18603  1.0000
  C   C992      1.0  0.88208  0.85157  0.27244  1.0000
  C   C993      1.0  0.01460  0.80043  0.19319  1.0000
  C   C994      1.0  0.55929  0.92992  0.20422  1.0000
  C   C995      1.0  0.56383  0.95230  0.20719  1.0000
  H   H995      1.0  0.57059  0.91988  0.19228  1.0000
  H   H996      1.0  0.57875  0.95913  0.19770  1.0000
  C   C996      1.0  0.72098  0.97638  0.50922  1.0000
  C   C997      1.0  0.69973  0.98559  0.51289  1.0000
  C   C998      1.0  0.02716  0.93815  0.18636  1.0000
  H   H997      1.0  0.57983  0.92582  0.10904  1.0000
  S   S343      1.0  0.70870  0.01680  0.41342  1.0000
  C   C999      1.0  0.62992  0.00623  0.37302  1.0000
  C   C1000     1.0  0.60655  0.00540  0.37416  1.0000
  H   H998      1.0  0.73935  0.92653  0.49293  1.0000
  H   H999      1.0  0.63955  0.99708  0.38816  1.0000
  H   H1000     1.0  0.91044  0.86600  0.25124  1.0000
  C   C1001     1.0  0.72390  0.90548  0.36736  1.0000
  C   C1002     1.0  0.72269  0.88281  0.36266  1.0000
  C   C1003     1.0  0.73726  0.87271  0.34341  1.0000
  C   C1004     1.0  0.75308  0.88530  0.32877  1.0000
  C   C1005     1.0  0.75427  0.90794  0.33347  1.0000
  C   C1006     1.0  0.73975  0.91800  0.35275  1.0000
  H   H1001     1.0  0.71048  0.87303  0.37398  1.0000
  H   H1002     1.0  0.73628  0.85522  0.34000  1.0000
  H   H1003     1.0  0.76648  0.91774  0.32220  1.0000
  H   H1004     1.0  0.74092  0.93544  0.35637  1.0000
  C   C1007     1.0  0.97284  0.94600  0.20444  1.0000
  C   C1008     1.0  0.97619  0.93089  0.22637  1.0000
  C   C1009     1.0  0.98801  0.93713  0.24998  1.0000
  C   C1010     1.0  0.99660  0.95843  0.25177  1.0000
  C   C1011     1.0  0.99276  0.97372  0.23017  1.0000
  C   C1012     1.0  0.98086  0.96750  0.20659  1.0000
  H   H1005     1.0  0.96995  0.91435  0.22496  1.0000
  H   H1006     1.0  0.99090  0.92528  0.26670  1.0000
  H   H1007     1.0  0.99935  0.99015  0.23136  1.0000
  H   H1008     1.0  0.97825  0.97926  0.18969  1.0000
  C   C1013     1.0  0.62784  0.00173  0.26600  1.0000
  Fe  Fe172     1.0  0.54645  0.02536  0.31611  1.0000
  H   H1009     1.0  0.61073  0.78678  0.20171  1.0000
  S   S344      1.0  0.01363  0.96461  0.28014  1.0000
  H   H1010     1.0  0.91506  0.86388  0.06897  1.0000
  C   C1014     1.0  0.01940  0.91658  0.18525  1.0000
  H   H1011     1.0  0.57446  0.98500  0.27396  1.0000
  H   H1012     1.0  0.67389  0.92763  0.43619  1.0000
  H   H1013     1.0  0.84684  0.89461  0.23211  1.0000
  C   C1015     1.0  0.56434  0.92811  0.12072  1.0000
  C   C1016     1.0  0.55788  0.94890  0.13032  1.0000
  H   H1014     1.0  0.55080  0.78838  0.11545  1.0000
  C   C1017     1.0  0.86441  0.84532  0.19256  1.0000
  C   C1018     1.0  0.87732  0.82924  0.20623  1.0000
  C   C1019     1.0  0.86704  0.81364  0.22419  1.0000
  C   C1020     1.0  0.84387  0.81416  0.22870  1.0000
  C   C1021     1.0  0.83102  0.82993  0.21449  1.0000
  C   C1022     1.0  0.84124  0.84542  0.19653  1.0000
  H   H1015     1.0  0.89521  0.82902  0.20322  1.0000
  H   H1016     1.0  0.01245  0.80794  0.11277  1.0000
  H   H1017     1.0  0.81318  0.83017  0.21716  1.0000
  H   H1018     1.0  0.83116  0.85767  0.18579  1.0000
  C   C1023     1.0  0.69876  0.92158  0.46749  1.0000
  C   C1024     1.0  0.85889  0.85230  0.27566  1.0000
  H   H1019     1.0  0.59843  0.88154  0.03827  1.0000
  H   H1020     1.0  0.81571  0.85244  0.27316  1.0000
  H   H1021     1.0  0.59803  0.78883  0.23561  1.0000
  S   S345      1.0  0.55362  0.85067  0.15247  1.0000
  C   C1025     1.0  0.76371  0.01643  0.51271  1.0000
  H   H1022     1.0  0.65759  0.94892  0.51918  1.0000
  S   S346      1.0  0.72144  0.80100  0.22199  1.0000
  C   C1026     1.0  0.57270  0.82423  0.05281  1.0000
  H   H1023     1.0  0.59826  0.00666  0.24152  1.0000
  H   H1024     1.0  0.01681  0.87262  0.18456  1.0000
  C   C1027     1.0  0.82224  0.86843  0.26516  1.0000
  C   C1028     1.0  0.72648  0.91644  0.50390  1.0000
  C   C1029     1.0  0.01406  0.87972  0.20557  1.0000
  H   H1025     1.0  0.56570  0.80817  0.05689  1.0000
  H   H1026     1.0  0.85083  0.84015  0.28915  1.0000
  H   H1027     1.0  0.02333  0.94991  0.16976  1.0000
  C   C1030     1.0  0.92275  0.86297  0.04843  1.0000
  C   C1031     1.0  0.58607  0.96528  0.32172  1.0000
  H   H1028     1.0  0.71049  0.91446  0.45261  1.0000
  N   N83       1.0  0.70429  0.92360  0.49491  1.0000
  C   C1032     1.0  0.00017  0.81949  0.15241  1.0000
  H   H1029     1.0  0.58575  0.94780  0.31548  1.0000
  N   N84       1.0  0.60053  0.97788  0.30255  1.0000
  C   C1033     1.0  0.59193  0.98689  0.27862  1.0000
  C   C1034     1.0  0.62267  0.97986  0.30812  1.0000
  C   C1035     1.0  0.60539  0.99907  0.26009  1.0000
  C   C1036     1.0  0.63664  0.99188  0.29000  1.0000
  S   S347      1.0  0.66985  0.01766  0.34756  1.0000
  H   H1030     1.0  0.59183  0.96635  0.34359  1.0000
  H   H1031     1.0  0.72931  0.89883  0.49896  1.0000
  C   C1037     1.0  0.66881  0.94071  0.50466  1.0000
  C   C1038     1.0  0.03438  0.90832  0.22986  1.0000
  C   C1039     1.0  0.65690  0.78565  0.27621  1.0000
  C   C1040     1.0  0.63709  0.79195  0.26312  1.0000
  H   H1032     1.0  0.99587  0.88028  0.21017  1.0000
  H   H1033     1.0  0.55566  0.89392  0.11922  1.0000
  S   S348      1.0  0.56334  0.78709  0.17477  1.0000
  C   C1041     1.0  0.89254  0.86672  0.25451  1.0000
  H   H1034     1.0  0.72866  0.91839  0.52675  1.0000
  N   N85       1.0  0.70860  0.87800  0.23878  1.0000
  C   C1042     1.0  0.71646  0.88252  0.26466  1.0000
  C   C1043     1.0  0.68758  0.88455  0.23143  1.0000
  C   C1044     1.0  0.70298  0.89337  0.28424  1.0000
  C   C1045     1.0  0.67353  0.89514  0.25065  1.0000
  C   C1046     1.0  0.68132  0.89953  0.27723  1.0000
  C   C1047     1.0  0.72309  0.86648  0.21877  1.0000
  H   H1035     1.0  0.73320  0.87758  0.27035  1.0000
  H   H1036     1.0  0.68118  0.88084  0.21102  1.0000
  H   H1037     1.0  0.70925  0.89686  0.30480  1.0000
  H   H1038     1.0  0.65653  0.89935  0.24510  1.0000
  H   H1039     1.0  0.67057  0.90757  0.29244  1.0000
  H   H1040     1.0  0.71352  0.85976  0.20124  1.0000
  H   H1041     1.0  0.73595  0.87781  0.21021  1.0000
  H   H1042     1.0  0.73144  0.85214  0.22911  1.0000
  H   H1043     1.0  0.57696  0.83119  0.09644  1.0000
  H   H1044     1.0  0.88768  0.89380  0.22544  1.0000
  C   C1048     1.0  0.59128  0.86552  0.04235  1.0000
  H   H1045     1.0  0.82129  0.01840  0.35345  1.0000
  N   N86       1.0  0.84649  0.86763  0.26129  1.0000
  N   N87       1.0  0.02324  0.90192  0.20672  1.0000
  C   C1049     1.0  0.54890  0.96598  0.22160  1.0000
  H   H1046     1.0  0.56881  0.97214  0.32169  1.0000
  H   H1047     1.0  0.89181  0.83902  0.28323  1.0000
  N   N88       1.0  0.74391  0.02530  0.50399  1.0000
  H   H1048     1.0  0.72829  0.97529  0.48865  1.0000
  H   H1049     1.0  0.74816  0.01589  0.46146  1.0000
  Fe  Fe173     1.0  0.76209  0.78924  0.31261  1.0000
  S   S349      1.0  0.55389  0.99442  0.22146  1.0000
  S   S350      1.0  0.77380  0.00399  0.40449  1.0000
  H   H1050     1.0  0.59837  0.99558  0.39025  1.0000
  Fe  Fe174     1.0  0.57066  0.82331  0.17637  1.0000
  H   H1051     1.0  0.98939  0.83185  0.14308  1.0000
  H   H1052     1.0  0.87711  0.80141  0.23495  1.0000
  H   H1053     1.0  0.56853  0.96284  0.12583  1.0000
  H   H1054     1.0  0.61265  0.81204  0.22045  1.0000
  H   H1055     1.0  0.65395  0.99433  0.29527  1.0000
  Fe  Fe175     1.0  0.02739  0.99868  0.28644  1.0000
  H   H1056     1.0  0.68699  0.81006  0.18248  1.0000
  C   C1050     1.0  0.66317  0.93900  0.47667  1.0000
  H   H1057     1.0  0.62484  0.80167  0.27453  1.0000
  S   S351      1.0  0.56469  0.01361  0.35452  1.0000
  C   C1051     1.0  0.01323  0.80590  0.13523  1.0000
  C   C1052     1.0  0.59381  0.01681  0.35422  1.0000
  C   C1053     1.0  0.64066  0.01861  0.35203  1.0000
  H   H1058     1.0  0.81520  0.02329  0.41815  1.0000
  H   H1059     1.0  0.54646  0.98324  0.16077  1.0000
  C   C1054     1.0  0.02657  0.78917  0.14689  1.0000
  C   C1055     1.0  0.53968  0.92100  0.21537  1.0000
  N   N89       1.0  0.63343  0.78647  0.23603  1.0000
  Fe  Fe176     1.0  0.53811  0.01479  0.25553  1.0000
  H   H1060     1.0  0.96845  0.78569  0.15386  1.0000
  H   H1061     1.0  0.77653  0.01194  0.49757  1.0000
  C   C1056     1.0  0.55076  0.91011  0.12645  1.0000
  C   C1057     1.0  0.02764  0.78674  0.17594  1.0000
  H   H1062     1.0  0.74957  0.96193  0.52947  1.0000
  H   H1063     1.0  0.85949  0.02024  0.36270  1.0000
  C   C1058     1.0  0.74029  0.02915  0.47410  1.0000
  H   H1064     1.0  0.92876  0.90926  0.03307  1.0000
  H   H1065     1.0  0.63832  0.01165  0.25222  1.0000
  H   H1066     1.0  0.72223  0.02924  0.46935  1.0000
  S   S352      1.0  0.03624  0.00508  0.33106  1.0000
  Fe  Fe177     1.0  0.91943  0.86967  0.92700  1.0000
  S   S353      1.0  0.92017  0.84657  0.89086  1.0000
  S   S354      1.0  0.90244  0.86152  0.96815  1.0000
  Fe  Fe178     1.0  0.93822  0.90808  0.89224  1.0000
  S   S355      1.0  0.94030  0.88842  0.85332  1.0000
  S   S356      1.0  0.94529  0.94440  0.89301  1.0000
  Fe  Fe179     1.0  0.90667  0.87540  0.86599  1.0000
  S   S357      1.0  0.87684  0.87794  0.83779  1.0000
  Fe  Fe180     1.0  0.95369  0.86154  0.88156  1.0000
  S   S358      1.0  0.98641  0.84548  0.86986  1.0000
  S   S359      1.0  0.90359  0.89737  0.90288  1.0000
  S   S360      1.0  0.95399  0.88239  0.91983  1.0000
  Fe  Fe181     1.0  0.68810  0.98860  0.66621  1.0000
  S   S361      1.0  0.70433  0.95569  0.65871  1.0000
  H   H1067     1.0  0.55568  0.94168  0.77491  1.0000
  Fe  Fe182     1.0  0.73250  0.01250  0.66871  1.0000
  S   S362      1.0  0.75253  0.98158  0.66219  1.0000
  Fe  Fe183     1.0  0.72728  0.97434  0.62959  1.0000
  S   S363      1.0  0.73999  0.96231  0.58799  1.0000
  Fe  Fe184     1.0  0.72795  0.96568  0.69184  1.0000
  S   S364      1.0  0.73748  0.94410  0.72856  1.0000
  S   S365      1.0  0.71011  0.99738  0.70144  1.0000
  C   C1059     1.0  0.60487  0.01098  0.72532  1.0000
  S   S366      1.0  0.70897  0.00644  0.63392  1.0000
  C   C1060     1.0  0.57186  0.91189  0.87409  1.0000
  C   C1061     1.0  0.98201  0.97368  0.78500  1.0000
  Fe  Fe185     1.0  0.57926  0.86186  0.90643  1.0000
  S   S367      1.0  0.60315  0.84142  0.93210  1.0000
  C   C1062     1.0  0.57545  0.83192  0.02521  1.0000
  C   C1063     1.0  0.57784  0.93316  0.86516  1.0000
  S   S368      1.0  0.56902  0.80092  0.92380  1.0000
  Fe  Fe186     1.0  0.57256  0.82829  0.95377  1.0000
  S   S369      1.0  0.56785  0.81496  0.99770  1.0000
  Fe  Fe187     1.0  0.59736  0.81601  0.89998  1.0000
  S   S370      1.0  0.62423  0.79367  0.88321  1.0000
  S   S371      1.0  0.57538  0.83701  0.87282  1.0000
  Fe  Fe188     1.0  0.78028  0.80277  0.79817  1.0000
  S   S372      1.0  0.77005  0.79011  0.75657  1.0000
  S   S373      1.0  0.81474  0.79697  0.81535  1.0000
  Fe  Fe189     1.0  0.73345  0.81944  0.81237  1.0000
  S   S374      1.0  0.71914  0.80801  0.77226  1.0000
  S   S375      1.0  0.71353  0.83915  0.84360  1.0000
  C   C1064     1.0  0.94589  0.96911  0.80691  1.0000
  Fe  Fe190     1.0  0.75042  0.82183  0.75300  1.0000
  S   S376      1.0  0.74940  0.84180  0.71288  1.0000
  H   H1068     1.0  0.78268  0.01775  0.67395  1.0000
  S   S377      1.0  0.76337  0.83554  0.79267  1.0000
  H   H1069     1.0  0.98146  0.79453  0.95001  1.0000
  H   H1070     1.0  0.67416  0.99440  0.54287  1.0000
  H   H1071     1.0  0.02270  0.93326  0.86123  1.0000
  C   C1065     1.0  0.64913  0.80640  0.87273  1.0000
  C   C1066     1.0  0.65326  0.82823  0.87949  1.0000
  C   C1067     1.0  0.67352  0.83792  0.87147  1.0000
  C   C1068     1.0  0.68938  0.82602  0.85595  1.0000
  C   C1069     1.0  0.68526  0.80418  0.84925  1.0000
  C   C1070     1.0  0.66525  0.79433  0.85789  1.0000
  H   H1072     1.0  0.64088  0.83768  0.89085  1.0000
  H   H1073     1.0  0.67665  0.85484  0.87663  1.0000
  C   C1071     1.0  0.63938  0.00336  0.74913  1.0000
  C   C1072     1.0  0.73100  0.02755  0.55163  1.0000
  H   H1074     1.0  0.01963  0.85068  0.92451  1.0000
  S   S378      1.0  0.60611  0.02160  0.78093  1.0000
  C   C1073     1.0  0.58478  0.85258  0.01997  1.0000
  H   H1075     1.0  0.75329  0.01442  0.58276  1.0000
  H   H1076     1.0  0.78281  0.00477  0.54806  1.0000
  H   H1077     1.0  0.99046  0.92388  0.99094  1.0000
  S   S379      1.0  0.65078  0.99384  0.66649  1.0000
  C   C1074     1.0  0.95217  0.94785  0.81529  1.0000
  H   H1078     1.0  0.95617  0.99862  0.78464  1.0000
  H   H1079     1.0  0.66667  0.99170  0.72353  1.0000
  C   C1075     1.0  0.61511  0.00495  0.69993  1.0000
  C   C1076     1.0  0.97351  0.93998  0.80846  1.0000
  C   C1077     1.0  0.90211  0.91730  0.98970  1.0000
  C   C1078     1.0  0.86041  0.84640  0.90808  1.0000
  C   C1079     1.0  0.63761  0.99847  0.69904  1.0000
  H   H1080     1.0  0.78171  0.83125  0.86269  1.0000
  H   H1081     1.0  0.94083  0.93775  0.82773  1.0000
  C   C1080     1.0  0.54541  0.93043  0.76253  1.0000
  H   H1082     1.0  0.83293  0.87600  0.88511  1.0000
  H   H1083     1.0  0.60574  0.00587  0.68084  1.0000
  H   H1084     1.0  0.60214  0.78284  0.97240  1.0000
  C   C1081     1.0  0.73748  0.91554  0.72352  1.0000
  C   C1082     1.0  0.73892  0.90677  0.69675  1.0000
  C   C1083     1.0  0.74173  0.88395  0.69353  1.0000
  C   C1084     1.0  0.74278  0.86987  0.71704  1.0000
  C   C1085     1.0  0.74015  0.87861  0.74367  1.0000
  C   C1086     1.0  0.73781  0.90140  0.74692  1.0000
  H   H1085     1.0  0.73859  0.91760  0.67858  1.0000
  H   H1086     1.0  0.74357  0.87724  0.67286  1.0000
  H   H1087     1.0  0.74037  0.86791  0.76185  1.0000
  H   H1088     1.0  0.73653  0.90812  0.76764  1.0000
  C   C1087     1.0  0.72403  0.97079  0.55937  1.0000
  C   C1088     1.0  0.79744  0.83444  0.87263  1.0000
  C   C1089     1.0  0.70276  0.97994  0.56312  1.0000
  H   H1089     1.0  0.69559  0.98125  0.58388  1.0000
  C   C1090     1.0  0.97113  0.95283  0.87893  1.0000
  C   C1091     1.0  0.97394  0.97487  0.87055  1.0000
  C   C1092     1.0  0.99408  0.98180  0.85814  1.0000
  N   N90       1.0  0.92641  0.91901  0.99013  1.0000
  C   C1093     1.0  0.00906  0.94489  0.86369  1.0000
  C   C1094     1.0  0.98871  0.93781  0.87541  1.0000
  H   H1090     1.0  0.96038  0.98656  0.87329  1.0000
  H   H1091     1.0  0.99602  0.99877  0.85156  1.0000
  H   H1092     1.0  0.63563  0.84434  0.00987  1.0000
  H   H1093     1.0  0.98670  0.92077  0.88182  1.0000
  C   C1095     1.0  0.98972  0.81678  0.87337  1.0000
  C   C1096     1.0  0.61926  0.78088  0.96353  1.0000
  C   C1097     1.0  0.81003  0.81703  0.88369  1.0000
  H   H1094     1.0  0.82304  0.02485  0.67778  1.0000
  S   S380      1.0  0.54903  0.85114  0.93126  1.0000
  H   H1095     1.0  0.79609  0.86940  0.86452  1.0000
  H   H1096     1.0  0.85837  0.85084  0.93038  1.0000
  C   C1098     1.0  0.86088  0.85492  0.82955  1.0000
  C   C1099     1.0  0.84079  0.85830  0.81547  1.0000
  C   C1100     1.0  0.82676  0.84056  0.81036  1.0000
  C   C1101     1.0  0.83284  0.81929  0.81911  1.0000
  C   C1102     1.0  0.85327  0.81581  0.83241  1.0000
  C   C1103     1.0  0.86723  0.83359  0.83775  1.0000
  H   H1097     1.0  0.83590  0.87477  0.80898  1.0000
  H   H1098     1.0  0.81115  0.84335  0.79999  1.0000
  H   H1099     1.0  0.85813  0.79934  0.83901  1.0000
  H   H1100     1.0  0.88283  0.83081  0.84829  1.0000
  C   C1104     1.0  0.94255  0.86111  0.99507  1.0000
  C   C1105     1.0  0.91937  0.86111  0.99783  1.0000
  C   C1106     1.0  0.99839  0.82422  0.93823  1.0000
  H   H1101     1.0  0.95031  0.86037  0.97463  1.0000
  N   N91       1.0  0.79353  0.91214  0.71839  1.0000
  C   C1107     1.0  0.79378  0.90845  0.74666  1.0000
  C   C1108     1.0  0.79557  0.89493  0.70049  1.0000
  C   C1109     1.0  0.79596  0.88703  0.75766  1.0000
  C   C1110     1.0  0.79769  0.87332  0.71077  1.0000
  C   C1111     1.0  0.79787  0.86939  0.73953  1.0000
  C   C1112     1.0  0.79163  0.93462  0.70695  1.0000
  H   H1102     1.0  0.79178  0.92203  0.76087  1.0000
  H   H1103     1.0  0.79488  0.89780  0.67812  1.0000
  H   H1104     1.0  0.79567  0.88406  0.78005  1.0000
  H   H1105     1.0  0.79825  0.85960  0.69660  1.0000
  H   H1106     1.0  0.79890  0.85262  0.74767  1.0000
  H   H1107     1.0  0.77895  0.93545  0.69029  1.0000
  H   H1108     1.0  0.78594  0.94645  0.72309  1.0000
  H   H1109     1.0  0.80792  0.94008  0.69826  1.0000
  C   C1113     1.0  0.96081  0.91617  0.01491  1.0000
  H   H1110     1.0  0.87163  0.83177  0.90667  1.0000
  C   C1114     1.0  0.55142  0.90342  0.86623  1.0000
  H   H1111     1.0  0.89155  0.86152  0.02686  1.0000
  C   C1115     1.0  0.61718  0.01068  0.74986  1.0000
  S   S381      1.0  0.55486  0.01168  0.82983  1.0000
  H   H1112     1.0  0.58693  0.85862  0.99871  1.0000
  H   H1113     1.0  0.02272  0.95787  0.78444  1.0000
  H   H1114     1.0  0.99344  0.98391  0.77296  1.0000
  C   C1116     1.0  0.64910  0.80582  0.94858  1.0000
  H   H1115     1.0  0.89595  0.90558  0.00609  1.0000
  H   H1116     1.0  0.00999  0.93510  0.76715  1.0000
  H   H1117     1.0  0.89430  0.93370  0.99300  1.0000
  H   H1118     1.0  0.96961  0.93317  0.94757  1.0000
  C   C1117     1.0  0.66135  0.82507  0.95128  1.0000
  H   H1119     1.0  0.97372  0.86227  0.01660  1.0000
  H   H1120     1.0  0.66553  0.85429  0.97539  1.0000
  N   N92       1.0  0.01666  0.78959  0.94786  1.0000
  C   C1118     1.0  0.97246  0.92276  0.99079  1.0000
  C   C1119     1.0  0.64954  0.99717  0.72382  1.0000
  N   N93       1.0  0.83870  0.84222  0.89580  1.0000
  C   C1120     1.0  0.82636  0.85944  0.88529  1.0000
  C   C1121     1.0  0.83067  0.82125  0.89548  1.0000
  C   C1122     1.0  0.80555  0.85582  0.87357  1.0000
  H   H1121     1.0  0.65290  0.79505  0.93128  1.0000
  H   H1122     1.0  0.69744  0.79489  0.83728  1.0000
  H   H1123     1.0  0.86900  0.86003  0.89665  1.0000
  H   H1124     1.0  0.58774  0.01668  0.72571  1.0000
  H   H1125     1.0  0.84054  0.80755  0.90350  1.0000
  S   S382      1.0  0.59024  0.89622  0.89498  1.0000
  H   H1126     1.0  0.59364  0.93980  0.87119  1.0000
  C   C1123     1.0  0.63968  0.83357  0.99263  1.0000
  C   C1124     1.0  0.01454  0.78481  0.87338  1.0000
  C   C1125     1.0  0.96082  0.98209  0.79149  1.0000
  H   H1127     1.0  0.92954  0.97552  0.81257  1.0000
  N   N94       1.0  0.65152  0.85325  0.81276  1.0000
  C   C1126     1.0  0.66483  0.87104  0.81652  1.0000
  C   C1127     1.0  0.63019  0.85310  0.82326  1.0000
  C   C1128     1.0  0.65697  0.88913  0.83160  1.0000
  C   C1129     1.0  0.62179  0.87098  0.83828  1.0000
  C   C1130     1.0  0.63531  0.88904  0.84256  1.0000
  C   C1131     1.0  0.65977  0.83464  0.79635  1.0000
  H   H1128     1.0  0.68180  0.87110  0.80834  1.0000
  H   H1129     1.0  0.61965  0.83897  0.82043  1.0000
  H   H1130     1.0  0.66766  0.90308  0.83485  1.0000
  H   H1131     1.0  0.60493  0.87088  0.84673  1.0000
  H   H1132     1.0  0.62891  0.90288  0.85445  1.0000
  H   H1133     1.0  0.65319  0.81884  0.80492  1.0000
  H   H1134     1.0  0.65476  0.83676  0.77426  1.0000
  H   H1135     1.0  0.67824  0.83326  0.79705  1.0000
  H   H1136     1.0  0.64891  0.00290  0.76811  1.0000
  H   H1137     1.0  0.97840  0.92358  0.81554  1.0000
  H   H1138     1.0  0.95566  0.81037  0.88522  1.0000
  H   H1139     1.0  0.02459  0.81779  0.86232  1.0000
  H   H1140     1.0  0.98316  0.83379  0.93570  1.0000
  H   H1141     1.0  0.54668  0.88704  0.87304  1.0000
  C   C1132     1.0  0.97205  0.80331  0.88184  1.0000
  N   N95       1.0  0.98825  0.95302  0.79393  1.0000
  C   C1133     1.0  0.01047  0.94438  0.78685  1.0000
  C   C1134     1.0  0.95578  0.86207  0.01888  1.0000
  H   H1142     1.0  0.55649  0.92016  0.74921  1.0000
  S   S383      1.0  0.54942  0.99382  0.76535  1.0000
  N   N96       1.0  0.63221  0.80089  0.96706  1.0000
  C   C1135     1.0  0.01173  0.96684  0.85475  1.0000
  Fe  Fe191     1.0  0.54726  0.82426  0.89981  1.0000
  C   C1136     1.0  0.62784  0.81414  0.98932  1.0000
  C   C1137     1.0  0.65643  0.83911  0.97332  1.0000
  S   S384      1.0  0.75140  0.78771  0.82148  1.0000
  C   C1138     1.0  0.90950  0.86168  0.02458  1.0000
  C   C1139     1.0  0.01090  0.80744  0.86897  1.0000
  C   C1140     1.0  0.96082  0.92788  0.96649  1.0000
  H   H1143     1.0  0.61485  0.80996  0.00440  1.0000
  H   H1144     1.0  0.56796  0.96248  0.84211  1.0000
  C   C1141     1.0  0.76745  0.01252  0.54117  1.0000
  C   C1142     1.0  0.01892  0.83372  0.93195  1.0000
  H   H1145     1.0  0.01685  0.93347  0.80390  1.0000
  C   C1143     1.0  0.56330  0.94604  0.84873  1.0000
  C   C1144     1.0  0.99755  0.80197  0.94611  1.0000
  H   H1146     1.0  0.67434  0.82916  0.93610  1.0000
  H   H1147     1.0  0.55478  0.95285  0.71574  1.0000
  C   C1145     1.0  0.93764  0.92595  0.96657  1.0000
  H   H1148     1.0  0.80420  0.80027  0.88209  1.0000
  C   C1146     1.0  0.75092  0.01805  0.56069  1.0000
  C   C1147     1.0  0.54268  0.93771  0.84129  1.0000
  H   H1149     1.0  0.92872  0.92990  0.94757  1.0000
  C   C1148     1.0  0.93762  0.91460  0.01427  1.0000
  C   C1149     1.0  0.69063  0.98733  0.53989  1.0000
  H   H1150     1.0  0.89666  0.91074  0.96943  1.0000
  Fe  Fe192     1.0  0.56888  0.01948  0.78687  1.0000
  H   H1151     1.0  0.69397  0.93474  0.53520  1.0000
  H   H1152     1.0  0.53660  0.91929  0.77762  1.0000
  C   C1150     1.0  0.53687  0.91632  0.84988  1.0000
  C   C1151     1.0  0.53737  0.95408  0.72193  1.0000
  C   C1152     1.0  0.73303  0.96885  0.53239  1.0000
