data_image0
_chemical_formula_structural       HCFeSFeS2FeS2FeSFeS3Fe2S2FeSHS2FeS2FeS2FeSFeS3FeS2H2C2FeS2FeSHCSHC6HCH4C6H5C6H5NHN2HC7H4C6H4C3H2C6H4C4H2C2H3NC6H10C2H2CFeCH3CHC2HCH2CH3C2SC2H3SC2H4CS2H4NC2HCNHCHC3HC2NC3HC2H2C2SH4CHC3HFeHCHCH6CN2FeHCH3FeCHC2H3CHC2HCH2SCFeSFe2HSC3HFeS2FeS2FeSFeS4FeS2NFeS2H2SHFeH4CFeS2HC2HFeCHCH2NHC3SHCH2NSCH2CHC6H5C2HFeC6H4C6H6SH5C2HCFeC2HC3H6CH3SC3NC6H2CHC2SN2CSC4SHC4NC3H3CHCFeH2CH2C2SNHCHCHC2HC2SCHSHCHCHC2HSHCH2C4HCHSH2CHSH2CHCFeC2H7FeSHCHCHCSHCSCFeH2CHFeHNFeS2FeS2FeHSFeSCS2CHCS2NCSFeSH2C2S2FeS2HFeHSHCFeCSC6H8C6HCH2CFeNFeSH2SCH2C2H2C4SNH4SH2C2HC4HCHC3HSCHC2HC3HC2HC7H4CHCHSH3C2HC4FeC2H3C2H2CN2C6H8CSHCHCH4C2HFeHNH3C2H4CFeHSC3SC2SHC3H5CH4CH2NSHFe2H3CFeHCHFeC3SCHCFeSCHC2S3CHFeS2FeS2FeCFeS4NHFeS2CFeSFeSC2HCFeS2C2SC2HC4NCH2C6H4FeSCH2C2HC6H4SCHCH2C4H3C2H2CHC2H3C5H3C2HC7H4NSC2H2CHCH2CHC2NFeCH3CHCHCH2NH3CH2CH3NC6H10CNCHCHCSHSH2CSCHCH3CHSCH2SH2C2HCH3CHCH2C2HC2HSFeSHCSCH2FeSC2SFeHSHS3CSC3NSCHSFeSFeSH2CHFeS2FeSCFeSFeS3C3HC2HSC7H2C6H4CSHCHC2H2C2HC6H4SH2FeHCSH2C3H3C5SH4SCH3C2H3C7H3SCHFeCNH3CHFe2H3CSFeHCFeHC2HNHSH2CNC4H2NC2SH2C6HC3H3C2SH2CHNC6H8NC6H4FeH5CH2CHCFeCHCSHCNH2SCFeHC3FeSNH2SNCFe2SH2FeSFeSFeHSH3SHSHCSFeS2FeSFeSHSCHSCSHCHSHCH5CHSC6HCH3C3HSCSC6H4C4HCHC2H2FeH3CHSC4FeH3CHC2H6C7H3CHSCSHCSC2N2H2C3H2CH2SHCHC2SC4H4C2HNC4H2CHC3H2SCH2C2HSHSFeCH3CH3C4H3SC3FeSCH2NH2CHCH2CSH3NC4HCHC3H2SCSFeSFeSC3FeSHSHFeS2FeS2FeSFeS3CSFeSCFeSFeS2CFeSCFeS2FeS2C2HC3H5C4HCH2C6H4C4H2C7H5CH3C7H5FeSCHC5NS2C5S2H2C2HNC2HCSCHCHNH2CSHCNC2SC3H7C4HNCNH3SH4C2NH5SH3CH2CNC6H8C3HFeH2SC3HCHFeCH2CH2C3HC2H2NHCH4CHFeCHCFeCSH2CN2HCSFeS2FeS2CFeSCSFeS2FeS2FeSFeS3FeSFeS2FeS2FeSFeS3FeS2FeS2CS2CH2C6H4C6H4C6H5CHC6H4C6HCH2C6H7SHC5HC2HC2SHC2HFeH2NCH4C2HSHFeC2HC2H2NC6H8NCHCHCH3C3FeH3CHC3NC6H9C3HCH2C2FeSC2H2CH4C3HNH2CH4CSH3CHSHNCHCHSFeHCHNHCS3FeS2FeS2FeSFeS3FeCSH2SFeSNCHS2HFeSCHNCH3CHC7H4C6H6CH2C6H4C2HC6H4NC5HSFe2CH2C5HCNC2HC3HCHNC5H3CHCH3S2HC3H2CS2H3C2H8C3SH5C2H2CSFeCSCH2SHSH2SH2CHCH2FeS2FeS2FeSFeS3HC2FeS2FeS2FeS2FeSFeS3HNSFeS2FeS2FeSFeS3C6H6C6H4C3H3C4HNH2CH2C6H5CHC7H4CH2C5HC4NH3CH2SH6C5N2CHSCHCH4C4NC6H12CH3CHCSC2HCSC2H2C5H2CH2FeH4C2H4CHC2H3NHNCH2C2FeHSFeS2FeS2FeSFeS3FeS2FeS2FeSFeS3FeS2FeS2FeSFeS3CH3CH2NC3H2C5HCHC2H6C2HC4H2C6H4C6H4C6H4C6H4NC6H7C2HSC2H2C4HCHCHNC5H8CNC5H2CH2C2H2C2HCNHCH2C2SH2C2HC2HC2HC2H2C2H2CHCHCH3CH2SHCHNH3NH3CH3CHSCFeS2FeS2FeSFeS3CSFeS2FeSFeHSC2HFeHSH4SHSFeSFeSFeHSFeHSHCHSH6NCH2C2H3CHCHNH2CH2CSC2FeCHCFeC2NHC8H4C6H4C6H4C6H3SHNC6H8CH2C5HSHCH2CHC2NH2NC4HCH3CFeCH2NC6H8C2H2FeHNSFeC2HC3SHS2H2FeHC2SHSHC2HSNCHCH2SC2FeH2C2FeS2FeS2FeSFeS3FeCSH2SC2SFeS2FeS2FeHCS2FeHSHC3HSFeHFeS2HFeS2CFeSNSCH3C2SHC2HC2H2CHCH4CSHC3HSH2CH3C6H4C6H4C6H4C6H4FeNC6H8NC4H6FeHCHCFeNC2HCH2CSH2CHC2HCH4CH2CH3NHC2HFeCHSC2HNFeHC3HCH3CNHC2HSC2HC2HCHC7SH2SFeS2FeS2FeS2FeSFeS3FeS2FeS2FeSFeS3FeS2FeSHFeSFeS3C3HNC2HC3H2NCHCH3C4HNSHC4NCH3C6H4C6H4C6H5C6H4NC6H9CHCHCH2C2SCFeSHCHCHCH2CH2NC6H8NC6H8CHCHCH5CHCHCH3NCHC2H2C4SHCHC3H9C5H3CNCHCNHCHCH2CHSH2C5FeNH2CHCFeS2FeS2FeSFeS3FeS2FeS2FeSFeS3HS2NHCSCHCFeS2FeS2FeSFeS3C6H4C9H4C9H6C2HCH4C3HC6H6C4HCHCHCH4CHCH3C5H5CHCH2NHCHSC5HC2NHCH3CHCHC2HCNH5CH4CH3CHC2FeNHC2H4NC6HCH4C2NH2CH3CH2C2H3C2H2SH2FeHC3H3SH2SCFeS2FeS2FeSFeS3Fe2SNHSH4S2HCFeS2H2NHC2H4C7H4C6H4SCH2C6H5CHCSHCHC6H5CH2CH2SC2FeSHC3HSC3SHC2H3C2HC4HCH4CNHSCHCH2N2C6H2SFeCH2C2HCH3SH3NHCFeCHC2H2C4FeHCH3CHNFeHSHFeS2FeS2FeSFeS3FeHFeS2FeSHS2FeS2FeS2Fe2S3FeS2CHFeS2FeS3CSNCH3C3HC2HNHC6SH3C6H4C2HC6H4C6H5C2H3C6H4C2H2C2HC2FeHCH2CHC2SHCH2CHCH2CFeC2NC6H6NC6H8SH4C3HC2HC2H2C2NHCNH2CH4NSHC6NCH5CHCHCFeH2CH5SNC2H2CHCH2SH2CHCH2CH2C4FeS2H2FeSFeS2FeS2FeSFeS3C2FeS2FeSFeSFeNSC2SFeS2FeHFeS4H2CH2C6HCH3NH2C3SCHC8H4CHC2HC6H4C7H4CHCSHC2HFeCHC2H3NC2SFeHC2HC2H4C2HNC6H8NH7CH2CSCH2C4FeH3FeHC3NH2CHCH3NC5H2SCFeH3CNFeCH2CH5C3HC2HCHNH2CHSCSCH4CSC2HC2NCHSC2H2CHS2HCNSC2H2SCH2C3HCSC2HCFeCSCSC3SC2FeSHCHNCH2SFeSHCHSNCSFeSFeHSFeCS2FeS3H3CHSFeHSHFeSCHS2C7H4C6HNHCHFeC2HS2HCH4SC2H3CHC2FeSH2CH2CH3SC5H2CHC6H4C4H3SHC5SFeH2CH2CH2SH3C6HCFeN2CHCH4SHCFe2C2HCH2CH2CH2FeCNH4NH3CHCH3CH2CH3C2H2S3H2SCFeS3C2HFeS2FeSHFeSFeS3CH2CH3CSHCSHSFeS2FeSFeSHSC7H4C2H2NFeH3C6H3S2CH2FeCHC2SH3C7HCH4SHCHC3NCFeCH3C4HCH2SCNH2C8H3CH3N2CHFeCHCSC4HCSCHCHCHCH3S2CH2CH2CH2C2H2SCHCH2CH3CNC2HC3NC2FeCHCHCFeCH7NC6H9C3HCSCHSFeC2H2C3FeHCSH2NFeHCNH2C3NFeH2SHC2FeSC2FeS2FeS2C3SH2FeS2H2SHSFeS2FeS2FeSC2S2C2H2NSCHC6H2NHC6H7FeHC2H2C6H5SHCHCHCHC5H2FeSH2C2HCH2C2HC7H8NHCNSHCH3SHCHCH2SCH2C2HC2H2CHC6H5CH2FeCNC2HC2H2SH2FeCHC4SCHC2H5SHCH3CH3CSHFeSHFeS2FeC3FeS3HSFeS3CSC2S2FeSHFeCS2HFeHSFeCSFeHSCHNH3CHC6NSCH2CHC8H4C2HSC2HCHCHCHCH2C4SCH2C5H3SC3HCH2SHCHCSC2N3H2C6H2CHSH2CH4CHSCSC3FeCH10CFe2CSH4CH2NH4FeHC2SCH3FeCSHCHC2HCH2CHSHFeH4C2FeNCHC2HCH4FeC2HC6H6CFeS2H2SHFeS2FeS2FeSFeS3CSFeSCFeSFeHSHFeSFeS2H2NHSC2FeC3HSH3CH2C2S2NC6H4CHC3H2C6H4SHCSHC7H4NHCH2CHCHCHSC2HC2SC4HC2NHCHC2FeC2H2C2H3NHC2HCHSHSC2SFeHCHSC2H2CH2CH2CNC6H3CH2SHSH2CH2C2H2CHC2H2CH8FeHFeCHFeH2C2HCH3CHC2H2C2HCH3FeSC2NC3HFe2S2FeS3FeSHFeS2FeSFeS3H2SHFeSCFeS2FeS2FeSFeS3HCHCSHFeS2CFeS2NC7H4C6H4C6H4C2HC2SC3H4C6H4C6H4Fe2CH3C2HCFeHSH3CNHCSCH2C2HC2H3CHSC2H2C3H2SHCHNC6H8NC6H8C2HCHCH2CH5FeNC2HC2H2CH3C2SCHCHCHCH2C2NCH2CSCSHSHC2NSCH2NC4HCH2FeHCH2C3H4SHNH2
_chemical_formula_sum              "H2304 C2304 Fe384 S768 N192"
_cell_length_a       67.1612
_cell_length_b       66.9747
_cell_length_c       85.6083
_cell_angle_alpha    80.5603
_cell_angle_beta     80.5744
_cell_angle_gamma    80.3526

_space_group_name_H-M_alt    "P 1"
_space_group_IT_number       1

loop_
  _space_group_symop_operation_xyz
  'x, y, z'

loop_
  _atom_site_type_symbol
  _atom_site_label
  _atom_site_symmetry_multiplicity
  _atom_site_fract_x
  _atom_site_fract_y
  _atom_site_fract_z
  _atom_site_occupancy
  H   H1        1.0  0.04985  0.46034  0.00068  1.0000
  C   C1        1.0  0.00147  0.98924  0.06268  1.0000
  Fe  Fe1       1.0  0.18794  0.00590  0.10507  1.0000
  S   S1        1.0  0.17112  0.03700  0.11073  1.0000
  Fe  Fe2       1.0  0.15949  0.15437  0.17103  1.0000
  S   S2        1.0  0.15237  0.18524  0.15668  1.0000
  S   S3        1.0  0.14779  0.14793  0.19744  1.0000
  Fe  Fe3       1.0  0.18567  0.13618  0.14286  1.0000
  S   S4        1.0  0.18144  0.16613  0.12660  1.0000
  S   S5        1.0  0.20587  0.10863  0.13337  1.0000
  Fe  Fe4       1.0  0.18597  0.18089  0.14725  1.0000
  S   S6        1.0  0.20097  0.20922  0.14630  1.0000
  Fe  Fe5       1.0  0.14829  0.16795  0.13729  1.0000
  S   S7        1.0  0.12645  0.17503  0.11863  1.0000
  S   S8        1.0  0.19319  0.15086  0.16271  1.0000
  S   S9        1.0  0.15245  0.13717  0.15247  1.0000
  Fe  Fe6       1.0  0.24633  0.44756  0.08396  1.0000
  Fe  Fe7       1.0  0.23336  0.42710  0.11753  1.0000
  S   S10       1.0  0.20587  0.45091  0.12149  1.0000
  S   S11       1.0  0.24247  0.40315  0.13805  1.0000
  Fe  Fe8       1.0  0.20093  0.44865  0.09642  1.0000
  S   S12       1.0  0.16842  0.45098  0.09053  1.0000
  H   H2        1.0  0.24832  0.43215  0.03688  1.0000
  S   S13       1.0  0.22669  0.42284  0.09353  1.0000
  S   S14       1.0  0.25486  0.44994  0.10792  1.0000
  Fe  Fe9       1.0  0.06604  0.40508  0.01943  1.0000
  S   S15       1.0  0.04038  0.39542  0.03809  1.0000
  S   S16       1.0  0.06060  0.41800  0.99384  1.0000
  Fe  Fe10      1.0  0.09495  0.40322  0.04460  1.0000
  S   S17       1.0  0.07098  0.39380  0.06478  1.0000
  S   S18       1.0  0.12832  0.40285  0.04783  1.0000
  Fe  Fe11      1.0  0.06433  0.37235  0.04920  1.0000
  S   S19       1.0  0.06414  0.33900  0.06077  1.0000
  Fe  Fe12      1.0  0.04909  0.41759  0.05202  1.0000
  S   S20       1.0  0.02331  0.43779  0.06505  1.0000
  S   S21       1.0  0.08962  0.38046  0.02947  1.0000
  S   S22       1.0  0.07341  0.42862  0.03289  1.0000
  Fe  Fe13      1.0  0.01021  0.21667  0.11001  1.0000
  S   S23       1.0  0.01763  0.22156  0.08321  1.0000
  S   S24       1.0  0.03117  0.20831  0.12919  1.0000
  H   H3        1.0  0.23888  0.43702  0.16455  1.0000
  H   H4        1.0  0.22509  0.02266  0.14929  1.0000
  C   C2        1.0  0.31322  0.01698  0.02715  1.0000
  C   C3        1.0  0.05893  0.40400  0.97831  1.0000
  Fe  Fe14      1.0  0.30413  0.29244  0.13875  1.0000
  S   S25       1.0  0.28344  0.27336  0.15614  1.0000
  S   S26       1.0  0.29289  0.31898  0.12072  1.0000
  Fe  Fe15      1.0  0.30380  0.24652  0.14683  1.0000
  S   S27       1.0  0.29475  0.21674  0.14289  1.0000
  H   H5        1.0  0.23689  0.99127  0.05387  1.0000
  C   C4        1.0  0.16347  0.99951  0.15213  1.0000
  S   S28       1.0  0.26955  0.43875  0.06283  1.0000
  H   H6        1.0  0.13111  0.33502  0.06268  1.0000
  C   C5        1.0  0.04463  0.32329  0.06307  1.0000
  C   C6        1.0  0.02668  0.32971  0.05623  1.0000
  C   C7        1.0  0.01181  0.31655  0.05818  1.0000
  C   C8        1.0  0.01459  0.29692  0.06710  1.0000
  C   C9        1.0  0.03252  0.29049  0.07397  1.0000
  C   C10       1.0  0.04746  0.30359  0.07191  1.0000
  H   H7        1.0  0.02428  0.34477  0.04937  1.0000
  C   C11       1.0  0.17964  0.46287  0.04733  1.0000
  H   H8        1.0  0.03494  0.27542  0.08081  1.0000
  H   H9        1.0  0.06130  0.29842  0.07723  1.0000
  H   H10       1.0  0.02992  0.19625  0.04572  1.0000
  H   H11       1.0  0.28848  0.41601  0.12034  1.0000
  C   C12       1.0  0.25451  0.37876  0.13368  1.0000
  C   C13       1.0  0.25603  0.37345  0.11837  1.0000
  C   C14       1.0  0.26688  0.35451  0.11485  1.0000
  C   C15       1.0  0.27649  0.34082  0.12653  1.0000
  C   C16       1.0  0.27453  0.34585  0.14199  1.0000
  C   C17       1.0  0.26350  0.36477  0.14556  1.0000
  H   H12       1.0  0.24905  0.38401  0.10917  1.0000
  H   H13       1.0  0.26812  0.35064  0.10292  1.0000
  H   H14       1.0  0.28196  0.33544  0.15106  1.0000
  H   H15       1.0  0.26232  0.36877  0.15745  1.0000
  H   H16       1.0  0.99984  0.21270  0.15598  1.0000
  C   C18       1.0  0.13888  0.41578  0.06040  1.0000
  C   C19       1.0  0.15971  0.41046  0.06206  1.0000
  C   C20       1.0  0.16890  0.42055  0.07163  1.0000
  C   C21       1.0  0.15737  0.43628  0.07956  1.0000
  C   C22       1.0  0.13649  0.44139  0.07807  1.0000
  C   C23       1.0  0.12726  0.43117  0.06862  1.0000
  H   H17       1.0  0.16886  0.39852  0.05581  1.0000
  H   H18       1.0  0.18497  0.41645  0.07262  1.0000
  H   H19       1.0  0.12741  0.45356  0.08411  1.0000
  H   H20       1.0  0.11124  0.43545  0.06750  1.0000
  H   H21       1.0  0.29666  0.43110  0.03430  1.0000
  N   N1        1.0  0.30989  0.37029  0.09722  1.0000
  H   H22       1.0  0.16407  0.46759  0.05263  1.0000
  N   N2        1.0  0.11008  0.35273  0.07844  1.0000
  N   N3        1.0  0.00801  0.24571  0.04000  1.0000
  H   H23       1.0  0.06357  0.37418  0.99216  1.0000
  C   C24       1.0  0.00062  0.47585  0.06499  1.0000
  C   C25       1.0  0.10002  0.18444  0.12187  1.0000
  C   C26       1.0  0.08897  0.18848  0.10880  1.0000
  C   C27       1.0  0.06791  0.19583  0.11081  1.0000
  C   C28       1.0  0.05768  0.19915  0.12596  1.0000
  C   C29       1.0  0.06871  0.19505  0.13904  1.0000
  C   C30       1.0  0.08978  0.18774  0.13702  1.0000
  H   H24       1.0  0.09678  0.18602  0.09703  1.0000
  H   H25       1.0  0.05962  0.19894  0.10066  1.0000
  H   H26       1.0  0.06093  0.19754  0.15081  1.0000
  H   H27       1.0  0.09809  0.18466  0.14717  1.0000
  C   C31       1.0  0.22733  0.21095  0.14378  1.0000
  C   C32       1.0  0.23327  0.23015  0.14352  1.0000
  C   C33       1.0  0.25390  0.23215  0.14292  1.0000
  C   C34       1.0  0.26884  0.21494  0.14253  1.0000
  C   C35       1.0  0.26301  0.19576  0.14238  1.0000
  C   C36       1.0  0.24231  0.19375  0.14302  1.0000
  H   H28       1.0  0.22178  0.24354  0.14401  1.0000
  H   H29       1.0  0.25818  0.24702  0.14288  1.0000
  H   H30       1.0  0.27449  0.18237  0.14197  1.0000
  H   H31       1.0  0.23791  0.17890  0.14311  1.0000
  C   C37       1.0  0.06092  0.38264  0.98061  1.0000
  C   C38       1.0  0.10058  0.37901  0.10145  1.0000
  C   C39       1.0  0.03428  0.47481  0.04963  1.0000
  H   H32       1.0  0.18789  0.19641  0.21040  1.0000
  H   H33       1.0  0.02268  0.27167  0.04000  1.0000
  C   C40       1.0  0.18136  0.05564  0.11823  1.0000
  C   C41       1.0  0.16792  0.07048  0.12609  1.0000
  C   C42       1.0  0.17526  0.08647  0.13121  1.0000
  C   C43       1.0  0.19615  0.08774  0.12853  1.0000
  C   C44       1.0  0.20965  0.07248  0.12116  1.0000
  C   C45       1.0  0.20232  0.05647  0.11603  1.0000
  H   H34       1.0  0.15170  0.06983  0.12798  1.0000
  H   H35       1.0  0.16473  0.09799  0.13698  1.0000
  H   H36       1.0  0.22584  0.07332  0.11908  1.0000
  H   H37       1.0  0.21282  0.04512  0.11001  1.0000
  C   C46       1.0  0.29203  0.44747  0.03349  1.0000
  C   C47       1.0  0.27286  0.47681  0.04492  1.0000
  C   C48       1.0  0.17114  0.17455  0.20442  1.0000
  C   C49       1.0  0.02865  0.21282  0.04406  1.0000
  H   H38       1.0  0.17352  0.17974  0.19170  1.0000
  H   H39       1.0  0.14240  0.22382  0.21692  1.0000
  C   C50       1.0  0.15945  0.15882  0.21035  1.0000
  C   C51       1.0  0.19574  0.47011  0.05198  1.0000
  H   H40       1.0  0.99337  0.07656  0.07081  1.0000
  H   H41       1.0  0.02915  0.43553  0.01730  1.0000
  H   H42       1.0  0.19262  0.48047  0.06087  1.0000
  N   N4        1.0  0.14861  0.11946  0.10323  1.0000
  C   C52       1.0  0.15361  0.10233  0.09579  1.0000
  C   C53       1.0  0.16325  0.13099  0.10417  1.0000
  C   C54       1.0  0.17385  0.09605  0.08947  1.0000
  C   C55       1.0  0.18363  0.12511  0.09806  1.0000
  C   C56       1.0  0.18895  0.10745  0.09076  1.0000
  C   C57       1.0  0.12750  0.12580  0.11018  1.0000
  H   H43       1.0  0.14213  0.09298  0.09519  1.0000
  H   H44       1.0  0.15924  0.14459  0.10998  1.0000
  H   H45       1.0  0.17791  0.08191  0.08428  1.0000
  H   H46       1.0  0.19531  0.13377  0.09958  1.0000
  H   H47       1.0  0.20483  0.10229  0.08657  1.0000
  H   H48       1.0  0.12704  0.12924  0.12254  1.0000
  H   H49       1.0  0.12090  0.13997  0.10294  1.0000
  H   H50       1.0  0.11774  0.11376  0.11092  1.0000
  H   H51       1.0  0.26528  0.31215  0.20768  1.0000
  H   H52       1.0  0.99463  0.27789  0.14385  1.0000
  C   C58       1.0  0.11446  0.33995  0.06558  1.0000
  C   C59       1.0  0.00993  0.22483  0.04172  1.0000
  H   H53       1.0  0.99685  0.21728  0.04162  1.0000
  H   H54       1.0  0.24944  0.45660  0.02446  1.0000
  C   C60       1.0  0.08738  0.36530  0.10060  1.0000
  Fe  Fe16      1.0  0.30653  0.27190  0.17280  1.0000
  C   C61       1.0  0.12309  0.36612  0.07920  1.0000
  H   H55       1.0  0.24178  0.43620  0.01683  1.0000
  H   H56       1.0  0.19119  0.02458  0.14108  1.0000
  H   H57       1.0  0.10695  0.32597  0.06895  1.0000
  C   C62       1.0  0.30450  0.38522  0.12154  1.0000
  H   H58       1.0  0.13682  0.36696  0.07060  1.0000
  C   C63       1.0  0.26044  0.21446  0.18264  1.0000
  C   C64       1.0  0.99031  0.22741  0.15399  1.0000
  H   H59       1.0  0.12879  0.39025  0.09107  1.0000
  C   C65       1.0  0.04318  0.24359  0.04341  1.0000
  H   H60       1.0  0.26176  0.18234  0.18210  1.0000
  H   H61       1.0  0.25754  0.48306  0.13899  1.0000
  C   C66       1.0  0.18369  0.44893  0.03637  1.0000
  H   H62       1.0  0.21700  0.24879  0.18296  1.0000
  H   H63       1.0  0.12554  0.19698  0.20958  1.0000
  H   H64       1.0  0.05586  0.25116  0.04452  1.0000
  C   C67       1.0  0.32004  0.29707  0.20559  1.0000
  C   C68       1.0  0.99284  0.44342  0.03500  1.0000
  S   S29       1.0  0.19938  0.99609  0.08076  1.0000
  C   C69       1.0  0.29492  0.40335  0.11375  1.0000
  C   C70       1.0  0.22931  0.47060  0.17738  1.0000
  H   H65       1.0  0.04885  0.46635  0.04552  1.0000
  H   H66       1.0  0.16275  0.00850  0.14005  1.0000
  H   H67       1.0  0.29836  0.38919  0.07706  1.0000
  S   S30       1.0  0.99469  0.18026  0.06666  1.0000
  C   C71       1.0  0.27880  0.45566  0.04612  1.0000
  C   C72       1.0  0.01939  0.46460  0.05958  1.0000
  H   H68       1.0  0.25443  0.24707  0.18264  1.0000
  H   H69       1.0  0.23694  0.45268  0.14550  1.0000
  H   H70       1.0  0.23649  0.99474  0.17044  1.0000
  H   H71       1.0  0.09673  0.38953  0.11023  1.0000
  C   C73       1.0  0.20391  0.44263  0.03002  1.0000
  S   S31       1.0  0.29630  0.26991  0.19949  1.0000
  S   S32       1.0  0.22021  0.47335  0.08553  1.0000
  H   H72       1.0  0.24230  0.46040  0.18150  1.0000
  H   H73       1.0  0.05978  0.21313  0.04722  1.0000
  H   H74       1.0  0.26272  0.48331  0.05458  1.0000
  H   H75       1.0  0.10858  0.34875  0.05469  1.0000
  N   N5        1.0  0.18351  0.99836  0.15720  1.0000
  C   C74       1.0  0.30047  0.38802  0.08950  1.0000
  C   C75       1.0  0.19595  0.01256  0.15035  1.0000
  H   H76       1.0  0.32219  0.30222  0.19286  1.0000
  C   C76       1.0  0.31194  0.36873  0.11304  1.0000
  N   N6        1.0  0.22038  0.46645  0.16522  1.0000
  H   H77       1.0  0.22832  0.46891  0.04924  1.0000
  C   C77       1.0  0.11858  0.37940  0.09073  1.0000
  H   H78       1.0  0.30954  0.45382  0.01011  1.0000
  C   C78       1.0  0.21517  0.01153  0.15499  1.0000
  C   C79       1.0  0.21579  0.46348  0.04541  1.0000
  C   C80       1.0  0.17919  0.18400  0.21501  1.0000
  H   H79       1.0  0.21582  0.44014  0.15599  1.0000
  C   C81       1.0  0.24078  0.44338  0.02780  1.0000
  C   C82       1.0  0.22842  0.44820  0.15749  1.0000
  N   N7        1.0  0.23131  0.19796  0.18257  1.0000
  C   C83       1.0  0.21881  0.21629  0.18298  1.0000
  C   C84       1.0  0.25184  0.19683  0.18259  1.0000
  C   C85       1.0  0.22689  0.23421  0.18312  1.0000
  H   H80       1.0  0.05160  0.99772  0.06080  1.0000
  C   C86       1.0  0.24786  0.23325  0.18291  1.0000
  C   C87       1.0  0.22257  0.17930  0.18263  1.0000
  H   H81       1.0  0.20259  0.21721  0.18267  1.0000
  H   H82       1.0  0.30525  0.04107  0.99020  1.0000
  C   C88       1.0  0.25903  0.98790  0.03271  1.0000
  C   C89       1.0  0.03511  0.46573  0.00711  1.0000
  S   S33       1.0  0.21483  0.98868  0.11646  1.0000
  H   H83       1.0  0.23324  0.16845  0.17557  1.0000
  H   H84       1.0  0.21889  0.17174  0.19509  1.0000
  H   H85       1.0  0.20841  0.18285  0.17693  1.0000
  H   H86       1.0  0.08178  0.34201  0.08805  1.0000
  C   C90       1.0  0.04535  0.22230  0.04494  1.0000
  H   H87       1.0  0.07314  0.36512  0.10866  1.0000
  C   C91       1.0  0.29933  0.46029  0.01975  1.0000
  C   C92       1.0  0.29353  0.48146  0.01859  1.0000
  C   C93       1.0  0.29300  0.40483  0.09761  1.0000
  H   H88       1.0  0.00272  0.42909  0.03912  1.0000
  Fe  Fe17      1.0  0.99402  0.24967  0.08420  1.0000
  H   H89       1.0  0.19830  0.47719  0.14931  1.0000
  C   C94       1.0  0.09238  0.35222  0.08892  1.0000
  H   H90       1.0  0.03634  0.99122  0.03789  1.0000
  C   C95       1.0  0.30847  0.28130  0.21179  1.0000
  H   H91       1.0  0.17123  0.44274  0.03311  1.0000
  H   H92       1.0  0.20693  0.43160  0.02166  1.0000
  H   H93       1.0  0.99557  0.14808  0.04792  1.0000
  H   H94       1.0  0.25232  0.28038  0.22101  1.0000
  H   H95       1.0  0.30539  0.38366  0.13422  1.0000
  H   H96       1.0  0.28540  0.41877  0.09146  1.0000
  C   C96       1.0  0.02336  0.45171  0.01663  1.0000
  N   N8        1.0  0.00500  0.45831  0.02511  1.0000
  N   N9        1.0  0.21962  0.45017  0.03438  1.0000
  Fe  Fe18      1.0  0.99114  0.20448  0.08335  1.0000
  H   H97       1.0  0.27682  0.21364  0.18200  1.0000
  C   C97       1.0  0.02431  0.25513  0.04087  1.0000
  H   H98       1.0  0.28724  0.02272  0.01440  1.0000
  H   H99       1.0  0.00322  0.10711  0.07655  1.0000
  H   H100      1.0  0.15140  0.00682  0.16075  1.0000
  Fe  Fe19      1.0  0.22706  0.47368  0.11055  1.0000
  C   C98       1.0  0.20470  0.47994  0.15948  1.0000
  H   H101      1.0  0.01604  0.24401  0.14929  1.0000
  C   C99       1.0  0.22151  0.99595  0.16687  1.0000
  C   C100      1.0  0.26383  0.30848  0.22061  1.0000
  H   H102      1.0  0.99801  0.13471  0.09341  1.0000
  H   H103      1.0  0.31853  0.35438  0.11937  1.0000
  H   H104      1.0  0.30550  0.00861  0.03771  1.0000
  C   C101      1.0  0.30293  0.02502  0.01411  1.0000
  H   H105      1.0  0.01095  0.99509  0.06942  1.0000
  C   C102      1.0  0.99956  0.24514  0.15027  1.0000
  C   C103      1.0  0.99755  0.47874  0.02395  1.0000
  H   H106      1.0  0.24841  0.99530  0.02458  1.0000
  C   C104      1.0  0.31318  0.03545  0.00047  1.0000
  H   H107      1.0  0.30318  0.34495  0.08820  1.0000
  H   H108      1.0  0.99802  0.32167  0.05278  1.0000
  S   S34       1.0  0.99562  0.28075  0.06872  1.0000
  C   C105      1.0  0.31655  0.35249  0.08872  1.0000
  Fe  Fe20      1.0  0.01566  0.33810  0.45796  1.0000
  S   S35       1.0  0.02643  0.32264  0.43574  1.0000
  Fe  Fe21      1.0  0.30507  0.31173  0.30365  1.0000
  Fe  Fe22      1.0  0.00803  0.23404  0.36543  1.0000
  H   H109      1.0  0.05438  0.18522  0.36802  1.0000
  S   S36       1.0  0.04270  0.22824  0.35948  1.0000
  C   C106      1.0  0.17554  0.17786  0.23158  1.0000
  C   C107      1.0  0.22038  0.47551  0.47008  1.0000
  C   C108      1.0  0.16916  0.45773  0.40151  1.0000
  H   H110      1.0  0.02330  0.14118  0.40120  1.0000
  Fe  Fe23      1.0  0.13845  0.19298  0.29727  1.0000
  S   S37       1.0  0.16045  0.21324  0.28285  1.0000
  S   S38       1.0  0.10389  0.20148  0.29860  1.0000
  Fe  Fe24      1.0  0.17276  0.15723  0.30287  1.0000
  S   S39       1.0  0.19748  0.17444  0.28890  1.0000
  S   S40       1.0  0.17570  0.12532  0.31680  1.0000
  Fe  Fe25      1.0  0.18116  0.20075  0.30142  1.0000
  S   S41       1.0  0.19707  0.22024  0.31343  1.0000
  Fe  Fe26      1.0  0.17510  0.18559  0.27124  1.0000
  S   S42       1.0  0.18485  0.19106  0.24443  1.0000
  S   S43       1.0  0.15786  0.18270  0.31688  1.0000
  S   S44       1.0  0.15174  0.16617  0.28419  1.0000
  S   S45       1.0  0.23696  0.01363  0.33549  1.0000
  Fe  Fe27      1.0  0.28445  0.00608  0.35821  1.0000
  S   S46       1.0  0.25859  0.03178  0.36124  1.0000
  S   S47       1.0  0.26542  0.46028  0.34156  1.0000
  N   N10       1.0  0.25547  0.28525  0.24447  1.0000
  Fe  Fe28      1.0  0.25951  0.03510  0.33467  1.0000
  S   S48       1.0  0.25936  0.06546  0.31850  1.0000
  S   S49       1.0  0.28691  0.01100  0.33137  1.0000
  H   H111      1.0  0.18352  0.41111  0.42109  1.0000
  H   H112      1.0  0.09302  0.16688  0.25863  1.0000
  S   S50       1.0  0.30290  0.44454  0.36264  1.0000
  H   H113      1.0  0.05204  0.16167  0.39367  1.0000
  Fe  Fe29      1.0  0.29824  0.44616  0.33708  1.0000
  H   H114      1.0  0.02820  0.18836  0.35032  1.0000
  H   H115      1.0  0.23330  0.47292  0.46037  1.0000
  H   H116      1.0  0.99807  0.18489  0.40960  1.0000
  H   H117      1.0  0.23746  0.03471  0.39646  1.0000
  C   C109      1.0  0.21636  0.04999  0.29562  1.0000
  Fe  Fe30      1.0  0.29955  0.27247  0.29108  1.0000
  S   S51       1.0  0.28158  0.25108  0.28279  1.0000
  S   S52       1.0  0.29468  0.30586  0.28134  1.0000
  H   H118      1.0  0.18910  0.03572  0.30128  1.0000
  C   C110      1.0  0.10604  0.17222  0.26241  1.0000
  C   C111      1.0  0.25401  0.99000  0.42840  1.0000
  H   H119      1.0  0.23560  0.46896  0.29788  1.0000
  Fe  Fe31      1.0  0.26414  0.98894  0.33382  1.0000
  C   C112      1.0  0.07215  0.39458  0.46699  1.0000
  H   H120      1.0  0.24575  0.99546  0.29493  1.0000
  C   C113      1.0  0.12436  0.20178  0.25403  1.0000
  H   H121      1.0  0.29922  0.99161  0.40897  1.0000
  H   H122      1.0  0.18687  0.12686  0.34932  1.0000
  N   N11       1.0  0.26697  0.99447  0.41461  1.0000
  H   H123      1.0  0.19782  0.45657  0.43552  1.0000
  C   C114      1.0  0.99101  0.17213  0.41617  1.0000
  C   C115      1.0  0.23757  0.01080  0.29516  1.0000
  C   C116      1.0  0.26206  0.29733  0.25342  1.0000
  S   S53       1.0  0.12306  0.47996  0.45488  1.0000
  H   H124      1.0  0.22837  0.43869  0.42020  1.0000
  C   C117      1.0  0.18402  0.45771  0.38798  1.0000
  H   H125      1.0  0.15807  0.47136  0.40284  1.0000
  H   H126      1.0  0.21110  0.44078  0.37646  1.0000
  N   N12       1.0  0.16921  0.44122  0.41328  1.0000
  S   S54       1.0  0.31024  0.99981  0.37373  1.0000
  C   C118      1.0  0.01761  0.29789  0.41579  1.0000
  H   H127      1.0  0.30744  0.29927  0.34368  1.0000
  H   H128      1.0  0.20830  0.06544  0.29595  1.0000
  C   C119      1.0  0.19864  0.42373  0.39844  1.0000
  H   H129      1.0  0.17020  0.99605  0.43277  1.0000
  C   C120      1.0  0.22049  0.22888  0.30476  1.0000
  C   C121      1.0  0.22822  0.24272  0.31206  1.0000
  C   C122      1.0  0.24701  0.24958  0.30563  1.0000
  C   C123      1.0  0.25834  0.24239  0.29194  1.0000
  C   C124      1.0  0.25072  0.22832  0.28478  1.0000
  C   C125      1.0  0.23182  0.22172  0.29106  1.0000
  H   H130      1.0  0.21958  0.24827  0.32271  1.0000
  H   H131      1.0  0.25268  0.26041  0.31126  1.0000
  H   H132      1.0  0.25945  0.22252  0.27427  1.0000
  H   H133      1.0  0.22611  0.21099  0.28537  1.0000
  H   H134      1.0  0.21386  0.02695  0.42148  1.0000
  C   C126      1.0  0.16409  0.16193  0.23751  1.0000
  C   C127      1.0  0.22188  0.45396  0.41550  1.0000
  H   H135      1.0  0.16136  0.15696  0.25023  1.0000
  Fe  Fe32      1.0  0.23819  0.00809  0.36210  1.0000
  C   C128      1.0  0.19892  0.10857  0.31650  1.0000
  C   C129      1.0  0.19990  0.09029  0.32723  1.0000
  C   C130      1.0  0.21835  0.07695  0.32793  1.0000
  C   C131      1.0  0.23596  0.08181  0.31786  1.0000
  C   C132      1.0  0.23494  0.09991  0.30691  1.0000
  C   C133      1.0  0.21647  0.11329  0.30624  1.0000
  H   H136      1.0  0.18634  0.08652  0.33516  1.0000
  H   H137      1.0  0.21896  0.06297  0.33634  1.0000
  H   H138      1.0  0.24851  0.10367  0.29900  1.0000
  H   H139      1.0  0.21584  0.12732  0.29790  1.0000
  C   C134      1.0  0.05923  0.22076  0.34234  1.0000
  C   C135      1.0  0.08034  0.21665  0.34295  1.0000
  C   C136      1.0  0.09417  0.21058  0.32974  1.0000
  C   C137      1.0  0.08702  0.20862  0.31570  1.0000
  C   C138      1.0  0.06586  0.21257  0.31512  1.0000
  C   C139      1.0  0.05201  0.21857  0.32837  1.0000
  H   H140      1.0  0.08609  0.21834  0.35368  1.0000
  H   H141      1.0  0.11038  0.20766  0.33036  1.0000
  H   H142      1.0  0.06018  0.21119  0.30429  1.0000
  H   H143      1.0  0.03582  0.22182  0.32768  1.0000
  H   H144      1.0  0.11782  0.15888  0.26517  1.0000
  H   H145      1.0  0.00968  0.28042  0.39912  1.0000
  S   S55       1.0  0.20877  0.01091  0.37946  1.0000
  H   H146      1.0  0.03184  0.30097  0.40852  1.0000
  H   H147      1.0  0.31573  0.04206  0.35976  1.0000
  H   H148      1.0  0.13901  0.43839  0.42463  1.0000
  H   H149      1.0  0.25560  0.12249  0.32736  1.0000
  H   H150      1.0  0.26237  0.25384  0.25312  1.0000
  C   C140      1.0  0.15359  0.44175  0.42741  1.0000
  C   C141      1.0  0.01153  0.30610  0.43022  1.0000
  H   H151      1.0  0.28084  0.40041  0.34016  1.0000
  C   C142      1.0  0.22900  0.01820  0.41977  1.0000
  Fe  Fe33      1.0  0.27078  0.46116  0.36675  1.0000
  C   C143      1.0  0.26949  0.31545  0.24616  1.0000
  C   C144      1.0  0.23493  0.00191  0.43126  1.0000
  H   H152      1.0  0.99880  0.17882  0.34393  1.0000
  C   C145      1.0  0.11531  0.18542  0.23414  1.0000
  C   C146      1.0  0.24224  0.02253  0.40571  1.0000
  C   C147      1.0  0.18701  0.00188  0.40907  1.0000
  H   H153      1.0  0.26200  0.29270  0.26620  1.0000
  H   H154      1.0  0.20943  0.46471  0.47021  1.0000
  H   H155      1.0  0.17591  0.15217  0.34256  1.0000
  H   H156      1.0  0.29683  0.26263  0.23323  1.0000
  H   H157      1.0  0.25985  0.15763  0.31353  1.0000
  H   H158      1.0  0.18823  0.14738  0.36040  1.0000
  C   C148      1.0  0.25647  0.29049  0.22825  1.0000
  H   H159      1.0  0.20811  0.00047  0.30044  1.0000
  H   H160      1.0  0.27650  0.03515  0.29562  1.0000
  H   H161      1.0  0.24848  0.47872  0.31138  1.0000
  S   S56       1.0  0.28810  0.33474  0.31981  1.0000
  C   C149      1.0  0.04075  0.16280  0.38573  1.0000
  C   C150      1.0  0.24883  0.26582  0.25217  1.0000
  C   C151      1.0  0.30149  0.46785  0.26798  1.0000
  N   N13       1.0  0.20837  0.14704  0.33857  1.0000
  C   C152      1.0  0.22440  0.13150  0.33753  1.0000
  C   C153      1.0  0.21066  0.16642  0.33121  1.0000
  C   C154      1.0  0.24313  0.13503  0.32849  1.0000
  C   C155      1.0  0.22920  0.17050  0.32212  1.0000
  C   C156      1.0  0.24547  0.15466  0.32069  1.0000
  C   C157      1.0  0.18894  0.14319  0.34829  1.0000
  H   H162      1.0  0.27160  0.01388  0.39240  1.0000
  H   H163      1.0  0.19810  0.17888  0.33224  1.0000
  C   C158      1.0  0.21624  0.01359  0.29821  1.0000
  H   H164      1.0  0.23085  0.18587  0.31619  1.0000
  C   C159      1.0  0.29935  0.45827  0.28379  1.0000
  C   C160      1.0  0.27045  0.32096  0.22965  1.0000
  S   S57       1.0  0.31014  0.47634  0.32972  1.0000
  N   N14       1.0  0.01144  0.16637  0.36555  1.0000
  N   N15       1.0  0.26515  0.47600  0.28820  1.0000
  C   C161      1.0  0.02716  0.17772  0.36134  1.0000
  S   S58       1.0  0.00148  0.37113  0.45612  1.0000
  C   C162      1.0  0.13430  0.21384  0.22616  1.0000
  C   C163      1.0  0.30424  0.39890  0.31979  1.0000
  C   C164      1.0  0.00511  0.28620  0.41046  1.0000
  C   C165      1.0  0.09705  0.41672  0.46887  1.0000
  S   S59       1.0  0.10283  0.02118  0.46725  1.0000
  H   H165      1.0  0.21047  0.41061  0.39753  1.0000
  C   C166      1.0  0.19561  0.48347  0.41790  1.0000
  C   C167      1.0  0.26135  0.01052  0.40336  1.0000
  C   C168      1.0  0.22204  0.48292  0.39453  1.0000
  C   C169      1.0  0.31452  0.38682  0.30814  1.0000
  N   N16       1.0  0.24800  0.02715  0.29284  1.0000
  C   C170      1.0  0.20561  0.03333  0.29863  1.0000
  C   C171      1.0  0.23767  0.04660  0.29248  1.0000
  C   C172      1.0  0.20451  0.99599  0.39844  1.0000
  H   H166      1.0  0.03662  0.10858  0.47058  1.0000
  H   H167      1.0  0.14211  0.22642  0.24563  1.0000
  H   H168      1.0  0.10880  0.17322  0.23081  1.0000
  C   C173      1.0  0.24585  0.47999  0.29875  1.0000
  H   H169      1.0  0.24593  0.05962  0.29013  1.0000
  C   C174      1.0  0.04205  0.17605  0.37134  1.0000
  Fe  Fe34      1.0  0.15621  0.48388  0.45188  1.0000
  H   H170      1.0  0.27596  0.02543  0.27715  1.0000
  H   H171      1.0  0.27689  0.33456  0.22383  1.0000
  C   C175      1.0  0.02470  0.15129  0.38991  1.0000
  H   H172      1.0  0.22264  0.11611  0.34335  1.0000
  H   H173      1.0  0.27658  0.00844  0.29589  1.0000
  C   C176      1.0  0.28382  0.37178  0.33075  1.0000
  C   C177      1.0  0.30956  0.36727  0.30782  1.0000
  S   S60       1.0  0.00260  0.12873  0.45357  1.0000
  N   N17       1.0  0.11503  0.18713  0.24989  1.0000
  H   H174      1.0  0.24068  0.26718  0.26445  1.0000
  C   C178      1.0  0.30569  0.27486  0.22833  1.0000
  H   H175      1.0  0.18450  0.47117  0.37901  1.0000
  C   C179      1.0  0.99962  0.16024  0.42915  1.0000
  H   H176      1.0  0.12458  0.20285  0.26650  1.0000
  C   C180      1.0  0.99316  0.30191  0.43951  1.0000
  C   C181      1.0  0.19891  0.44064  0.38652  1.0000
  H   H177      1.0  0.01321  0.16405  0.43252  1.0000
  C   C182      1.0  0.31412  0.28429  0.23868  1.0000
  C   C183      1.0  0.20454  0.46405  0.42419  1.0000
  S   S61       1.0  0.99811  0.22428  0.39165  1.0000
  C   C184      1.0  0.28885  0.39129  0.33112  1.0000
  H   H178      1.0  0.06242  0.09721  0.44837  1.0000
  S   S62       1.0  0.12286  0.42099  0.46621  1.0000
  H   H179      1.0  0.06878  0.38083  0.46351  1.0000
  C   C185      1.0  0.18354  0.99114  0.42461  1.0000
  H   H180      1.0  0.17622  0.01501  0.40533  1.0000
  C   C186      1.0  0.18349  0.42422  0.41179  1.0000
  H   H181      1.0  0.27192  0.36598  0.33959  1.0000
  C   C187      1.0  0.99077  0.14347  0.43774  1.0000
  C   C188      1.0  0.08397  0.08143  0.46401  1.0000
  H   H182      1.0  0.09518  0.07588  0.45445  1.0000
  S   S63       1.0  0.25053  0.44869  0.38915  1.0000
  H   H183      1.0  0.06398  0.04263  0.46007  1.0000
  C   C189      1.0  0.27036  0.02389  0.29016  1.0000
  H   H184      1.0  0.27506  0.32483  0.25321  1.0000
  H   H185      1.0  0.22439  0.99793  0.44195  1.0000
  C   C190      1.0  0.23054  0.46319  0.40053  1.0000
  C   C191      1.0  0.15608  0.15243  0.22691  1.0000
  C   C192      1.0  0.28093  0.46246  0.29378  1.0000
  C   C193      1.0  0.13413  0.21533  0.24225  1.0000
  H   H186      1.0  0.15096  0.45706  0.43140  1.0000
  C   C194      1.0  0.29416  0.35966  0.31914  1.0000
  H   H187      1.0  0.31189  0.44773  0.28838  1.0000
  S   S64       1.0  0.31140  0.42321  0.31975  1.0000
  H   H188      1.0  0.99937  0.35977  0.41752  1.0000
  H   H189      1.0  0.15821  0.43044  0.43770  1.0000
  C   C195      1.0  0.09236  0.39902  0.46425  1.0000
  H   H190      1.0  0.10010  0.17906  0.27357  1.0000
  S   S65       1.0  0.30708  0.27847  0.31440  1.0000
  H   H191      1.0  0.23822  0.26082  0.24541  1.0000
  H   H192      1.0  0.31165  0.27928  0.25142  1.0000
  C   C196      1.0  0.28519  0.48131  0.26230  1.0000
  H   H193      1.0  0.27945  0.45491  0.30605  1.0000
  C   C197      1.0  0.06559  0.09324  0.46061  1.0000
  Fe  Fe35      1.0  0.31232  0.47589  0.35574  1.0000
  C   C198      1.0  0.01002  0.15339  0.37967  1.0000
  C   C199      1.0  0.99594  0.16784  0.35502  1.0000
  H   H194      1.0  0.31770  0.35808  0.29885  1.0000
  H   H195      1.0  0.31580  0.46499  0.26018  1.0000
  H   H196      1.0  0.14711  0.14021  0.23154  1.0000
  H   H197      1.0  0.00091  0.34207  0.39392  1.0000
  H   H198      1.0  0.99720  0.14489  0.38323  1.0000
  H   H199      1.0  0.99576  0.15266  0.35148  1.0000
  H   H200      1.0  0.31100  0.33461  0.34626  1.0000
  Fe  Fe36      1.0  0.13213  0.45062  0.47060  1.0000
  S   S66       1.0  0.16564  0.45366  0.46607  1.0000
  H   H201      1.0  0.10444  0.38859  0.45863  1.0000
  C   C200      1.0  0.12479  0.19885  0.22204  1.0000
  H   H202      1.0  0.32137  0.29102  0.36060  1.0000
  C   C201      1.0  0.26699  0.48517  0.27263  1.0000
  H   H203      1.0  0.21940  0.46340  0.51983  1.0000
  C   C202      1.0  0.16524  0.28504  0.71632  1.0000
  S   S67       1.0  0.02364  0.20429  0.63493  1.0000
  H   H204      1.0  0.22440  0.48066  0.54224  1.0000
  C   C203      1.0  0.20228  0.44647  0.56686  1.0000
  S   S68       1.0  0.03565  0.34192  0.47570  1.0000
  C   C204      1.0  0.04225  0.27267  0.68855  1.0000
  Fe  Fe37      1.0  0.12697  0.99645  0.47691  1.0000
  H   H205      1.0  0.22229  0.47229  0.64160  1.0000
  H   H206      1.0  0.02417  0.37802  0.51300  1.0000
  C   C205      1.0  0.22293  0.44139  0.58810  1.0000
  H   H207      1.0  0.23262  0.08213  0.68127  1.0000
  Fe  Fe38      1.0  0.00987  0.33269  0.49438  1.0000
  H   H208      1.0  0.01485  0.24306  0.51858  1.0000
  N   N18       1.0  0.18320  0.29563  0.67773  1.0000
  Fe  Fe39      1.0  0.99169  0.19684  0.58661  1.0000
  S   S69       1.0  0.02491  0.05699  0.51182  1.0000
  S   S70       1.0  0.03095  0.40252  0.47913  1.0000
  Fe  Fe40      1.0  0.10074  0.24224  0.68164  1.0000
  S   S71       1.0  0.10927  0.21071  0.69458  1.0000
  S   S72       1.0  0.08244  0.25303  0.66083  1.0000
  Fe  Fe41      1.0  0.12213  0.26245  0.70316  1.0000
  H   H209      1.0  0.23360  0.06230  0.54868  1.0000
  S   S73       1.0  0.12757  0.29443  0.70549  1.0000
  Fe  Fe42      1.0  0.13994  0.22005  0.69482  1.0000
  S   S74       1.0  0.17156  0.20307  0.68786  1.0000
  C   C206      1.0  0.28986  0.42174  0.66092  1.0000
  S   S75       1.0  0.13222  0.25041  0.67978  1.0000
  S   S76       1.0  0.08989  0.25666  0.70401  1.0000
  C   C207      1.0  0.25740  0.01868  0.53440  1.0000
  H   H210      1.0  0.23690  0.43486  0.59301  1.0000
  C   C208      1.0  0.06111  0.42566  0.47886  1.0000
  S   S77       1.0  0.99383  0.36487  0.49545  1.0000
  S   S78       1.0  0.23945  0.36152  0.69925  1.0000
  N   N19       1.0  0.03981  0.24243  0.70781  1.0000
  C   C209      1.0  0.07684  0.07636  0.50875  1.0000
  S   S79       1.0  0.29608  0.99223  0.60551  1.0000
  Fe  Fe43      1.0  0.22628  0.39230  0.70644  1.0000
  S   S80       1.0  0.21705  0.42194  0.69021  1.0000
  H   H211      1.0  0.05750  0.21315  0.70795  1.0000
  H   H212      1.0  0.05641  0.33140  0.50804  1.0000
  C   C210      1.0  0.16652  0.16898  0.71038  1.0000
  C   C211      1.0  0.28169  0.03742  0.54016  1.0000
  S   S81       1.0  0.12699  0.46462  0.49339  1.0000
  S   S82       1.0  0.25895  0.10685  0.70019  1.0000
  Fe  Fe44      1.0  0.26544  0.07322  0.69814  1.0000
  S   S83       1.0  0.27661  0.06277  0.67363  1.0000
  S   S84       1.0  0.25102  0.45177  0.61752  1.0000
  H   H213      1.0  0.05674  0.39360  0.51298  1.0000
  Fe  Fe45      1.0  0.26241  0.00174  0.60561  1.0000
  H   H214      1.0  0.04349  0.09845  0.49857  1.0000
  S   S85       1.0  0.24255  0.01694  0.62593  1.0000
  H   H215      1.0  0.29857  0.27403  0.71359  1.0000
  C   C212      1.0  0.99932  0.24970  0.52246  1.0000
  Fe  Fe46      1.0  0.29860  0.00173  0.57897  1.0000
  C   C213      1.0  0.29348  0.00400  0.53094  1.0000
  S   S86       1.0  0.26507  0.01364  0.57914  1.0000
  C   C214      1.0  0.26656  0.05001  0.66070  1.0000
  C   C215      1.0  0.24679  0.04487  0.66393  1.0000
  C   C216      1.0  0.23950  0.03520  0.65298  1.0000
  C   C217      1.0  0.25205  0.03003  0.63893  1.0000
  C   C218      1.0  0.27190  0.03487  0.63585  1.0000
  C   C219      1.0  0.27902  0.04496  0.64659  1.0000
  H   H216      1.0  0.23710  0.04830  0.67482  1.0000
  H   H217      1.0  0.22413  0.03147  0.65549  1.0000
  H   H218      1.0  0.28174  0.03104  0.62510  1.0000
  H   H219      1.0  0.29433  0.04887  0.64395  1.0000
  H   H220      1.0  0.08292  0.08888  0.51265  1.0000
  H   H221      1.0  0.16354  0.26911  0.71709  1.0000
  H   H222      1.0  0.23432  0.98712  0.65669  1.0000
  H   H223      1.0  0.21065  0.17791  0.68642  1.0000
  C   C220      1.0  0.22548  0.42935  0.66962  1.0000
  C   C221      1.0  0.21942  0.44956  0.66267  1.0000
  C   C222      1.0  0.22677  0.45659  0.64666  1.0000
  C   C223      1.0  0.24017  0.44338  0.63737  1.0000
  C   C224      1.0  0.24579  0.42301  0.64417  1.0000
  C   C225      1.0  0.23858  0.41603  0.66023  1.0000
  H   H224      1.0  0.20924  0.45997  0.66983  1.0000
  C   C226      1.0  0.18376  0.25922  0.68100  1.0000
  H   H225      1.0  0.25608  0.41265  0.63705  1.0000
  H   H226      1.0  0.24325  0.40042  0.66537  1.0000
  C   C227      1.0  0.06436  0.34458  0.50650  1.0000
  Fe  Fe47      1.0  0.15969  0.47058  0.48753  1.0000
  N   N20       1.0  0.05456  0.36262  0.51135  1.0000
  Fe  Fe48      1.0  0.00341  0.21362  0.61518  1.0000
  S   S87       1.0  0.02195  0.30902  0.51401  1.0000
  H   H227      1.0  0.04493  0.27959  0.67613  1.0000
  H   H228      1.0  0.02616  0.35075  0.51814  1.0000
  S   S88       1.0  0.21024  0.31678  0.72024  1.0000
  C   C228      1.0  0.17478  0.47657  0.59906  1.0000
  H   H229      1.0  0.05052  0.19248  0.65858  1.0000
  H   H230      1.0  0.04452  0.24243  0.68261  1.0000
  C   C229      1.0  0.17991  0.17927  0.69882  1.0000
  C   C230      1.0  0.20020  0.17001  0.69532  1.0000
  H   H231      1.0  0.17793  0.32775  0.67898  1.0000
  H   H232      1.0  0.99623  0.13018  0.53028  1.0000
  C   C231      1.0  0.26362  0.45101  0.67660  1.0000
  C   C232      1.0  0.08002  0.02830  0.47979  1.0000
  C   C233      1.0  0.05505  0.09389  0.48888  1.0000
  C   C234      1.0  0.24585  0.05072  0.54467  1.0000
  S   S89       1.0  0.29366  0.34658  0.70798  1.0000
  N   N21       1.0  0.27715  0.02036  0.53543  1.0000
  H   H233      1.0  0.15085  0.17596  0.71313  1.0000
  H   H234      1.0  0.17649  0.24612  0.68038  1.0000
  H   H235      1.0  0.10157  0.06634  0.48246  1.0000
  H   H236      1.0  0.09293  0.39126  0.50073  1.0000
  S   S90       1.0  0.99125  0.32663  0.47663  1.0000
  H   H237      1.0  0.20007  0.44401  0.55507  1.0000
  H   H238      1.0  0.23198  0.42820  0.56624  1.0000
  C   C235      1.0  0.26612  0.05277  0.54498  1.0000
  C   C236      1.0  0.04495  0.04441  0.49930  1.0000
  H   H239      1.0  0.03237  0.36565  0.53183  1.0000
  C   C237      1.0  0.98975  0.16571  0.55597  1.0000
  C   C238      1.0  0.15199  0.32094  0.71082  1.0000
  C   C239      1.0  0.07885  0.02430  0.49643  1.0000
  C   C240      1.0  0.06132  0.03225  0.50614  1.0000
  H   H240      1.0  0.06253  0.07332  0.51678  1.0000
  C   C241      1.0  0.99940  0.15020  0.54689  1.0000
  H   H241      1.0  0.09174  0.01582  0.50185  1.0000
  C   C242      1.0  0.17419  0.27914  0.67667  1.0000
  C   C243      1.0  0.06465  0.37918  0.50947  1.0000
  C   C244      1.0  0.28492  0.44137  0.65270  1.0000
  H   H242      1.0  0.25383  0.29797  0.70583  1.0000
  S   S91       1.0  0.15990  0.99844  0.47809  1.0000
  C   C245      1.0  0.05644  0.40784  0.47443  1.0000
  H   H243      1.0  0.31841  0.15918  0.70990  1.0000
  C   C246      1.0  0.19347  0.13998  0.71442  1.0000
  C   C247      1.0  0.01588  0.28271  0.54174  1.0000
  H   H244      1.0  0.17627  0.32055  0.65978  1.0000
  C   C248      1.0  0.03327  0.36432  0.51897  1.0000
  C   C249      1.0  0.08510  0.37796  0.50253  1.0000
  C   C250      1.0  0.27172  0.45607  0.66063  1.0000
  H   H245      1.0  0.03131  0.27558  0.53823  1.0000
  C   C251      1.0  0.20700  0.47391  0.52501  1.0000
  C   C252      1.0  0.21191  0.27315  0.68720  1.0000
  H   H246      1.0  0.01521  0.14401  0.54769  1.0000
  C   C253      1.0  0.20775  0.45398  0.59665  1.0000
  C   C254      1.0  0.04035  0.21805  0.64151  1.0000
  C   C255      1.0  0.04223  0.23839  0.63523  1.0000
  C   C256      1.0  0.05545  0.24875  0.64110  1.0000
  C   C257      1.0  0.06694  0.23892  0.65325  1.0000
  C   C258      1.0  0.06507  0.21857  0.65953  1.0000
  C   C259      1.0  0.05181  0.20824  0.65370  1.0000
  H   H247      1.0  0.03351  0.24613  0.62586  1.0000
  H   H248      1.0  0.05676  0.26450  0.63619  1.0000
  H   H249      1.0  0.07385  0.21079  0.66884  1.0000
  H   H250      1.0  0.26061  0.31860  0.71401  1.0000
  C   C260      1.0  0.28645  0.39608  0.68489  1.0000
  H   H251      1.0  0.20996  0.24082  0.69005  1.0000
  C   C261      1.0  0.05106  0.09961  0.47310  1.0000
  H   H252      1.0  0.17761  0.47624  0.61154  1.0000
  S   S92       1.0  0.00370  0.17409  0.56894  1.0000
  H   H253      1.0  0.04030  0.30081  0.69816  1.0000
  H   H254      1.0  0.28851  0.98876  0.53529  1.0000
  H   H255      1.0  0.15615  0.31723  0.67648  1.0000
  C   C262      1.0  0.00738  0.30001  0.53208  1.0000
  C   C263      1.0  0.99834  0.22303  0.54570  1.0000
  H   H256      1.0  0.01107  0.26090  0.56310  1.0000
  C   C264      1.0  0.06321  0.03953  0.47295  1.0000
  C   C265      1.0  0.08470  0.34295  0.49923  1.0000
  C   C266      1.0  0.17327  0.14938  0.71810  1.0000
  C   C267      1.0  0.04218  0.25155  0.69226  1.0000
  Fe  Fe49      1.0  0.10013  0.22572  0.71692  1.0000
  C   C268      1.0  0.00444  0.27432  0.55581  1.0000
  C   C269      1.0  0.18751  0.45918  0.57565  1.0000
  H   H257      1.0  0.13989  0.33285  0.70730  1.0000
  H   H258      1.0  0.27972  0.30419  0.70178  1.0000
  H   H259      1.0  0.29375  0.00490  0.66874  1.0000
  C   C270      1.0  0.03700  0.27512  0.71677  1.0000
  C   C271      1.0  0.18607  0.31104  0.71820  1.0000
  H   H260      1.0  0.17206  0.34225  0.71290  1.0000
  H   H261      1.0  0.27370  0.38747  0.68487  1.0000
  C   C272      1.0  0.17019  0.32631  0.71400  1.0000
  N   N22       1.0  0.07297  0.08204  0.49212  1.0000
  N   N23       1.0  0.19720  0.12418  0.67652  1.0000
  C   C273      1.0  0.20564  0.10484  0.68219  1.0000
  C   C274      1.0  0.20852  0.13654  0.66549  1.0000
  C   C275      1.0  0.22586  0.09737  0.67669  1.0000
  C   C276      1.0  0.22888  0.12960  0.65987  1.0000
  C   C277      1.0  0.23752  0.10981  0.66546  1.0000
  C   C278      1.0  0.17557  0.13121  0.68155  1.0000
  H   H262      1.0  0.19682  0.09515  0.69116  1.0000
  H   H263      1.0  0.20186  0.15194  0.66109  1.0000
  H   H264      1.0  0.23792  0.13947  0.65127  1.0000
  H   H265      1.0  0.25332  0.10412  0.66129  1.0000
  H   H266      1.0  0.16610  0.12680  0.67356  1.0000
  H   H267      1.0  0.17069  0.12447  0.69409  1.0000
  H   H268      1.0  0.17260  0.14811  0.68123  1.0000
  H   H269      1.0  0.29739  0.03910  0.54052  1.0000
  C   C279      1.0  0.04140  0.22009  0.71119  1.0000
  S   S93       1.0  0.00958  0.22190  0.58830  1.0000
  H   H270      1.0  0.22259  0.14339  0.70023  1.0000
  C   C280      1.0  0.30510  0.32573  0.72061  1.0000
  H   H271      1.0  0.25263  0.46202  0.68269  1.0000
  C   C281      1.0  0.26603  0.30295  0.71095  1.0000
  H   H272      1.0  0.29765  0.00576  0.51775  1.0000
  H   H273      1.0  0.20901  0.30595  0.68375  1.0000
  H   H274      1.0  0.22645  0.27104  0.69163  1.0000
  H   H275      1.0  0.26981  0.06595  0.54920  1.0000
  C   C282      1.0  0.20266  0.25624  0.68639  1.0000
  C   C283      1.0  0.26883  0.43124  0.68443  1.0000
  H   H276      1.0  0.26716  0.47109  0.65420  1.0000
  Fe  Fe50      1.0  0.24511  0.48380  0.60339  1.0000
  H   H277      1.0  0.29058  0.44496  0.64008  1.0000
  N   N24       1.0  0.28198  0.41696  0.67663  1.0000
  H   H278      1.0  0.26174  0.42721  0.69663  1.0000
  H   H279      1.0  0.08787  0.06204  0.51021  1.0000
  H   H280      1.0  0.17406  0.46672  0.57040  1.0000
  C   C284      1.0  0.14961  0.30031  0.71161  1.0000
  C   C285      1.0  0.18866  0.98912  0.54743  1.0000
  H   H281      1.0  0.11076  0.35891  0.49137  1.0000
  H   H282      1.0  0.29965  0.41024  0.65453  1.0000
  H   H283      1.0  0.04907  0.43601  0.48460  1.0000
  H   H284      1.0  0.28853  0.39618  0.69751  1.0000
  C   C286      1.0  0.17296  0.31633  0.67293  1.0000
  Fe  Fe51      1.0  0.23347  0.09918  0.71948  1.0000
  H   H285      1.0  0.15929  0.28139  0.67278  1.0000
  S   S94       1.0  0.18534  0.46454  0.50316  1.0000
  C   C287      1.0  0.20197  0.29287  0.68268  1.0000
  C   C288      1.0  0.22016  0.43766  0.57310  1.0000
  C   C289      1.0  0.20991  0.48369  0.53771  1.0000
  S   S95       1.0  0.99871  0.11170  0.49642  1.0000
  C   C290      1.0  0.04573  0.04763  0.48267  1.0000
  C   C291      1.0  0.03974  0.28449  0.70090  1.0000
  S   S96       1.0  0.28678  0.06613  0.71671  1.0000
  H   H286      1.0  0.30073  0.38763  0.67918  1.0000
  C   C292      1.0  0.09509  0.35979  0.49723  1.0000
  C   C293      1.0  0.24143  0.03363  0.53924  1.0000
  C   C294      1.0  0.20700  0.15047  0.70315  1.0000
  H   H287      1.0  0.30730  0.00417  0.53650  1.0000
  H   H288      1.0  0.06077  0.02964  0.51902  1.0000
  H   H289      1.0  0.09225  0.32877  0.49506  1.0000
  H   H290      1.0  0.25841  0.99852  0.66971  1.0000
  H   H291      1.0  0.22575  0.03173  0.53897  1.0000
  C   C295      1.0  0.18333  0.29042  0.71970  1.0000
  H   H292      1.0  0.22650  0.47184  0.48169  1.0000
  H   H293      1.0  0.25387  0.00548  0.53013  1.0000
  H   H294      1.0  0.21020  0.45693  0.60824  1.0000
  H   H295      1.0  0.00584  0.21132  0.53797  1.0000
  C   C296      1.0  0.18819  0.47753  0.51903  1.0000
  H   H296      1.0  0.06047  0.98732  0.48724  1.0000
  H   H297      1.0  0.20675  0.99209  0.56551  1.0000
  N   N25       1.0  0.19032  0.46272  0.59037  1.0000
  S   S97       1.0  0.30252  0.12116  0.71620  1.0000
  H   H298      1.0  0.00993  0.22730  0.55194  1.0000
  Fe  Fe52      1.0  0.99863  0.07782  0.50141  1.0000
  Fe  Fe53      1.0  0.01890  0.37381  0.47583  1.0000
  H   H299      1.0  0.15941  0.47226  0.59954  1.0000
  H   H300      1.0  0.03318  0.05693  0.47727  1.0000
  H   H301      1.0  0.03156  0.21439  0.70416  1.0000
  C   C297      1.0  0.03705  0.25394  0.72002  1.0000
  Fe  Fe54      1.0  0.27866  0.09955  0.71986  1.0000
  H   H302      1.0  0.08468  0.44374  0.47974  1.0000
  C   C298      1.0  0.08748  0.07603  0.47993  1.0000
  H   H303      1.0  0.17463  0.99637  0.55360  1.0000
  Fe  Fe55      1.0  0.26140  0.36040  0.71662  1.0000
  C   C299      1.0  0.27061  0.99008  0.66239  1.0000
  C   C300      1.0  0.99069  0.26747  0.51348  1.0000
  C   C301      1.0  0.08129  0.43010  0.47610  1.0000
  S   S98       1.0  0.23830  0.06617  0.71592  1.0000
  C   C302      1.0  0.32154  0.31214  0.71420  1.0000
  H   H304      1.0  0.99951  0.27462  0.50288  1.0000
  C   C303      1.0  0.29064  0.99365  0.66198  1.0000
  Fe  Fe56      1.0  0.21896  0.34825  0.72054  1.0000
  S   S99       1.0  0.13149  0.23260  0.71824  1.0000
  C   C304      1.0  0.20689  0.98671  0.55424  1.0000
  H   H305      1.0  0.32200  0.98596  0.65181  1.0000
  C   C305      1.0  0.29798  0.32250  0.73697  1.0000
  C   C306      1.0  0.29265  0.26108  0.73821  1.0000
  S   S100      1.0  0.02991  0.26245  0.78953  1.0000
  S   S101      1.0  0.31984  0.46376  0.96517  1.0000
  S   S102      1.0  0.01015  0.23759  0.83215  1.0000
  C   C307      1.0  0.31586  0.15498  0.72275  1.0000
  H   H306      1.0  0.99926  0.33903  0.88062  1.0000
  Fe  Fe57      1.0  0.04080  0.37002  0.88098  1.0000
  S   S103      1.0  0.03641  0.40273  0.86910  1.0000
  S   S104      1.0  0.04211  0.34290  0.86708  1.0000
  Fe  Fe58      1.0  0.04883  0.38344  0.91203  1.0000
  S   S105      1.0  0.04490  0.41695  0.90245  1.0000
  S   S106      1.0  0.05489  0.36902  0.93709  1.0000
  Fe  Fe59      1.0  0.01837  0.41014  0.89241  1.0000
  C   C308      1.0  0.29483  0.46557  0.88899  1.0000
  Fe  Fe60      1.0  0.06356  0.40722  0.87985  1.0000
  S   S107      1.0  0.08445  0.42788  0.86359  1.0000
  S   S108      1.0  0.02066  0.37714  0.90367  1.0000
  S   S109      1.0  0.06954  0.37396  0.89008  1.0000
  S   S110      1.0  0.22091  0.38340  0.76814  1.0000
  N   N26       1.0  0.27078  0.28882  0.72528  1.0000
  H   H307      1.0  0.02857  0.31061  0.91893  1.0000
  Fe  Fe61      1.0  0.19610  0.45761  0.85695  1.0000
  S   S111      1.0  0.22784  0.44412  0.84717  1.0000
  S   S112      1.0  0.17580  0.43512  0.87150  1.0000
  C   C309      1.0  0.03583  0.31611  0.90671  1.0000
  Fe  Fe62      1.0  0.22299  0.46651  0.82508  1.0000
  S   S113      1.0  0.23082  0.46082  0.79903  1.0000
  Fe  Fe63      1.0  0.23871  0.46940  0.85669  1.0000
  S   S114      1.0  0.26757  0.46198  0.86904  1.0000
  C   C310      1.0  0.22738  0.07403  0.78111  1.0000
  C   C311      1.0  0.01661  0.99272  0.89593  1.0000
  H   H308      1.0  0.30199  0.30389  0.75958  1.0000
  C   C312      1.0  0.21782  0.45226  0.90950  1.0000
  Fe  Fe64      1.0  0.25897  0.06126  0.73490  1.0000
  S   S115      1.0  0.20358  0.37927  0.72657  1.0000
  S   S116      1.0  0.25187  0.03286  0.75246  1.0000
  C   C313      1.0  0.30743  0.30605  0.74688  1.0000
  C   C314      1.0  0.17573  0.41671  0.79519  1.0000
  S   S117      1.0  0.25242  0.09413  0.73951  1.0000
  C   C315      1.0  0.20929  0.44283  0.89934  1.0000
  C   C316      1.0  0.26612  0.00604  0.80322  1.0000
  H   H309      1.0  0.19113  0.07026  0.76033  1.0000
  C   C317      1.0  0.25030  0.00499  0.77981  1.0000
  C   C318      1.0  0.25854  0.02245  0.77168  1.0000
  C   C319      1.0  0.27097  0.03143  0.77927  1.0000
  C   C320      1.0  0.27477  0.02321  0.79494  1.0000
  N   N27       1.0  0.00828  0.32312  0.81851  1.0000
  C   C321      1.0  0.01733  0.46825  0.85277  1.0000
  H   H310      1.0  0.27752  0.04477  0.77313  1.0000
  H   H311      1.0  0.28427  0.03035  0.80078  1.0000
  C   C322      1.0  0.23082  0.43811  0.79083  1.0000
  C   C323      1.0  0.23435  0.43871  0.77410  1.0000
  C   C324      1.0  0.23227  0.42178  0.76694  1.0000
  C   C325      1.0  0.22668  0.40400  0.77648  1.0000
  C   C326      1.0  0.22406  0.40307  0.79322  1.0000
  C   C327      1.0  0.22612  0.42001  0.80038  1.0000
  H   H312      1.0  0.23816  0.45259  0.76661  1.0000
  H   H313      1.0  0.23441  0.42270  0.75406  1.0000
  H   H314      1.0  0.21995  0.38931  0.80071  1.0000
  H   H315      1.0  0.22361  0.41922  0.81326  1.0000
  Fe  Fe65      1.0  0.00444  0.25008  0.80705  1.0000
  S   S118      1.0  0.99418  0.18120  0.83680  1.0000
  C   C328      1.0  0.30995  0.14399  0.75581  1.0000
  H   H316      1.0  0.05087  0.32944  0.92941  1.0000
  H   H317      1.0  0.01892  0.45633  0.89193  1.0000
  C   C329      1.0  0.05622  0.38294  0.95276  1.0000
  C   C330      1.0  0.05412  0.40431  0.95049  1.0000
  H   H318      1.0  0.05167  0.41276  0.93891  1.0000
  C   C331      1.0  0.10971  0.42986  0.86618  1.0000
  C   C332      1.0  0.11979  0.41686  0.87787  1.0000
  C   C333      1.0  0.13998  0.41874  0.87934  1.0000
  C   C334      1.0  0.15025  0.43371  0.86926  1.0000
  C   C335      1.0  0.14011  0.44685  0.85767  1.0000
  C   C336      1.0  0.12000  0.44482  0.85608  1.0000
  H   H319      1.0  0.11207  0.40531  0.88573  1.0000
  H   H320      1.0  0.14766  0.40855  0.88838  1.0000
  H   H321      1.0  0.14768  0.45864  0.84998  1.0000
  H   H322      1.0  0.11233  0.45499  0.84703  1.0000
  S   S119      1.0  0.24172  0.34591  0.73752  1.0000
  C   C337      1.0  0.25398  0.99686  0.79552  1.0000
  H   H323      1.0  0.00409  0.42832  0.93046  1.0000
  C   C338      1.0  0.07132  0.31514  0.89370  1.0000
  H   H324      1.0  0.28148  0.42553  0.89347  1.0000
  H   H325      1.0  0.10252  0.31618  0.88268  1.0000
  C   C339      1.0  0.99818  0.44431  0.93122  1.0000
  C   C340      1.0  0.05958  0.37218  0.96788  1.0000
  C   C341      1.0  0.22149  0.42809  0.89085  1.0000
  C   C342      1.0  0.17946  0.44433  0.80818  1.0000
  H   H326      1.0  0.24520  0.07383  0.80003  1.0000
  H   H327      1.0  0.17672  0.43851  0.83402  1.0000
  H   H328      1.0  0.20825  0.08881  0.75656  1.0000
  C   C343      1.0  0.01123  0.45797  0.93243  1.0000
  C   C344      1.0  0.18253  0.44923  0.77892  1.0000
  H   H329      1.0  0.19547  0.27849  0.72309  1.0000
  H   H330      1.0  0.03533  0.28408  0.72650  1.0000
  C   C345      1.0  0.32003  0.16087  0.74921  1.0000
  H   H331      1.0  0.27353  0.40951  0.91191  1.0000
  C   C346      1.0  0.30330  0.13232  0.74591  1.0000
  C   C347      1.0  0.24208  0.42281  0.89277  1.0000
  H   H332      1.0  0.11231  0.32886  0.90574  1.0000
  H   H333      1.0  0.29634  0.11886  0.75109  1.0000
  H   H334      1.0  0.16271  0.14133  0.72678  1.0000
  C   C348      1.0  0.02514  0.32565  0.86544  1.0000
  C   C349      1.0  0.03214  0.31012  0.85572  1.0000
  C   C350      1.0  0.01907  0.29675  0.85328  1.0000
  C   C351      1.0  0.22869  0.04809  0.80426  1.0000
  C   C352      1.0  0.01622  0.30644  0.80901  1.0000
  H   H335      1.0  0.06121  0.35566  0.96977  1.0000
  H   H336      1.0  0.04774  0.30859  0.84982  1.0000
  H   H337      1.0  0.02471  0.28503  0.84569  1.0000
  C   C353      1.0  0.99875  0.29863  0.86062  1.0000
  C   C354      1.0  0.04982  0.47648  0.85628  1.0000
  H   H338      1.0  0.03163  0.30800  0.80228  1.0000
  C   C355      1.0  0.99194  0.31377  0.87073  1.0000
  C   C356      1.0  0.06423  0.22575  0.75044  1.0000
  C   C357      1.0  0.06908  0.24494  0.75145  1.0000
  C   C358      1.0  0.05795  0.25641  0.76318  1.0000
  C   C359      1.0  0.04187  0.24880  0.77384  1.0000
  C   C360      1.0  0.03648  0.22997  0.77240  1.0000
  C   C361      1.0  0.04770  0.21844  0.76074  1.0000
  H   H339      1.0  0.08177  0.25071  0.74350  1.0000
  H   H340      1.0  0.06215  0.27099  0.76424  1.0000
  H   H341      1.0  0.02402  0.22408  0.78051  1.0000
  H   H342      1.0  0.04381  0.20366  0.75988  1.0000
  N   N28       1.0  0.21450  0.06411  0.77534  1.0000
  S   S120      1.0  0.27007  0.99742  0.82338  1.0000
  C   C362      1.0  0.20904  0.04605  0.78350  1.0000
  C   C363      1.0  0.21585  0.03790  0.79815  1.0000
  H   H343      1.0  0.30669  0.25033  0.73779  1.0000
  H   H344      1.0  0.19286  0.46053  0.77919  1.0000
  C   C364      1.0  0.20731  0.07220  0.75993  1.0000
  H   H345      1.0  0.23239  0.08790  0.77435  1.0000
  C   C365      1.0  0.23460  0.06623  0.79567  1.0000
  H   H346      1.0  0.99497  0.02042  0.89312  1.0000
  H   H347      1.0  0.19334  0.44722  0.89775  1.0000
  C   C366      1.0  0.26186  0.27644  0.75311  1.0000
  H   H348      1.0  0.00601  0.30610  0.80009  1.0000
  C   C367      1.0  0.17617  0.43239  0.82315  1.0000
  C   C368      1.0  0.30101  0.47200  0.90216  1.0000
  N   N29       1.0  0.25024  0.43184  0.90297  1.0000
  Fe  Fe66      1.0  0.22818  0.37791  0.74198  1.0000
  C   C369      1.0  0.23844  0.44646  0.91126  1.0000
  H   H349      1.0  0.31610  0.46645  0.90534  1.0000
  H   H350      1.0  0.18994  0.43986  0.76939  1.0000
  H   H351      1.0  0.24367  0.30055  0.73966  1.0000
  C   C370      1.0  0.27961  0.26220  0.75260  1.0000
  H   H352      1.0  0.16769  0.45756  0.77574  1.0000
  C   C371      1.0  0.08229  0.32932  0.91927  1.0000
  H   H353      1.0  0.05402  0.43128  0.96132  1.0000
  C   C372      1.0  0.09690  0.32571  0.90608  1.0000
  H   H354      1.0  0.17000  0.40299  0.83559  1.0000
  H   H355      1.0  0.20857  0.46412  0.91583  1.0000
  N   N30       1.0  0.17939  0.43637  0.79446  1.0000
  H   H356      1.0  0.24501  0.45399  0.91907  1.0000
  H   H357      1.0  0.04429  0.44596  0.85552  1.0000
  H   H358      1.0  0.03680  0.33436  0.81566  1.0000
  C   C373      1.0  0.27519  0.47245  0.88468  1.0000
  H   H359      1.0  0.06708  0.31001  0.88348  1.0000
  H   H360      1.0  0.02460  0.99833  0.90393  1.0000
  C   C374      1.0  0.17232  0.40438  0.80996  1.0000
  H   H361      1.0  0.01725  0.29152  0.81695  1.0000
  H   H362      1.0  0.16990  0.38866  0.81045  1.0000
  H   H363      1.0  0.02735  0.45258  0.93279  1.0000
  N   N31       1.0  0.05750  0.19702  0.80275  1.0000
  C   C375      1.0  0.06759  0.18518  0.79149  1.0000
  C   C376      1.0  0.06317  0.21553  0.80342  1.0000
  C   C377      1.0  0.08412  0.19161  0.78073  1.0000
  C   C378      1.0  0.07968  0.22238  0.79289  1.0000
  C   C379      1.0  0.09018  0.21031  0.78148  1.0000
  C   C380      1.0  0.03956  0.19059  0.81336  1.0000
  H   H364      1.0  0.06263  0.17088  0.79054  1.0000
  H   H365      1.0  0.05454  0.22542  0.81178  1.0000
  H   H366      1.0  0.09169  0.18257  0.77143  1.0000
  H   H367      1.0  0.08371  0.23734  0.79313  1.0000
  H   H368      1.0  0.10248  0.21579  0.77280  1.0000
  H   H369      1.0  0.03789  0.19602  0.82517  1.0000
  H   H370      1.0  0.02553  0.19684  0.80785  1.0000
  H   H371      1.0  0.04058  0.17365  0.81581  1.0000
  H   H372      1.0  0.02708  0.33097  0.90225  1.0000
  H   H373      1.0  0.03472  0.30483  0.89881  1.0000
  C   C381      1.0  0.00342  0.47866  0.93284  1.0000
  N   N32       1.0  0.05708  0.31871  0.90670  1.0000
  C   C382      1.0  0.06228  0.32589  0.91932  1.0000
  H   H374      1.0  0.30531  0.45496  0.88221  1.0000
  C   C383      1.0  0.00431  0.46589  0.89148  1.0000
  H   H375      1.0  0.28344  0.25218  0.76333  1.0000
  C   C384      1.0  0.99978  0.00522  0.88989  1.0000
  S   S121      1.0  0.07886  0.21034  0.73678  1.0000
  H   H376      1.0  0.27714  0.43557  0.91204  1.0000
  S   S122      1.0  0.20062  0.11449  0.72307  1.0000
  H   H377      1.0  0.28554  0.33300  0.74209  1.0000
  H   H378      1.0  0.18264  0.45982  0.80755  1.0000
  C   C385      1.0  0.25756  0.28959  0.73921  1.0000
  S   S123      1.0  0.20733  0.48116  0.86804  1.0000
  C   C386      1.0  0.17251  0.41233  0.82402  1.0000
  H   H379      1.0  0.08620  0.33538  0.92921  1.0000
  C   C387      1.0  0.00497  0.32724  0.87309  1.0000
  H   H380      1.0  0.24076  0.99786  0.77401  1.0000
  H   H381      1.0  0.25157  0.27746  0.76422  1.0000
  H   H382      1.0  0.21506  0.42101  0.88267  1.0000
  C   C388      1.0  0.09142  0.31860  0.89317  1.0000
  H   H383      1.0  0.19979  0.03760  0.77849  1.0000
  S   S124      1.0  0.25002  0.39238  0.72227  1.0000
  C   C389      1.0  0.28799  0.27461  0.72458  1.0000
  H   H384      1.0  0.17612  0.41024  0.78429  1.0000
  H   H385      1.0  0.21673  0.06395  0.75041  1.0000
  S   S125      1.0  0.19057  0.47865  0.83434  1.0000
  H   H386      1.0  0.03683  0.21474  0.72408  1.0000
  H   H387      1.0  0.25159  0.41166  0.88587  1.0000
  C   C390      1.0  0.27163  0.42524  0.90528  1.0000
  C   C391      1.0  0.01359  0.35151  0.83051  1.0000
  H   H388      1.0  0.03518  0.24677  0.73236  1.0000
  C   C392      1.0  0.02087  0.33614  0.82086  1.0000
  H   H389      1.0  0.30781  0.13954  0.76864  1.0000
  H   H390      1.0  0.00799  0.45679  0.85203  1.0000
  H   H391      1.0  0.06566  0.47166  0.85808  1.0000
  C   C393      1.0  0.30660  0.13755  0.72929  1.0000
  H   H392      1.0  0.23478  0.04143  0.81527  1.0000
  C   C394      1.0  0.03779  0.46198  0.85485  1.0000
  H   H393      1.0  0.21196  0.02331  0.80441  1.0000
  H   H394      1.0  0.02380  0.36128  0.83288  1.0000
  C   C395      1.0  0.05547  0.41477  0.96321  1.0000
  C   C396      1.0  0.99333  0.35348  0.83779  1.0000
  H   H395      1.0  0.99522  0.13756  0.84035  1.0000
  C   C397      1.0  0.32266  0.16654  0.73263  1.0000
  C   C398      1.0  0.98960  0.99825  0.87933  1.0000
  H   H396      1.0  0.99503  0.98636  0.94174  1.0000
  S   S126      1.0  0.14027  0.74153  0.19936  1.0000
  Fe  Fe67      1.0  0.10744  0.74238  0.21013  1.0000
  S   S127      1.0  0.07897  0.75305  0.19797  1.0000
  H   H397      1.0  0.16586  0.87042  0.20986  1.0000
  C   C399      1.0  0.26041  0.93614  0.03445  1.0000
  S   S128      1.0  0.02710  0.72307  0.10821  1.0000
  C   C400      1.0  0.24488  0.93261  0.06205  1.0000
  H   H398      1.0  0.10158  0.94856  0.02149  1.0000
  H   H399      1.0  0.09173  0.75007  0.13900  1.0000
  Fe  Fe68      1.0  0.02801  0.71324  0.13459  1.0000
  S   S129      1.0  0.05809  0.70652  0.14474  1.0000
  C   C401      1.0  0.27910  0.98031  0.02655  1.0000
  C   C402      1.0  0.00421  0.96817  0.06168  1.0000
  S   S130      1.0  0.24900  0.90903  0.19822  1.0000
  Fe  Fe69      1.0  0.19643  0.96263  0.12278  1.0000
  H   H400      1.0  0.03122  0.64692  0.11008  1.0000
  S   S131      1.0  0.18836  0.94521  0.14760  1.0000
  H   H401      1.0  0.03314  0.54334  0.06240  1.0000
  S   S132      1.0  0.00832  0.68887  0.13569  1.0000
  S   S133      1.0  0.99291  0.93375  0.05375  1.0000
  S   S134      1.0  0.16901  0.95551  0.07146  1.0000
  C   C403      1.0  0.01308  0.53521  0.08405  1.0000
  S   S135      1.0  0.20886  0.94922  0.10015  1.0000
  C   C404      1.0  0.26197  0.92940  0.05057  1.0000
  C   C405      1.0  0.04462  0.84043  0.99748  1.0000
  C   C406      1.0  0.01669  0.56993  0.07235  1.0000
  N   N33       1.0  0.22513  0.94959  0.04142  1.0000
  S   S136      1.0  0.24661  0.58648  0.19115  1.0000
  C   C407      1.0  0.03032  0.49607  0.04496  1.0000
  H   H402      1.0  0.24094  0.95208  0.01753  1.0000
  S   S137      1.0  0.28752  0.55710  0.20163  1.0000
  Fe  Fe70      1.0  0.27514  0.59052  0.20037  1.0000
  S   S138      1.0  0.29431  0.61560  0.18914  1.0000
  Fe  Fe71      1.0  0.25781  0.55238  0.19469  1.0000
  S   S139      1.0  0.26077  0.52611  0.17964  1.0000
  H   H403      1.0  0.22873  0.69150  0.19329  1.0000
  H   H404      1.0  0.24166  0.88454  0.16818  1.0000
  C   C408      1.0  0.99650  0.49705  0.06006  1.0000
  H   H405      1.0  0.03385  0.73773  0.16315  1.0000
  Fe  Fe72      1.0  0.05106  0.87429  0.06268  1.0000
  S   S140      1.0  0.07990  0.88831  0.05349  1.0000
  S   S141      1.0  0.05628  0.83949  0.06908  1.0000
  Fe  Fe73      1.0  0.02406  0.91517  0.05544  1.0000
  S   S142      1.0  0.05054  0.93165  0.04569  1.0000
  C   C409      1.0  0.17513  0.87839  0.18448  1.0000
  Fe  Fe74      1.0  0.06321  0.90448  0.03323  1.0000
  S   S143      1.0  0.07997  0.90910  0.00799  1.0000
  Fe  Fe75      1.0  0.06506  0.91449  0.06664  1.0000
  S   S144      1.0  0.07868  0.93310  0.08117  1.0000
  S   S145      1.0  0.03556  0.88889  0.04135  1.0000
  S   S146      1.0  0.03731  0.89941  0.07756  1.0000
  C   C410      1.0  0.06927  0.90242  0.99239  1.0000
  C   C411      1.0  0.04955  0.89725  0.99489  1.0000
  C   C412      1.0  0.00537  0.81738  0.09416  1.0000
  H   H406      1.0  0.04027  0.89796  0.00640  1.0000
  C   C413      1.0  0.19743  0.49805  0.16603  1.0000
  C   C414      1.0  0.22643  0.94265  0.05721  1.0000
  H   H407      1.0  0.27654  0.92227  0.05422  1.0000
  S   S147      1.0  0.30265  0.49829  0.00177  1.0000
  C   C415      1.0  0.23560  0.51033  0.13661  1.0000
  C   C416      1.0  0.25148  0.49738  0.14343  1.0000
  C   C417      1.0  0.25945  0.50290  0.15615  1.0000
  C   C418      1.0  0.25169  0.52138  0.16229  1.0000
  C   C419      1.0  0.23620  0.53460  0.15517  1.0000
  C   C420      1.0  0.22827  0.52911  0.14241  1.0000
  C   C421      1.0  0.19172  0.88122  0.17251  1.0000
  H   H408      1.0  0.23008  0.54889  0.15968  1.0000
  H   H409      1.0  0.21610  0.53935  0.13717  1.0000
  C   C422      1.0  0.14413  0.94851  0.07481  1.0000
  C   C423      1.0  0.13864  0.93711  0.06417  1.0000
  C   C424      1.0  0.11886  0.93171  0.06620  1.0000
  C   C425      1.0  0.10425  0.93802  0.07874  1.0000
  C   C426      1.0  0.10976  0.94941  0.08936  1.0000
  C   C427      1.0  0.12962  0.95452  0.08749  1.0000
  H   H410      1.0  0.14977  0.93233  0.05436  1.0000
  H   H411      1.0  0.11486  0.92285  0.05799  1.0000
  H   H412      1.0  0.09859  0.95433  0.09911  1.0000
  H   H413      1.0  0.13362  0.96331  0.09575  1.0000
  C   C428      1.0  0.24541  0.64306  0.20931  1.0000
  S   S148      1.0  0.17008  0.77507  0.21580  1.0000
  H   H414      1.0  0.27571  0.50603  0.03040  1.0000
  C   C429      1.0  0.99609  0.65071  0.07523  1.0000
  H   H415      1.0  0.19410  0.94995  0.03918  1.0000
  C   C430      1.0  0.24176  0.94629  0.03005  1.0000
  C   C431      1.0  0.02783  0.48661  0.00611  1.0000
  H   H416      1.0  0.01581  0.80705  0.14663  1.0000
  H   H417      1.0  0.07457  0.98179  0.06604  1.0000
  C   C432      1.0  0.08098  0.90175  0.97726  1.0000
  C   C433      1.0  0.20567  0.96056  0.03689  1.0000
  H   H418      1.0  0.19995  0.97316  0.04422  1.0000
  C   C434      1.0  0.23175  0.92085  0.18480  1.0000
  C   C435      1.0  0.23950  0.92892  0.16920  1.0000
  C   C436      1.0  0.22639  0.93682  0.15770  1.0000
  C   C437      1.0  0.20542  0.93652  0.16173  1.0000
  C   C438      1.0  0.19760  0.92900  0.17745  1.0000
  C   C439      1.0  0.21068  0.92140  0.18900  1.0000
  H   H419      1.0  0.25580  0.92865  0.16590  1.0000
  H   H420      1.0  0.23256  0.94273  0.14566  1.0000
  H   H421      1.0  0.18135  0.92890  0.18069  1.0000
  H   H422      1.0  0.20453  0.91549  0.20104  1.0000
  S   S149      1.0  0.32046  0.76322  0.21720  1.0000
  H   H423      1.0  0.21330  0.96957  0.18327  1.0000
  H   H424      1.0  0.04188  0.50383  0.03714  1.0000
  Fe  Fe76      1.0  0.23388  0.58197  0.21731  1.0000
  H   H425      1.0  0.19599  0.65637  0.18669  1.0000
  C   C440      1.0  0.02226  0.54896  0.07213  1.0000
  S   S150      1.0  0.99433  0.77991  0.10758  1.0000
  H   H426      1.0  0.20094  0.86598  0.21643  1.0000
  H   H427      1.0  0.24606  0.92801  0.07466  1.0000
  C   C441      1.0  0.99864  0.54270  0.09624  1.0000
  C   C442      1.0  0.30375  0.63081  0.20059  1.0000
  C   C443      1.0  0.29272  0.97086  0.03718  1.0000
  H   H428      1.0  0.25571  0.62957  0.20627  1.0000
  H   H429      1.0  0.23298  0.86674  0.15796  1.0000
  H   H430      1.0  0.22995  0.87066  0.19481  1.0000
  C   C444      1.0  0.01165  0.79610  0.09641  1.0000
  C   C445      1.0  0.03150  0.78844  0.09011  1.0000
  C   C446      1.0  0.04493  0.80196  0.08183  1.0000
  C   C447      1.0  0.03866  0.82324  0.07963  1.0000
  C   C448      1.0  0.01878  0.83090  0.08583  1.0000
  S   S151      1.0  0.16884  0.98041  0.11258  1.0000
  H   H431      1.0  0.03647  0.77212  0.09147  1.0000
  H   H432      1.0  0.06025  0.79588  0.07701  1.0000
  H   H433      1.0  0.01372  0.84722  0.08421  1.0000
  H   H434      1.0  0.00324  0.50943  0.01412  1.0000
  S   S152      1.0  0.00701  0.67933  0.09100  1.0000
  C   C449      1.0  0.17618  0.66199  0.20850  1.0000
  H   H435      1.0  0.17937  0.97228  0.17470  1.0000
  H   H436      1.0  0.20163  0.51682  0.18310  1.0000
  H   H437      1.0  0.31925  0.52467  0.01982  1.0000
  C   C450      1.0  0.19939  0.63029  0.20502  1.0000
  C   C451      1.0  0.17851  0.87271  0.20037  1.0000
  H   H438      1.0  0.29678  0.96137  0.06197  1.0000
  H   H439      1.0  0.21321  0.94525  0.06616  1.0000
  H   H440      1.0  0.29242  0.79940  0.21064  1.0000
  C   C452      1.0  0.03954  0.83918  0.01406  1.0000
  C   C453      1.0  0.06295  0.71854  0.16045  1.0000
  C   C454      1.0  0.08211  0.71348  0.16580  1.0000
  C   C455      1.0  0.08704  0.72359  0.17755  1.0000
  C   C456      1.0  0.07289  0.73899  0.18398  1.0000
  C   C457      1.0  0.05363  0.74389  0.17878  1.0000
  C   C458      1.0  0.04863  0.73365  0.16713  1.0000
  H   H441      1.0  0.09333  0.70186  0.16073  1.0000
  H   H442      1.0  0.10193  0.71968  0.18144  1.0000
  H   H443      1.0  0.04259  0.75576  0.18369  1.0000
  S   S153      1.0  0.00219  0.73676  0.14254  1.0000
  C   C459      1.0  0.32224  0.65266  0.21856  1.0000
  H   H444      1.0  0.02319  0.58074  0.06280  1.0000
  Fe  Fe77      1.0  0.00009  0.74560  0.11621  1.0000
  C   C460      1.0  0.99153  0.96036  0.05347  1.0000
  N   N34       1.0  0.21798  0.67730  0.21663  1.0000
  H   H445      1.0  0.02461  0.83576  0.01980  1.0000
  H   H446      1.0  0.18562  0.50909  0.16095  1.0000
  H   H447      1.0  0.25337  0.66104  0.18660  1.0000
  C   C461      1.0  0.19831  0.87001  0.20408  1.0000
  H   H448      1.0  0.09625  0.90572  0.97523  1.0000
  Fe  Fe78      1.0  0.00453  0.70066  0.11007  1.0000
  Fe  Fe79      1.0  0.22497  0.97687  0.09262  1.0000
  H   H449      1.0  0.02665  0.88672  0.98457  1.0000
  H   H450      1.0  0.04282  0.97975  0.01125  1.0000
  H   H451      1.0  0.01564  0.95784  0.06774  1.0000
  C   C462      1.0  0.28620  0.96885  0.05381  1.0000
  S   S154      1.0  0.16702  0.68724  0.20043  1.0000
  Fe  Fe80      1.0  0.14555  0.71056  0.21406  1.0000
  H   H452      1.0  0.19918  0.70550  0.20980  1.0000
  C   C463      1.0  0.22833  0.88097  0.16351  1.0000
  Fe  Fe81      1.0  0.14532  0.75415  0.22103  1.0000
  H   H453      1.0  0.06762  0.84666  0.97734  1.0000
  C   C464      1.0  0.04180  0.89101  0.98246  1.0000
  C   C465      1.0  0.06052  0.98220  0.06060  1.0000
  H   H454      1.0  0.00818  0.78981  0.13559  1.0000
  N   N35       1.0  0.06539  0.97707  0.04427  1.0000
  H   H455      1.0  0.01674  0.51888  0.08354  1.0000
  S   S155      1.0  0.22359  0.50336  0.12155  1.0000
  H   H456      1.0  0.09466  0.96058  0.04796  1.0000
  H   H457      1.0  0.18896  0.88593  0.16020  1.0000
  C   C466      1.0  0.24394  0.66077  0.19820  1.0000
  N   N36       1.0  0.21112  0.87843  0.17628  1.0000
  C   C467      1.0  0.20847  0.98188  0.17412  1.0000
  C   C468      1.0  0.05099  0.98247  0.03413  1.0000
  C   C469      1.0  0.00224  0.57689  0.08472  1.0000
  C   C470      1.0  0.06378  0.84507  0.99027  1.0000
  H   H458      1.0  0.00806  0.65518  0.06586  1.0000
  H   H459      1.0  0.15976  0.88066  0.18147  1.0000
  N   N37       1.0  0.07248  0.84733  0.01600  1.0000
  C   C471      1.0  0.05378  0.84261  0.02321  1.0000
  C   C472      1.0  0.07751  0.84879  0.99975  1.0000
  S   S156      1.0  0.25810  0.97193  0.08092  1.0000
  H   H460      1.0  0.30821  0.96494  0.03259  1.0000
  H   H461      1.0  0.20709  0.96742  0.02411  1.0000
  C   C473      1.0  0.08727  0.85123  0.02556  1.0000
  C   C474      1.0  0.05455  0.97602  0.01903  1.0000
  C   C475      1.0  0.28027  0.48965  0.03122  1.0000
  C   C476      1.0  0.08354  0.96538  0.03974  1.0000
  C   C477      1.0  0.20642  0.50238  0.17843  1.0000
  C   C478      1.0  0.07291  0.96385  0.01440  1.0000
  H   H462      1.0  0.08977  0.86748  0.02264  1.0000
  C   C479      1.0  0.29862  0.62905  0.21721  1.0000
  C   C480      1.0  0.31748  0.64426  0.19294  1.0000
  C   C481      1.0  0.08757  0.95859  0.02476  1.0000
  H   H463      1.0  0.09203  0.85327  0.99399  1.0000
  H   H464      1.0  0.03362  0.83826  0.99014  1.0000
  H   H465      1.0  0.10204  0.84125  0.02306  1.0000
  C   C482      1.0  0.01130  0.50717  0.04989  1.0000
  C   C483      1.0  0.19094  0.65013  0.19891  1.0000
  S   S157      1.0  0.00631  0.53340  0.04247  1.0000
  H   H466      1.0  0.08196  0.84815  0.03862  1.0000
  H   H467      1.0  0.27377  0.93432  0.02546  1.0000
  C   C484      1.0  0.22243  0.48859  0.18419  1.0000
  H   H468      1.0  0.21081  0.62136  0.19753  1.0000
  N   N38       1.0  0.06317  0.65851  0.13294  1.0000
  C   C485      1.0  0.04805  0.64979  0.12891  1.0000
  C   C486      1.0  0.07416  0.67088  0.12163  1.0000
  C   C487      1.0  0.04361  0.65335  0.11320  1.0000
  C   C488      1.0  0.07001  0.67489  0.10584  1.0000
  C   C489      1.0  0.05464  0.66603  0.10163  1.0000
  C   C490      1.0  0.06690  0.65509  0.14965  1.0000
  H   H469      1.0  0.03896  0.64046  0.13794  1.0000
  H   H470      1.0  0.08576  0.67827  0.12490  1.0000
  H   H471      1.0  0.03698  0.49767  0.99905  1.0000
  H   H472      1.0  0.07833  0.68514  0.09701  1.0000
  H   H473      1.0  0.05089  0.66938  0.08951  1.0000
  H   H474      1.0  0.08027  0.66203  0.15118  1.0000
  H   H475      1.0  0.05346  0.66244  0.15719  1.0000
  H   H476      1.0  0.06974  0.63847  0.15406  1.0000
  N   N39       1.0  0.04000  0.78518  0.13722  1.0000
  C   C491      1.0  0.05338  0.78884  0.14653  1.0000
  C   C492      1.0  0.04500  0.76941  0.12831  1.0000
  C   C493      1.0  0.07219  0.77630  0.14730  1.0000
  C   C494      1.0  0.06378  0.75678  0.12861  1.0000
  C   C495      1.0  0.07741  0.76022  0.13821  1.0000
  C   C496      1.0  0.02057  0.79872  0.13612  1.0000
  H   H477      1.0  0.04950  0.80136  0.15357  1.0000
  H   H478      1.0  0.03432  0.76642  0.12106  1.0000
  H   H479      1.0  0.08248  0.77873  0.15514  1.0000
  H   H480      1.0  0.05152  0.97078  0.06822  1.0000
  Fe  Fe82      1.0  0.18258  0.96900  0.08945  1.0000
  H   H481      1.0  0.02199  0.81002  0.12507  1.0000
  H   H482      1.0  0.06749  0.74402  0.12180  1.0000
  H   H483      1.0  0.04967  0.84165  0.03609  1.0000
  H   H484      1.0  0.23019  0.49238  0.19326  1.0000
  H   H485      1.0  0.22414  0.89396  0.15418  1.0000
  C   C497      1.0  0.23005  0.67788  0.20207  1.0000
  H   H486      1.0  0.07551  0.95788  0.00307  1.0000
  H   H487      1.0  0.99116  0.53194  0.10523  1.0000
  C   C498      1.0  0.21459  0.87265  0.19180  1.0000
  H   H488      1.0  0.99777  0.59321  0.08465  1.0000
  C   C499      1.0  0.26597  0.97595  0.05996  1.0000
  Fe  Fe83      1.0  0.32243  0.48847  0.97927  1.0000
  C   C500      1.0  0.99190  0.66040  0.08909  1.0000
  H   H489      1.0  0.99002  0.82346  0.09893  1.0000
  C   C501      1.0  0.00884  0.49319  0.01446  1.0000
  S   S158      1.0  0.24295  0.54763  0.22045  1.0000
  H   H490      1.0  0.20182  0.80010  0.20953  1.0000
  C   C502      1.0  0.19115  0.80538  0.21942  1.0000
  N   N40       1.0  0.99357  0.56331  0.09656  1.0000
  H   H491      1.0  0.32148  0.64580  0.18007  1.0000
  H   H492      1.0  0.27154  0.49262  0.16145  1.0000
  S   S159      1.0  0.28600  0.98248  0.00551  1.0000
  C   C503      1.0  0.18933  0.98345  0.16920  1.0000
  Fe  Fe84      1.0  0.31759  0.97556  0.99112  1.0000
  H   H493      1.0  0.16030  0.98395  0.15134  1.0000
  C   C504      1.0  0.19300  0.62206  0.22078  1.0000
  C   C505      1.0  0.20381  0.69546  0.22071  1.0000
  C   C506      1.0  0.25245  0.98562  0.04931  1.0000
  Fe  Fe85      1.0  0.01403  0.75216  0.33129  1.0000
  S   S160      1.0  0.03736  0.76679  0.31259  1.0000
  N   N41       1.0  0.25406  0.77039  0.24440  1.0000
  H   H494      1.0  0.05238  0.72306  0.31525  1.0000
  H   H495      1.0  0.26913  0.86180  0.28287  1.0000
  S   S161      1.0  0.01597  0.74495  0.35765  1.0000
  N   N42       1.0  0.06994  0.96770  0.46949  1.0000
  C   C507      1.0  0.02782  0.60535  0.40355  1.0000
  Fe  Fe86      1.0  0.11813  0.72589  0.24323  1.0000
  Fe  Fe87      1.0  0.27762  0.49037  0.33573  1.0000
  S   S162      1.0  0.10327  0.71375  0.26800  1.0000
  H   H496      1.0  0.18947  0.69098  0.22787  1.0000
  H   H497      1.0  0.00156  0.59436  0.41787  1.0000
  Fe  Fe88      1.0  0.24045  0.89305  0.22342  1.0000
  S   S163      1.0  0.15214  0.72295  0.23522  1.0000
  Fe  Fe89      1.0  0.01315  0.84543  0.44009  1.0000
  S   S164      1.0  0.02299  0.81896  0.42520  1.0000
  Fe  Fe90      1.0  0.03124  0.87585  0.45601  1.0000
  H   H498      1.0  0.99931  0.52861  0.45068  1.0000
  S   S165      1.0  0.06025  0.89095  0.45285  1.0000
  H   H499      1.0  0.06420  0.53850  0.43543  1.0000
  H   H500      1.0  0.02344  0.73310  0.29165  1.0000
  H   H501      1.0  0.02795  0.79869  0.45732  1.0000
  S   S166      1.0  0.01834  0.87822  0.43290  1.0000
  H   H502      1.0  0.23179  0.97422  0.39525  1.0000
  S   S167      1.0  0.02937  0.56889  0.44247  1.0000
  H   H503      1.0  0.29421  0.86625  0.28416  1.0000
  C   C508      1.0  0.05132  0.79857  0.35824  1.0000
  S   S168      1.0  0.21096  0.89952  0.23966  1.0000
  Fe  Fe91      1.0  0.25866  0.86007  0.24810  1.0000
  S   S169      1.0  0.23047  0.86413  0.26610  1.0000
  S   S170      1.0  0.28501  0.83713  0.25639  1.0000
  Fe  Fe92      1.0  0.21337  0.86515  0.24542  1.0000
  S   S171      1.0  0.18556  0.84861  0.24913  1.0000
  Fe  Fe93      1.0  0.23071  0.89802  0.25902  1.0000
  S   S172      1.0  0.22206  0.91894  0.27867  1.0000
  H   H504      1.0  0.17292  0.62750  0.24252  1.0000
  S   S173      1.0  0.26011  0.89386  0.24229  1.0000
  C   C509      1.0  0.03501  0.61790  0.38981  1.0000
  H   H505      1.0  0.01092  0.83056  0.37364  1.0000
  S   S174      1.0  0.29149  0.53552  0.24524  1.0000
  C   C510      1.0  0.25003  0.88493  0.30414  1.0000
  S   S175      1.0  0.26385  0.98184  0.36067  1.0000
  H   H506      1.0  0.00779  0.71280  0.41511  1.0000
  C   C511      1.0  0.09076  0.91007  0.45894  1.0000
  H   H507      1.0  0.23817  0.49588  0.29566  1.0000
  S   S176      1.0  0.26058  0.51553  0.31960  1.0000
  H   H508      1.0  0.28538  0.91143  0.32271  1.0000
  C   C512      1.0  0.03386  0.75726  0.26544  1.0000
  H   H509      1.0  0.05533  0.71014  0.25786  1.0000
  H   H510      1.0  0.22853  0.49017  0.38301  1.0000
  H   H511      1.0  0.14658  0.79548  0.24231  1.0000
  H   H512      1.0  0.20881  0.82834  0.22242  1.0000
  H   H513      1.0  0.29013  0.96989  0.42172  1.0000
  C   C513      1.0  0.07818  0.52983  0.45702  1.0000
  H   H514      1.0  0.02095  0.66288  0.39961  1.0000
  S   S177      1.0  0.11227  0.71053  0.22323  1.0000
  C   C514      1.0  0.28301  0.53152  0.26603  1.0000
  C   C515      1.0  0.29634  0.51977  0.27620  1.0000
  C   C516      1.0  0.28973  0.51488  0.29265  1.0000
  C   C517      1.0  0.26983  0.52208  0.29913  1.0000
  C   C518      1.0  0.25669  0.53435  0.28902  1.0000
  C   C519      1.0  0.26319  0.53895  0.27250  1.0000
  H   H515      1.0  0.21090  0.70434  0.22759  1.0000
  C   C520      1.0  0.22459  0.79942  0.25799  1.0000
  H   H516      1.0  0.24130  0.54009  0.29395  1.0000
  H   H517      1.0  0.25280  0.54807  0.26479  1.0000
  H   H518      1.0  0.08961  0.51821  0.45215  1.0000
  C   C521      1.0  0.31257  0.78455  0.22759  1.0000
  C   C522      1.0  0.27821  0.87386  0.28389  1.0000
  C   C523      1.0  0.24203  0.89526  0.31724  1.0000
  H   H519      1.0  0.99103  0.83810  0.34188  1.0000
  S   S178      1.0  0.01091  0.68901  0.37123  1.0000
  C   C524      1.0  0.99534  0.67920  0.38840  1.0000
  S   S179      1.0  0.17281  0.49605  0.42772  1.0000
  C   C525      1.0  0.23587  0.93346  0.28773  1.0000
  C   C526      1.0  0.22560  0.94394  0.30041  1.0000
  C   C527      1.0  0.23611  0.95442  0.30877  1.0000
  C   C528      1.0  0.25713  0.95455  0.30456  1.0000
  C   C529      1.0  0.26730  0.94453  0.29162  1.0000
  C   C530      1.0  0.25679  0.93406  0.28326  1.0000
  H   H520      1.0  0.20943  0.94360  0.30400  1.0000
  H   H521      1.0  0.22802  0.96201  0.31868  1.0000
  H   H522      1.0  0.28352  0.94465  0.28814  1.0000
  H   H523      1.0  0.26491  0.92627  0.27347  1.0000
  C   C531      1.0  0.28983  0.81673  0.23018  1.0000
  C   C532      1.0  0.20462  0.49297  0.40318  1.0000
  C   C533      1.0  0.05620  0.75920  0.24026  1.0000
  C   C534      1.0  0.29644  0.81774  0.24465  1.0000
  H   H524      1.0  0.06335  0.76801  0.22965  1.0000
  C   C535      1.0  0.04850  0.55604  0.45394  1.0000
  H   H525      1.0  0.05171  0.78333  0.33779  1.0000
  C   C536      1.0  0.05275  0.94738  0.45684  1.0000
  C   C537      1.0  0.07739  0.96761  0.44107  1.0000
  H   H526      1.0  0.26420  0.74132  0.23628  1.0000
  H   H527      1.0  0.19787  0.50804  0.39826  1.0000
  Fe  Fe94      1.0  0.00339  0.58857  0.45559  1.0000
  H   H528      1.0  0.20989  0.49640  0.44282  1.0000
  H   H529      1.0  0.31893  0.56100  0.25667  1.0000
  H   H530      1.0  0.06160  0.94780  0.43149  1.0000
  C   C538      1.0  0.17801  0.63381  0.23033  1.0000
  H   H531      1.0  0.00338  0.68209  0.43426  1.0000
  S   S180      1.0  0.19453  0.96133  0.44942  1.0000
  C   C539      1.0  0.08020  0.97463  0.45497  1.0000
  C   C540      1.0  0.16006  0.80270  0.23787  1.0000
  C   C541      1.0  0.16386  0.81901  0.24497  1.0000
  C   C542      1.0  0.18139  0.82846  0.23946  1.0000
  Fe  Fe95      1.0  0.16648  0.96902  0.46744  1.0000
  H   H532      1.0  0.31363  0.58642  0.26234  1.0000
  H   H533      1.0  0.01459  0.77213  0.38886  1.0000
  H   H534      1.0  0.15318  0.82424  0.25488  1.0000
  C   C543      1.0  0.21957  0.66007  0.22768  1.0000
  H   H535      1.0  0.08597  0.97269  0.42964  1.0000
  C   C544      1.0  0.00878  0.80960  0.41288  1.0000
  C   C545      1.0  0.01781  0.79264  0.40511  1.0000
  H   H536      1.0  0.21308  0.81098  0.26302  1.0000
  H   H537      1.0  0.22936  0.76001  0.23669  1.0000
  H   H538      1.0  0.02371  0.76498  0.27454  1.0000
  H   H539      1.0  0.05113  0.61921  0.38699  1.0000
  H   H540      1.0  0.03312  0.78551  0.40689  1.0000
  H   H541      1.0  0.29890  0.89270  0.29964  1.0000
  C   C546      1.0  0.21472  0.96804  0.41884  1.0000
  C   C547      1.0  0.05661  0.75198  0.30090  1.0000
  C   C548      1.0  0.06769  0.76174  0.28725  1.0000
  C   C549      1.0  0.08218  0.75028  0.27709  1.0000
  C   C550      1.0  0.08599  0.72897  0.28072  1.0000
  C   C551      1.0  0.07537  0.71930  0.29466  1.0000
  C   C552      1.0  0.06065  0.73072  0.30467  1.0000
  H   H542      1.0  0.06480  0.77821  0.28433  1.0000
  H   H543      1.0  0.09041  0.75790  0.26648  1.0000
  H   H544      1.0  0.07838  0.70284  0.29761  1.0000
  C   C553      1.0  0.00051  0.62738  0.38379  1.0000
  H   H545      1.0  0.07090  0.73023  0.23341  1.0000
  S   S181      1.0  0.24159  0.85874  0.22793  1.0000
  C   C554      1.0  0.00732  0.78498  0.39491  1.0000
  S   S182      1.0  0.11165  0.75799  0.23063  1.0000
  H   H546      1.0  0.31171  0.51398  0.27129  1.0000
  C   C555      1.0  0.00449  0.66600  0.40055  1.0000
  S   S183      1.0  0.00082  0.88596  0.47006  1.0000
  C   C556      1.0  0.16971  0.65378  0.22426  1.0000
  C   C557      1.0  0.00643  0.52508  0.46150  1.0000
  N   N43       1.0  0.99355  0.61537  0.39746  1.0000
  N   N44       1.0  0.27032  0.88370  0.29818  1.0000
  H   H547      1.0  0.30002  0.50552  0.30030  1.0000
  H   H548      1.0  0.03829  0.59667  0.41147  1.0000
  C   C558      1.0  0.02131  0.62894  0.37980  1.0000
  C   C559      1.0  0.29782  0.80018  0.22173  1.0000
  C   C560      1.0  0.31955  0.78574  0.24189  1.0000
  H   H549      1.0  0.09566  0.91108  0.44618  1.0000
  H   H550      1.0  0.20975  0.65945  0.23910  1.0000
  C   C561      1.0  0.27549  0.90345  0.31787  1.0000
  H   H551      1.0  0.31671  0.80300  0.26156  1.0000
  H   H552      1.0  0.25814  0.97694  0.43715  1.0000
  S   S184      1.0  0.00188  0.62243  0.45447  1.0000
  H   H553      1.0  0.02661  0.63920  0.36930  1.0000
  C   C562      1.0  0.99136  0.71579  0.41548  1.0000
  H   H554      1.0  0.03975  0.78555  0.25049  1.0000
  C   C563      1.0  0.19508  0.82152  0.22665  1.0000
  C   C564      1.0  0.02373  0.78785  0.46775  1.0000
  S   S185      1.0  0.20382  0.59747  0.22905  1.0000
  C   C565      1.0  0.05145  0.72666  0.25616  1.0000
  C   C566      1.0  0.31150  0.80232  0.25038  1.0000
  C   C567      1.0  0.10143  0.91870  0.46842  1.0000
  C   C568      1.0  0.26974  0.75601  0.23635  1.0000
  H   H555      1.0  0.99973  0.64598  0.42284  1.0000
  H   H556      1.0  0.01659  0.79856  0.33363  1.0000
  H   H557      1.0  0.03843  0.71034  0.28552  1.0000
  H   H558      1.0  0.27763  0.88543  0.27303  1.0000
  C   C569      1.0  0.24516  0.79916  0.25898  1.0000
  C   C570      1.0  0.21833  0.97894  0.40335  1.0000
  H   H559      1.0  0.30424  0.63794  0.23902  1.0000
  N   N45       1.0  0.01156  0.81516  0.35356  1.0000
  C   C571      1.0  0.01987  0.82035  0.36564  1.0000
  C   C572      1.0  0.02292  0.80232  0.34348  1.0000
  C   C573      1.0  0.28300  0.89294  0.30477  1.0000
  C   C574      1.0  0.04289  0.79372  0.34573  1.0000
  H   H560      1.0  0.99363  0.80622  0.45279  1.0000
  H   H561      1.0  0.27441  0.76287  0.22381  1.0000
  C   C575      1.0  0.04289  0.76899  0.25189  1.0000
  H   H562      1.0  0.15829  0.66276  0.23174  1.0000
  C   C576      1.0  0.06048  0.73792  0.24237  1.0000
  C   C577      1.0  0.06363  0.95381  0.44206  1.0000
  C   C578      1.0  0.04817  0.55968  0.46960  1.0000
  H   H563      1.0  0.01422  0.71968  0.27826  1.0000
  H   H564      1.0  0.27564  0.78401  0.25324  1.0000
  S   S186      1.0  0.28047  0.49243  0.36140  1.0000
  C   C579      1.0  0.25973  0.78426  0.25228  1.0000
  H   H565      1.0  0.28367  0.75237  0.24237  1.0000
  H   H566      1.0  0.27840  0.82854  0.22556  1.0000
  C   C580      1.0  0.23393  0.77068  0.24321  1.0000
  C   C581      1.0  0.00694  0.60416  0.40715  1.0000
  H   H567      1.0  0.24871  0.91341  0.33383  1.0000
  S   S187      1.0  0.99987  0.72454  0.32983  1.0000
  H   H568      1.0  0.28682  0.48927  0.25013  1.0000
  S   S188      1.0  0.27157  0.96646  0.31520  1.0000
  Fe  Fe96      1.0  0.99914  0.71883  0.35674  1.0000
  C   C582      1.0  0.20532  0.50500  0.45282  1.0000
  H   H569      1.0  0.20290  0.78490  0.24951  1.0000
  H   H570      1.0  0.03356  0.50753  0.45065  1.0000
  H   H571      1.0  0.25458  0.49606  0.26822  1.0000
  C   C583      1.0  0.06376  0.54132  0.44758  1.0000
  H   H572      1.0  0.19015  0.53089  0.43855  1.0000
  H   H573      1.0  0.06675  0.79189  0.36017  1.0000
  H   H574      1.0  0.23972  0.87864  0.29837  1.0000
  C   C584      1.0  0.03981  0.81206  0.36822  1.0000
  C   C585      1.0  0.25487  0.90460  0.32411  1.0000
  C   C586      1.0  0.07369  0.90034  0.46574  1.0000
  C   C587      1.0  0.19745  0.97424  0.42960  1.0000
  H   H575      1.0  0.24990  0.81053  0.26475  1.0000
  H   H576      1.0  0.22551  0.95493  0.42260  1.0000
  H   H577      1.0  0.11449  0.92611  0.46295  1.0000
  S   S189      1.0  0.02847  0.84219  0.46216  1.0000
  C   C588      1.0  0.02805  0.72427  0.28138  1.0000
  C   C589      1.0  0.17369  0.79581  0.22503  1.0000
  C   C590      1.0  0.21888  0.78487  0.25030  1.0000
  Fe  Fe97      1.0  0.27198  0.55416  0.22705  1.0000
  S   S190      1.0  0.13394  0.96876  0.46417  1.0000
  C   C591      1.0  0.19426  0.52462  0.45032  1.0000
  H   H578      1.0  0.29670  0.57820  0.25135  1.0000
  H   H579      1.0  0.22579  0.89685  0.32151  1.0000
  N   N46       1.0  0.03830  0.73637  0.26747  1.0000
  H   H580      1.0  0.04610  0.81587  0.37809  1.0000
  H   H581      1.0  0.99270  0.74002  0.39536  1.0000
  C   C592      1.0  0.99249  0.65637  0.41370  1.0000
  H   H582      1.0  0.17886  0.55066  0.46148  1.0000
  C   C593      1.0  0.02563  0.51325  0.46148  1.0000
  H   H583      1.0  0.23381  0.62875  0.23271  1.0000
  H   H584      1.0  0.04235  0.93628  0.45775  1.0000
  C   C594      1.0  0.18787  0.53564  0.46318  1.0000
  S   S191      1.0  0.26176  0.58786  0.22620  1.0000
  H   H585      1.0  0.28740  0.97422  0.40078  1.0000
  H   H586      1.0  0.31234  0.56645  0.22447  1.0000
  H   H587      1.0  0.28805  0.61889  0.22329  1.0000
  N   N47       1.0  0.20988  0.49658  0.46769  1.0000
  C   C595      1.0  0.30781  0.63993  0.22612  1.0000
  C   C596      1.0  0.23324  0.64268  0.22418  1.0000
  C   C597      1.0  0.31302  0.57728  0.25276  1.0000
  C   C598      1.0  0.28687  0.98185  0.41149  1.0000
  H   H588      1.0  0.09082  0.98548  0.45409  1.0000
  C   C599      1.0  0.99074  0.82417  0.35090  1.0000
  H   H589      1.0  0.98993  0.63646  0.37616  1.0000
  C   C600      1.0  0.05619  0.95443  0.47053  1.0000
  C   C601      1.0  0.32262  0.57747  0.22395  1.0000
  C   C602      1.0  0.07745  0.53312  0.47285  1.0000
  H   H590      1.0  0.31453  0.55683  0.53004  1.0000
  H   H591      1.0  0.00635  0.68018  0.53378  1.0000
  S   S192      1.0  0.01642  0.70572  0.55976  1.0000
  C   C603      1.0  0.30096  0.89120  0.58136  1.0000
  S   S193      1.0  0.00570  0.74160  0.58340  1.0000
  Fe  Fe98      1.0  0.00680  0.73979  0.55726  1.0000
  S   S194      1.0  0.02502  0.76003  0.53842  1.0000
  Fe  Fe99      1.0  0.01319  0.70733  0.58615  1.0000
  S   S195      1.0  0.03623  0.68642  0.60083  1.0000
  C   C604      1.0  0.30210  0.96891  0.64369  1.0000
  C   C605      1.0  0.22485  0.97008  0.53197  1.0000
  C   C606      1.0  0.31736  0.52780  0.56538  1.0000
  Fe  Fe100     1.0  0.13059  0.95098  0.48875  1.0000
  S   S196      1.0  0.10889  0.92730  0.49748  1.0000
  H   H592      1.0  0.27856  0.95511  0.63718  1.0000
  S   S197      1.0  0.16389  0.94863  0.49133  1.0000
  H   H593      1.0  0.14579  0.70739  0.71691  1.0000
  Fe  Fe101     1.0  0.14301  0.69360  0.63428  1.0000
  S   S198      1.0  0.15405  0.66000  0.64091  1.0000
  S   S199      1.0  0.11525  0.71004  0.62248  1.0000
  Fe  Fe102     1.0  0.18284  0.70638  0.64102  1.0000
  S   S200      1.0  0.19695  0.67399  0.64759  1.0000
  S   S201      1.0  0.19654  0.73527  0.64096  1.0000
  Fe  Fe103     1.0  0.18407  0.66663  0.62694  1.0000
  S   S202      1.0  0.20268  0.64796  0.60834  1.0000
  Fe  Fe104     1.0  0.16602  0.66980  0.66128  1.0000
  S   S203      1.0  0.16769  0.65028  0.68542  1.0000
  S   S204      1.0  0.17262  0.69960  0.61902  1.0000
  S   S205      1.0  0.15247  0.70282  0.65598  1.0000
  C   C607      1.0  0.31929  0.89113  0.58705  1.0000
  S   S206      1.0  0.21448  0.50297  0.60273  1.0000
  Fe  Fe105     1.0  0.26593  0.51462  0.57801  1.0000
  S   S207      1.0  0.23647  0.53618  0.57565  1.0000
  C   C608      1.0  0.16655  0.90441  0.51969  1.0000
  Fe  Fe106     1.0  0.23075  0.52976  0.60251  1.0000
  S   S208      1.0  0.21514  0.55118  0.62037  1.0000
  Fe  Fe107     1.0  0.22226  0.50785  0.57587  1.0000
  S   S209      1.0  0.19583  0.50820  0.56183  1.0000
  S   S210      1.0  0.26123  0.51015  0.60498  1.0000
  C   C609      1.0  0.19306  0.72036  0.70660  1.0000
  Fe  Fe108     1.0  0.28984  0.96200  0.60061  1.0000
  S   S211      1.0  0.30677  0.93376  0.61384  1.0000
  C   C610      1.0  0.02426  0.65267  0.57491  1.0000
  Fe  Fe109     1.0  0.29483  0.77402  0.65712  1.0000
  S   S212      1.0  0.28108  0.80288  0.66726  1.0000
  S   S213      1.0  0.28060  0.74463  0.66264  1.0000
  Fe  Fe110     1.0  0.29386  0.81976  0.64384  1.0000
  S   S214      1.0  0.27588  0.84721  0.63044  1.0000
  S   S215      1.0  0.30478  0.79080  0.63292  1.0000
  C   C611      1.0  0.28332  0.87184  0.62760  1.0000
  C   C612      1.0  0.30135  0.87496  0.63240  1.0000
  H   H594      1.0  0.11121  0.94599  0.52744  1.0000
  C   C613      1.0  0.29661  0.91058  0.61987  1.0000
  C   C614      1.0  0.27819  0.90773  0.61554  1.0000
  C   C615      1.0  0.27161  0.88840  0.61938  1.0000
  H   H595      1.0  0.19454  0.70588  0.67065  1.0000
  H   H596      1.0  0.28467  0.76244  0.69076  1.0000
  H   H597      1.0  0.26930  0.92023  0.60887  1.0000
  H   H598      1.0  0.25760  0.88613  0.61567  1.0000
  H   H599      1.0  0.14524  0.94933  0.54355  1.0000
  C   C616      1.0  0.19656  0.70487  0.68307  1.0000
  C   C617      1.0  0.18201  0.74101  0.68221  1.0000
  C   C618      1.0  0.20700  0.61709  0.66155  1.0000
  C   C619      1.0  0.06756  0.89915  0.48226  1.0000
  H   H600      1.0  0.20922  0.67289  0.68487  1.0000
  C   C620      1.0  0.15109  0.93638  0.53713  1.0000
  H   H601      1.0  0.00727  0.63003  0.54798  1.0000
  H   H602      1.0  0.20678  0.96718  0.51386  1.0000
  C   C621      1.0  0.22050  0.73724  0.64632  1.0000
  C   C622      1.0  0.22636  0.75673  0.64485  1.0000
  C   C623      1.0  0.24487  0.75919  0.64953  1.0000
  C   C624      1.0  0.25761  0.74216  0.65593  1.0000
  C   C625      1.0  0.25172  0.72265  0.65746  1.0000
  C   C626      1.0  0.23336  0.72015  0.65254  1.0000
  H   H603      1.0  0.21653  0.77004  0.64005  1.0000
  H   H604      1.0  0.24918  0.77429  0.64830  1.0000
  H   H605      1.0  0.26153  0.70939  0.66235  1.0000
  H   H606      1.0  0.22921  0.70504  0.65355  1.0000
  C   C627      1.0  0.16429  0.66216  0.70284  1.0000
  C   C628      1.0  0.15505  0.68248  0.70297  1.0000
  C   C629      1.0  0.03912  0.77593  0.47581  1.0000
  C   C630      1.0  0.99339  0.81454  0.50750  1.0000
  H   H607      1.0  0.14939  0.69108  0.69237  1.0000
  H   H608      1.0  0.10726  0.91997  0.53420  1.0000
  C   C631      1.0  0.00706  0.63652  0.55884  1.0000
  C   C632      1.0  0.20407  0.62110  0.61065  1.0000
  C   C633      1.0  0.19243  0.61056  0.62339  1.0000
  C   C634      1.0  0.19501  0.58906  0.62558  1.0000
  C   C635      1.0  0.20931  0.57793  0.61514  1.0000
  C   C636      1.0  0.22022  0.58849  0.60194  1.0000
  C   C637      1.0  0.21757  0.61002  0.59971  1.0000
  H   H609      1.0  0.18181  0.61892  0.63179  1.0000
  H   H610      1.0  0.18635  0.58097  0.63572  1.0000
  H   H611      1.0  0.23126  0.58007  0.59382  1.0000
  H   H612      1.0  0.22647  0.61811  0.58971  1.0000
  H   H613      1.0  0.02072  0.66017  0.51146  1.0000
  C   C638      1.0  0.07853  0.90739  0.49182  1.0000
  H   H614      1.0  0.18743  0.53516  0.48852  1.0000
  H   H615      1.0  0.03755  0.65874  0.57683  1.0000
  H   H616      1.0  0.31724  0.82929  0.61545  1.0000
  C   C639      1.0  0.03552  0.51411  0.50319  1.0000
  C   C640      1.0  0.05773  0.69345  0.60727  1.0000
  C   C641      1.0  0.06991  0.67875  0.61679  1.0000
  C   C642      1.0  0.08733  0.68357  0.62186  1.0000
  C   C643      1.0  0.09282  0.70319  0.61741  1.0000
  C   C644      1.0  0.08060  0.71787  0.60795  1.0000
  C   C645      1.0  0.06322  0.71306  0.60288  1.0000
  H   H617      1.0  0.06577  0.66357  0.62035  1.0000
  H   H618      1.0  0.09650  0.67212  0.62917  1.0000
  H   H619      1.0  0.08463  0.73311  0.60446  1.0000
  H   H620      1.0  0.05404  0.72455  0.59560  1.0000
  H   H621      1.0  0.27007  0.78920  0.70806  1.0000
  Fe  Fe111     1.0  0.31198  0.80217  0.67432  1.0000
  S   S216      1.0  0.25190  0.48668  0.57646  1.0000
  C   C646      1.0  0.17516  0.50075  0.53867  1.0000
  H   H622      1.0  0.24270  0.97142  0.64139  1.0000
  C   C647      1.0  0.03495  0.50958  0.47535  1.0000
  C   C648      1.0  0.06261  0.54831  0.47898  1.0000
  C   C649      1.0  0.24529  0.97352  0.65349  1.0000
  C   C650      1.0  0.30797  0.89423  0.62853  1.0000
  C   C651      1.0  0.00668  0.65398  0.58611  1.0000
  N   N48       1.0  0.13804  0.92585  0.53218  1.0000
  S   S217      1.0  0.15219  0.50116  0.47288  1.0000
  S   S218      1.0  0.12228  0.97873  0.50136  1.0000
  C   C652      1.0  0.19266  0.52696  0.47833  1.0000
  C   C653      1.0  0.31945  0.79746  0.71495  1.0000
  C   C654      1.0  0.01462  0.81109  0.50654  1.0000
  C   C655      1.0  0.02414  0.79431  0.51613  1.0000
  C   C656      1.0  0.01251  0.78078  0.52655  1.0000
  S   S219      1.0  0.99257  0.58342  0.48189  1.0000
  S   S220      1.0  0.31051  0.81306  0.69821  1.0000
  H   H623      1.0  0.02366  0.82166  0.49875  1.0000
  H   H624      1.0  0.04058  0.79187  0.51555  1.0000
  C   C657      1.0  0.17221  0.93093  0.53372  1.0000
  C   C658      1.0  0.02448  0.64395  0.56114  1.0000
  H   H625      1.0  0.17486  0.49252  0.59286  1.0000
  N   N49       1.0  0.31950  0.85572  0.59815  1.0000
  C   C659      1.0  0.99130  0.78397  0.52721  1.0000
  C   C660      1.0  0.28659  0.75988  0.70331  1.0000
  H   H626      1.0  0.00915  0.74988  0.50532  1.0000
  C   C661      1.0  0.17134  0.65111  0.71678  1.0000
  S   S221      1.0  0.29562  0.51887  0.56119  1.0000
  C   C662      1.0  0.17996  0.91486  0.52494  1.0000
  H   H627      1.0  0.17200  0.75093  0.69039  1.0000
  C   C663      1.0  0.27819  0.77477  0.71308  1.0000
  H   H628      1.0  0.03679  0.57127  0.47452  1.0000
  N   N50       1.0  0.19049  0.72155  0.69092  1.0000
  H   H629      1.0  0.11171  0.93539  0.54825  1.0000
  H   H630      1.0  0.00635  0.66094  0.59677  1.0000
  C   C664      1.0  0.11597  0.93209  0.53574  1.0000
  S   S222      1.0  0.24865  0.97294  0.55469  1.0000
  H   H631      1.0  0.27757  0.87331  0.58002  1.0000
  C   C665      1.0  0.99837  0.77260  0.48635  1.0000
  N   N51       1.0  0.22995  0.59405  0.64582  1.0000
  C   C666      1.0  0.22310  0.61349  0.64926  1.0000
  C   C667      1.0  0.22131  0.57784  0.65452  1.0000
  S   S223      1.0  0.29507  0.97072  0.57404  1.0000
  C   C668      1.0  0.20504  0.58095  0.66680  1.0000
  C   C669      1.0  0.19786  0.60075  0.67031  1.0000
  C   C670      1.0  0.24712  0.59058  0.63312  1.0000
  H   H632      1.0  0.22977  0.62640  0.64226  1.0000
  H   H633      1.0  0.22650  0.56246  0.65160  1.0000
  H   H634      1.0  0.19789  0.56813  0.67340  1.0000
  H   H635      1.0  0.18516  0.60355  0.67972  1.0000
  H   H636      1.0  0.29334  0.90527  0.57537  1.0000
  H   H637      1.0  0.24695  0.57622  0.62820  1.0000
  H   H638      1.0  0.24621  0.60320  0.62293  1.0000
  C   C671      1.0  0.29212  0.87330  0.58397  1.0000
  C   C672      1.0  0.99276  0.64875  0.51077  1.0000
  C   C673      1.0  0.99966  0.79831  0.56342  1.0000
  C   C674      1.0  0.20752  0.68481  0.70705  1.0000
  H   H639      1.0  0.21347  0.67029  0.71352  1.0000
  N   N52       1.0  0.26639  0.97679  0.65324  1.0000
  C   C675      1.0  0.19388  0.49698  0.54477  1.0000
  N   N53       1.0  0.02551  0.51774  0.48878  1.0000
  H   H640      1.0  0.23881  0.96255  0.52592  1.0000
  H   H641      1.0  0.03793  0.64321  0.55219  1.0000
  H   H642      1.0  0.26175  0.58956  0.63782  1.0000
  S   S224      1.0  0.09350  0.51760  0.48583  1.0000
  H   H643      1.0  0.30265  0.54007  0.58674  1.0000
  H   H644      1.0  0.04816  0.94880  0.48205  1.0000
  H   H645      1.0  0.05448  0.89173  0.48768  1.0000
  H   H646      1.0  0.99891  0.53537  0.49966  1.0000
  C   C676      1.0  0.14550  0.91020  0.52339  1.0000
  C   C677      1.0  0.03387  0.76203  0.48930  1.0000
  N   N54       1.0  0.00366  0.78603  0.47304  1.0000
  H   H647      1.0  0.17262  0.73838  0.67336  1.0000
  H   H648      1.0  0.16265  0.51101  0.54401  1.0000
  H   H649      1.0  0.20144  0.63246  0.66423  1.0000
  H   H650      1.0  0.18245  0.93949  0.53756  1.0000
  H   H651      1.0  0.05009  0.50076  0.47511  1.0000
  S   S225      1.0  0.25593  0.97072  0.60225  1.0000
  H   H652      1.0  0.19462  0.74920  0.67557  1.0000
  H   H653      1.0  0.31632  0.57656  0.55156  1.0000
  H   H654      1.0  0.01819  0.81836  0.54734  1.0000
  C   C678      1.0  0.31658  0.53820  0.57842  1.0000
  H   H655      1.0  0.13518  0.90230  0.51895  1.0000
  H   H656      1.0  0.07381  0.90611  0.50460  1.0000
  C   C679      1.0  0.09547  0.91727  0.48495  1.0000
  N   N55       1.0  0.13721  0.68526  0.58898  1.0000
  C   C680      1.0  0.15351  0.67130  0.59311  1.0000
  C   C681      1.0  0.11887  0.67904  0.58876  1.0000
  C   C682      1.0  0.15143  0.65065  0.59782  1.0000
  C   C683      1.0  0.11623  0.65854  0.59348  1.0000
  C   C684      1.0  0.13262  0.64430  0.59812  1.0000
  C   C685      1.0  0.13965  0.70684  0.58405  1.0000
  H   H657      1.0  0.16823  0.67607  0.59294  1.0000
  H   H658      1.0  0.10593  0.69007  0.58542  1.0000
  H   H659      1.0  0.16432  0.63970  0.60130  1.0000
  H   H660      1.0  0.10142  0.65388  0.59382  1.0000
  H   H661      1.0  0.13077  0.62837  0.60198  1.0000
  H   H662      1.0  0.14569  0.70950  0.57114  1.0000
  H   H663      1.0  0.12488  0.71698  0.58642  1.0000
  H   H664      1.0  0.15013  0.71148  0.59113  1.0000
  C   C686      1.0  0.20372  0.50729  0.48038  1.0000
  C   C687      1.0  0.22512  0.97698  0.54662  1.0000
  C   C688      1.0  0.01338  0.76021  0.49455  1.0000
  H   H665      1.0  0.01255  0.78842  0.56806  1.0000
  Fe  Fe112     1.0  0.11989  0.49435  0.47720  1.0000
  H   H666      1.0  0.19632  0.91082  0.52192  1.0000
  H   H667      1.0  0.24191  0.95986  0.66216  1.0000
  S   S226      1.0  0.00421  0.63362  0.49567  1.0000
  C   C689      1.0  0.28185  0.96593  0.64423  1.0000
  C   C690      1.0  0.30168  0.85557  0.59241  1.0000
  C   C691      1.0  0.20511  0.68625  0.69100  1.0000
  H   H668      1.0  0.06214  0.55115  0.49113  1.0000
  C   C692      1.0  0.00282  0.81514  0.55182  1.0000
  H   H669      1.0  0.30405  0.73003  0.70214  1.0000
  Fe  Fe113     1.0  0.99706  0.85255  0.47434  1.0000
  C   C693      1.0  0.20667  0.97268  0.52507  1.0000
  H   H670      1.0  0.29431  0.84191  0.59496  1.0000
  H   H671      1.0  0.04555  0.75305  0.49596  1.0000
  C   C694      1.0  0.00490  0.66022  0.51664  1.0000
  H   H672      1.0  0.02838  0.50264  0.51228  1.0000
  H   H673      1.0  0.17238  0.89223  0.51250  1.0000
  C   C695      1.0  0.29752  0.74165  0.70974  1.0000
  C   C696      1.0  0.18837  0.98211  0.53282  1.0000
  C   C697      1.0  0.99678  0.67162  0.52924  1.0000
  H   H674      1.0  0.31041  0.86246  0.63883  1.0000
  C   C698      1.0  0.99663  0.53276  0.47540  1.0000
  C   C699      1.0  0.00648  0.52896  0.48901  1.0000
  H   H675      1.0  0.31422  0.96057  0.63620  1.0000
  H   H676      1.0  0.05497  0.77773  0.47174  1.0000
  N   N56       1.0  0.98977  0.63813  0.56980  1.0000
  H   H677      1.0  0.03435  0.52862  0.50821  1.0000
  C   C700      1.0  0.15296  0.69167  0.71691  1.0000
  H   H678      1.0  0.17842  0.63535  0.71681  1.0000
  H   H679      1.0  0.20701  0.50052  0.49224  1.0000
  H   H680      1.0  0.18822  0.73352  0.71288  1.0000
  H   H681      1.0  0.05212  0.50847  0.50052  1.0000
  C   C701      1.0  0.20152  0.70196  0.71492  1.0000
  H   H682      1.0  0.15783  0.49425  0.52132  1.0000
  Fe  Fe114     1.0  0.26125  0.98187  0.57568  1.0000
  C   C702      1.0  0.07306  0.97504  0.48400  1.0000
  H   H683      1.0  0.07384  0.96227  0.49408  1.0000
  C   C703      1.0  0.17236  0.49124  0.52580  1.0000
  Fe  Fe115     1.0  0.15593  0.97810  0.50185  1.0000
  C   C704      1.0  0.30644  0.98308  0.65246  1.0000
  S   S227      1.0  0.16461  0.98461  0.52529  1.0000
  H   H684      1.0  0.08769  0.98130  0.48226  1.0000
  H   H685      1.0  0.32217  0.89635  0.63200  1.0000
  C   C705      1.0  0.98941  0.64675  0.58329  1.0000
  N   N57       1.0  0.28401  0.71787  0.84624  1.0000
  N   N58       1.0  0.00906  0.48844  0.85219  1.0000
  H   H686      1.0  0.01795  0.95088  0.87778  1.0000
  C   C706      1.0  0.24929  0.56598  0.81846  1.0000
  S   S228      1.0  0.32135  0.51291  0.95790  1.0000
  Fe  Fe116     1.0  0.22291  0.94785  0.85613  1.0000
  S   S229      1.0  0.24759  0.94275  0.83523  1.0000
  S   S230      1.0  0.19010  0.94569  0.85351  1.0000
  Fe  Fe117     1.0  0.25308  0.95662  0.87696  1.0000
  S   S231      1.0  0.27968  0.95221  0.85769  1.0000
  S   S232      1.0  0.25466  0.96040  0.90274  1.0000
  C   C707      1.0  0.22927  0.89666  0.81724  1.0000
  Fe  Fe118     1.0  0.26639  0.92505  0.85382  1.0000
  S   S233      1.0  0.28396  0.89297  0.85618  1.0000
  C   C708      1.0  0.99628  0.97863  0.87495  1.0000
  S   S234      1.0  0.24091  0.92826  0.87420  1.0000
  Fe  Fe119     1.0  0.05444  0.92376  0.90028  1.0000
  S   S235      1.0  0.07628  0.90662  0.88239  1.0000
  S   S236      1.0  0.04431  0.95800  0.89979  1.0000
  Fe  Fe120     1.0  0.05743  0.88739  0.92684  1.0000
  S   S237      1.0  0.07938  0.86717  0.91122  1.0000
  S   S238      1.0  0.04455  0.87927  0.95288  1.0000
  Fe  Fe121     1.0  0.09516  0.89498  0.90224  1.0000
  S   S239      1.0  0.12945  0.89353  0.90211  1.0000
  Fe  Fe122     1.0  0.05890  0.87980  0.89243  1.0000
  S   S240      1.0  0.05200  0.86035  0.87467  1.0000
  S   S241      1.0  0.07464  0.91383  0.91943  1.0000
  S   S242      1.0  0.03567  0.89820  0.90876  1.0000
  Fe  Fe123     1.0  0.20445  0.50122  0.84440  1.0000
  S   S243      1.0  0.19026  0.53429  0.84540  1.0000
  Fe  Fe124     1.0  0.17390  0.67764  0.76910  1.0000
  S   S244      1.0  0.17718  0.69780  0.78689  1.0000
  S   S245      1.0  0.15856  0.69328  0.74765  1.0000
  Fe  Fe125     1.0  0.19314  0.63875  0.78874  1.0000
  S   S246      1.0  0.19768  0.65581  0.80807  1.0000
  S   S247      1.0  0.20477  0.60512  0.78734  1.0000
  Fe  Fe126     1.0  0.16599  0.67257  0.80525  1.0000
  S   S248      1.0  0.14132  0.67636  0.82656  1.0000
  Fe  Fe127     1.0  0.20850  0.67964  0.78809  1.0000
  S   S249      1.0  0.23957  0.69063  0.78446  1.0000
  S   S250      1.0  0.16080  0.65350  0.78741  1.0000
  S   S251      1.0  0.20589  0.66143  0.76878  1.0000
  Fe  Fe128     1.0  0.00539  0.75958  0.86539  1.0000
  S   S252      1.0  0.00966  0.76816  0.83873  1.0000
  S   S253      1.0  0.00874  0.78003  0.88358  1.0000
  Fe  Fe129     1.0  0.02963  0.73766  0.83807  1.0000
  S   S254      1.0  0.05892  0.73776  0.82038  1.0000
  S   S255      1.0  0.02687  0.72992  0.86475  1.0000
  C   C709      1.0  0.22864  0.56153  0.84935  1.0000
  S   S256      1.0  0.30450  0.78943  0.78872  1.0000
  S   S257      1.0  0.27045  0.75458  0.81906  1.0000
  C   C710      1.0  0.29391  0.74948  0.75250  1.0000
  H   H687      1.0  0.25706  0.56750  0.80627  1.0000
  H   H688      1.0  0.20777  0.91930  0.82888  1.0000
  C   C711      1.0  0.11891  0.69434  0.82523  1.0000
  C   C712      1.0  0.10195  0.69240  0.83712  1.0000
  C   C713      1.0  0.08357  0.70591  0.83606  1.0000
  C   C714      1.0  0.08215  0.72164  0.82318  1.0000
  C   C715      1.0  0.09933  0.72399  0.81158  1.0000
  C   C716      1.0  0.11758  0.71029  0.81250  1.0000
  H   H689      1.0  0.10291  0.68015  0.84704  1.0000
  H   H690      1.0  0.07044  0.70392  0.84505  1.0000
  H   H691      1.0  0.09838  0.73619  0.80162  1.0000
  H   H692      1.0  0.13060  0.71204  0.80337  1.0000
  C   C717      1.0  0.24753  0.70878  0.79411  1.0000
  C   C718      1.0  0.23459  0.71871  0.80590  1.0000
  C   C719      1.0  0.24172  0.73294  0.81328  1.0000
  C   C720      1.0  0.26178  0.73741  0.80892  1.0000
  C   C721      1.0  0.27471  0.72750  0.79712  1.0000
  C   C722      1.0  0.26761  0.71322  0.78979  1.0000
  H   H693      1.0  0.21910  0.71543  0.80930  1.0000
  H   H694      1.0  0.23159  0.74057  0.82238  1.0000
  H   H695      1.0  0.29022  0.73070  0.79374  1.0000
  H   H696      1.0  0.27773  0.70549  0.78076  1.0000
  C   C723      1.0  0.19294  0.55349  0.82866  1.0000
  C   C724      1.0  0.20446  0.54918  0.81414  1.0000
  C   C725      1.0  0.20748  0.56511  0.80144  1.0000
  C   C726      1.0  0.19904  0.58544  0.80313  1.0000
  C   C727      1.0  0.18723  0.58971  0.81756  1.0000
  C   C728      1.0  0.18417  0.57377  0.83026  1.0000
  H   H697      1.0  0.21124  0.53363  0.81277  1.0000
  H   H698      1.0  0.21659  0.56170  0.79029  1.0000
  H   H699      1.0  0.18060  0.60530  0.81899  1.0000
  H   H700      1.0  0.17518  0.57720  0.84145  1.0000
  H   H701      1.0  0.24681  0.49177  0.89041  1.0000
  C   C729      1.0  0.02082  0.50283  0.85335  1.0000
  H   H702      1.0  0.17529  0.65182  0.74126  1.0000
  C   C730      1.0  0.03817  0.83917  0.87743  1.0000
  C   C731      1.0  0.03595  0.83063  0.86393  1.0000
  C   C732      1.0  0.02660  0.81287  0.86552  1.0000
  C   C733      1.0  0.01917  0.80343  0.88070  1.0000
  C   C734      1.0  0.02091  0.81227  0.89417  1.0000
  C   C735      1.0  0.03038  0.82997  0.89258  1.0000
  H   H703      1.0  0.04180  0.83766  0.85214  1.0000
  H   H704      1.0  0.25819  0.53317  0.82244  1.0000
  H   H705      1.0  0.01517  0.80519  0.90597  1.0000
  H   H706      1.0  0.03190  0.83632  0.90309  1.0000
  C   C736      1.0  0.29202  0.87879  0.84004  1.0000
  C   C737      1.0  0.29928  0.85783  0.84330  1.0000
  C   C738      1.0  0.30528  0.84580  0.83085  1.0000
  C   C739      1.0  0.30433  0.85474  0.81500  1.0000
  C   C740      1.0  0.29714  0.87574  0.81172  1.0000
  C   C741      1.0  0.29089  0.88772  0.82420  1.0000
  H   H707      1.0  0.01371  0.48928  0.93346  1.0000
  C   C742      1.0  0.31542  0.72906  0.84869  1.0000
  H   H708      1.0  0.29934  0.92289  0.92979  1.0000
  H   H709      1.0  0.28535  0.90387  0.82156  1.0000
  C   C743      1.0  0.17400  0.92978  0.86648  1.0000
  C   C744      1.0  0.18027  0.91757  0.88019  1.0000
  C   C745      1.0  0.16667  0.90590  0.89060  1.0000
  C   C746      1.0  0.14654  0.90664  0.88763  1.0000
  C   C747      1.0  0.14040  0.91854  0.87376  1.0000
  C   C748      1.0  0.15414  0.92992  0.86318  1.0000
  H   H710      1.0  0.19548  0.91735  0.88292  1.0000
  H   H711      1.0  0.17157  0.89664  0.90127  1.0000
  H   H712      1.0  0.12500  0.91916  0.87128  1.0000
  H   H713      1.0  0.14918  0.93922  0.85255  1.0000
  H   H714      1.0  0.23946  0.52930  0.85006  1.0000
  H   H715      1.0  0.22244  0.61207  0.81697  1.0000
  H   H716      1.0  0.32247  0.98228  0.89764  1.0000
  S   S258      1.0  0.23272  0.97683  0.86042  1.0000
  H   H717      1.0  0.08264  0.89435  0.95339  1.0000
  C   C749      1.0  0.29381  0.91561  0.89257  1.0000
  C   C750      1.0  0.07324  0.89545  0.96484  1.0000
  C   C751      1.0  0.24019  0.87008  0.86416  1.0000
  C   C752      1.0  0.27568  0.96720  0.90986  1.0000
  C   C753      1.0  0.27543  0.96610  0.92645  1.0000
  H   H718      1.0  0.08748  0.95164  0.89546  1.0000
  C   C754      1.0  0.23961  0.54435  0.84307  1.0000
  C   C755      1.0  0.30938  0.97769  0.90575  1.0000
  H   H719      1.0  0.25874  0.71031  0.86332  1.0000
  C   C756      1.0  0.29426  0.72993  0.85259  1.0000
  C   C757      1.0  0.02320  0.97303  0.89168  1.0000
  S   S259      1.0  0.31360  0.78366  0.82592  1.0000
  H   H720      1.0  0.28269  0.91196  0.88600  1.0000
  C   C758      1.0  0.30340  0.92168  0.91715  1.0000
  C   C759      1.0  0.25005  0.54654  0.82754  1.0000
  H   H721      1.0  0.22669  0.90369  0.80525  1.0000
  Fe  Fe130     1.0  0.25864  0.97055  0.84066  1.0000
  H   H722      1.0  0.29177  0.96946  0.94547  1.0000
  H   H723      1.0  0.25757  0.85645  0.83670  1.0000
  N   N59       1.0  0.13568  0.94963  0.90310  1.0000
  C   C760      1.0  0.10303  0.95489  0.89389  1.0000
  H   H724      1.0  0.25494  0.71152  0.84274  1.0000
  H   H725      1.0  0.05051  0.50844  0.85674  1.0000
  H   H726      1.0  0.26225  0.96169  0.93455  1.0000
  H   H727      1.0  0.21921  0.59394  0.84477  1.0000
  C   C761      1.0  0.28770  0.48571  0.91110  1.0000
  C   C762      1.0  0.00077  0.95816  0.93183  1.0000
  H   H728      1.0  0.01386  0.95192  0.93795  1.0000
  S   S260      1.0  0.99689  0.68324  0.87686  1.0000
  H   H729      1.0  0.24052  0.88218  0.87156  1.0000
  Fe  Fe131     1.0  0.32060  0.48784  0.94337  1.0000
  C   C763      1.0  0.29432  0.70495  0.83582  1.0000
  C   C764      1.0  0.23794  0.60309  0.81518  1.0000
  H   H730      1.0  0.30028  0.85083  0.85553  1.0000
  C   C765      1.0  0.29280  0.97296  0.89953  1.0000
  C   C766      1.0  0.29215  0.97051  0.93268  1.0000
  H   H731      1.0  0.21981  0.55979  0.86117  1.0000
  H   H732      1.0  0.24730  0.98362  0.80171  1.0000
  N   N60       1.0  0.09925  0.70100  0.77681  1.0000
  C   C767      1.0  0.11173  0.68377  0.78211  1.0000
  C   C768      1.0  0.08018  0.70587  0.78497  1.0000
  C   C769      1.0  0.10535  0.67100  0.79604  1.0000
  C   C770      1.0  0.07319  0.69328  0.79881  1.0000
  C   C771      1.0  0.08597  0.67585  0.80444  1.0000
  C   C772      1.0  0.10693  0.71451  0.76264  1.0000
  H   H733      1.0  0.12689  0.68015  0.77567  1.0000
  H   H734      1.0  0.07047  0.71989  0.78117  1.0000
  H   H735      1.0  0.11562  0.65781  0.80061  1.0000
  H   H736      1.0  0.05840  0.69763  0.80560  1.0000
  H   H737      1.0  0.08114  0.66650  0.81558  1.0000
  H   H738      1.0  0.09509  0.72730  0.75894  1.0000
  H   H739      1.0  0.12007  0.72104  0.76515  1.0000
  H   H740      1.0  0.11238  0.70569  0.75242  1.0000
  N   N61       1.0  0.23656  0.87926  0.84793  1.0000
  C   C773      1.0  0.14302  0.96240  0.89002  1.0000
  H   H741      1.0  0.24908  0.61148  0.81862  1.0000
  C   C774      1.0  0.11042  0.96768  0.88042  1.0000
  H   H742      1.0  0.31658  0.79830  0.75497  1.0000
  C   C775      1.0  0.16039  0.68074  0.73074  1.0000
  H   H743      1.0  0.02526  0.80641  0.85503  1.0000
  H   H744      1.0  0.27390  0.91434  0.91503  1.0000
  H   H745      1.0  0.20275  0.70080  0.72754  1.0000
  C   C776      1.0  0.01292  0.96596  0.88121  1.0000
  C   C777      1.0  0.28899  0.91665  0.90892  1.0000
  C   C778      1.0  0.26818  0.49287  0.90660  1.0000
  Fe  Fe132     1.0  0.30082  0.76611  0.81049  1.0000
  H   H746      1.0  0.30948  0.74158  0.75433  1.0000
  H   H747      1.0  0.14568  0.94921  0.92540  1.0000
  H   H748      1.0  0.21438  0.90352  0.85601  1.0000
  C   C779      1.0  0.22822  0.58074  0.83996  1.0000
  H   H749      1.0  0.01420  0.51882  0.85311  1.0000
  C   C780      1.0  0.30921  0.97641  0.92235  1.0000
  C   C781      1.0  0.28074  0.77114  0.72926  1.0000
  C   C782      1.0  0.13054  0.97153  0.87844  1.0000
  N   N62       1.0  0.07017  0.77754  0.86056  1.0000
  C   C783      1.0  0.07916  0.79492  0.85650  1.0000
  C   C784      1.0  0.06313  0.77112  0.87619  1.0000
  C   C785      1.0  0.08178  0.80607  0.86831  1.0000
  C   C786      1.0  0.06561  0.78183  0.88830  1.0000
  C   C787      1.0  0.07498  0.79942  0.88430  1.0000
  C   C788      1.0  0.06663  0.76664  0.84799  1.0000
  H   H750      1.0  0.08386  0.80056  0.84406  1.0000
  H   H751      1.0  0.05486  0.75809  0.87933  1.0000
  H   H752      1.0  0.08810  0.82033  0.86506  1.0000
  H   H753      1.0  0.05931  0.77712  0.90060  1.0000
  H   H754      1.0  0.07610  0.80847  0.89347  1.0000
  H   H755      1.0  0.06680  0.75003  0.85227  1.0000
  H   H756      1.0  0.05160  0.77301  0.84408  1.0000
  H   H757      1.0  0.07864  0.76793  0.83742  1.0000
  H   H758      1.0  0.31657  0.91900  0.87187  1.0000
  C   C789      1.0  0.11591  0.94601  0.90522  1.0000
  C   C790      1.0  0.99486  0.94702  0.92141  1.0000
  C   C791      1.0  0.16956  0.66040  0.73065  1.0000
  H   H759      1.0  0.24149  0.60212  0.80215  1.0000
  C   C792      1.0  0.31286  0.91965  0.88463  1.0000
  H   H760      1.0  0.13664  0.98110  0.86784  1.0000
  H   H761      1.0  0.28601  0.74058  0.86048  1.0000
  C   C793      1.0  0.26194  0.71852  0.85103  1.0000
  C   C794      1.0  0.21870  0.90545  0.83046  1.0000
  Fe  Fe133     1.0  0.99932  0.71537  0.86307  1.0000
  S   S261      1.0  0.29442  0.49443  0.92793  1.0000
  C   C795      1.0  0.14878  0.94023  0.91524  1.0000
  C   C796      1.0  0.31316  0.80387  0.73000  1.0000
  H   H762      1.0  0.11017  0.93575  0.91551  1.0000
  H   H763      1.0  0.30843  0.72436  0.73089  1.0000
  C   C797      1.0  0.22254  0.89647  0.84582  1.0000
  H   H764      1.0  0.22801  0.86080  0.86982  1.0000
  H   H765      1.0  0.25433  0.73466  0.85059  1.0000
  H   H766      1.0  0.25531  0.86028  0.86409  1.0000
  H   H767      1.0  0.16520  0.93933  0.91021  1.0000
  C   C798      1.0  0.24323  0.87886  0.81952  1.0000
  C   C799      1.0  0.24654  0.87019  0.83506  1.0000
  C   C800      1.0  0.26194  0.48629  0.89353  1.0000
  H   H768      1.0  0.25778  0.50357  0.91334  1.0000
  N   N63       1.0  0.23834  0.58273  0.82468  1.0000
  H   H769      1.0  0.29321  0.97391  0.88674  1.0000
  H   H770      1.0  0.25171  0.87193  0.80935  1.0000
  C   C801      1.0  0.05369  0.88984  0.96745  1.0000
  H   H771      1.0  0.00333  0.93215  0.91945  1.0000
  H   H772      1.0  0.28613  0.69585  0.83040  1.0000
  H   H773      1.0  0.31092  0.82969  0.83350  1.0000
  H   H774      1.0  0.99859  0.63993  0.88660  1.0000
  C   C802      1.0  0.00303  0.48724  0.89009  1.0000
  S   S262      1.0  0.00385  0.72109  0.83619  1.0000
  H   H775      1.0  0.01673  0.49404  0.88939  1.0000
  H   H776      1.0  0.14590  0.92424  0.91973  1.0000
  H   H777      1.0  0.27422  0.78286  0.73675  1.0000
  C   C803      1.0  0.29993  0.73858  0.72595  1.0000
  H   H778      1.0  0.15879  0.96508  0.88818  1.0000
  S   S263      1.0  0.31203  0.84024  0.79899  1.0000
  H   H779      1.0  0.30228  0.81762  0.73115  1.0000
  N   N64       1.0  0.29172  0.75332  0.73545  1.0000
  C   C804      1.0  0.04133  0.49706  0.85550  1.0000
  H   H780      1.0  0.29185  0.76397  0.75772  1.0000
  C   C805      1.0  0.32117  0.79289  0.74353  1.0000
  H   H781      1.0  0.10058  0.97439  0.87147  1.0000
  S   S264      1.0  0.23655  0.49088  0.83357  1.0000
  Fe  Fe134     1.0  0.31978  0.80561  0.80343  1.0000
  H   H782      1.0  0.29644  0.88278  0.79947  1.0000
  C   C806      1.0  0.31549  0.70366  0.83170  1.0000
  H   H783      1.0  0.28242  0.73992  0.75920  1.0000
  N   N65       1.0  0.32201  0.92582  0.90925  1.0000
  H   H784      1.0  0.32261  0.85524  0.76145  1.0000
  C   C807      1.0  0.99014  0.97763  0.93383  1.0000
  S   S265      1.0  0.48694  0.32082  0.98211  1.0000
  S   S266      1.0  0.46701  0.08458  0.98975  1.0000
  S   S267      1.0  0.45632  0.13958  0.00305  1.0000
  Fe  Fe135     1.0  0.51187  0.21332  0.08778  1.0000
  S   S268      1.0  0.48754  0.19574  0.08383  1.0000
  S   S269      1.0  0.52862  0.20728  0.10964  1.0000
  Fe  Fe136     1.0  0.50663  0.24374  0.05753  1.0000
  S   S270      1.0  0.48256  0.22854  0.05084  1.0000
  S   S271      1.0  0.51916  0.27250  0.04515  1.0000
  Fe  Fe137     1.0  0.46937  0.22664  0.07700  1.0000
  S   S272      1.0  0.43487  0.23651  0.08083  1.0000
  Fe  Fe138     1.0  0.50225  0.19900  0.05807  1.0000
  S   S273      1.0  0.51155  0.17254  0.04353  1.0000
  S   S274      1.0  0.49227  0.24388  0.08312  1.0000
  S   S275      1.0  0.52773  0.21448  0.06261  1.0000
  Fe  Fe139     1.0  0.34299  0.26480  0.14674  1.0000
  C   C808      1.0  0.55843  0.41100  0.98150  1.0000
  S   S276      1.0  0.37750  0.25740  0.14484  1.0000
  H   H785      1.0  0.34191  0.01277  0.03630  1.0000
  H   H786      1.0  0.43707  0.29303  0.03008  1.0000
  S   S277      1.0  0.32300  0.26546  0.12807  1.0000
  Fe  Fe140     1.0  0.46978  0.11817  0.98476  1.0000
  S   S278      1.0  0.64348  0.17037  0.18781  1.0000
  N   N66       1.0  0.33303  0.03816  0.99996  1.0000
  C   C809      1.0  0.46420  0.33280  0.02171  1.0000
  H   H787      1.0  0.34548  0.24319  0.19473  1.0000
  S   S279      1.0  0.62543  0.19077  0.10795  1.0000
  S   S280      1.0  0.65479  0.15786  0.14289  1.0000
  H   H788      1.0  0.54288  0.40778  0.98397  1.0000
  Fe  Fe141     1.0  0.61976  0.46461  0.99165  1.0000
  S   S281      1.0  0.59124  0.44871  0.99627  1.0000
  C   C810      1.0  0.54523  0.04630  0.98036  1.0000
  H   H789      1.0  0.48164  0.30657  0.05534  1.0000
  N   N67       1.0  0.48047  0.11208  0.04171  1.0000
  C   C811      1.0  0.36478  0.26667  0.19112  1.0000
  H   H790      1.0  0.63547  0.10801  0.10782  1.0000
  H   H791      1.0  0.49343  0.07818  0.01516  1.0000
  H   H792      1.0  0.46628  0.13777  0.05334  1.0000
  C   C812      1.0  0.35364  0.25204  0.20039  1.0000
  H   H793      1.0  0.60731  0.23628  0.10583  1.0000
  C   C813      1.0  0.64116  0.22366  0.18782  1.0000
  C   C814      1.0  0.55553  0.20144  0.10915  1.0000
  C   C815      1.0  0.56401  0.20023  0.12332  1.0000
  C   C816      1.0  0.58534  0.19664  0.12329  1.0000
  C   C817      1.0  0.59843  0.19408  0.10905  1.0000
  C   C818      1.0  0.58995  0.19511  0.09490  1.0000
  C   C819      1.0  0.56865  0.19881  0.09492  1.0000
  H   H794      1.0  0.55400  0.20223  0.13440  1.0000
  H   H795      1.0  0.59161  0.19592  0.13427  1.0000
  H   H796      1.0  0.59992  0.19317  0.08381  1.0000
  H   H797      1.0  0.56240  0.19968  0.08393  1.0000
  C   C820      1.0  0.41964  0.24370  0.09854  1.0000
  C   C821      1.0  0.39878  0.25095  0.09820  1.0000
  C   C822      1.0  0.38577  0.25564  0.11220  1.0000
  C   C823      1.0  0.39355  0.25321  0.12669  1.0000
  C   C824      1.0  0.41449  0.24640  0.12697  1.0000
  C   C825      1.0  0.42749  0.24161  0.11297  1.0000
  H   H798      1.0  0.39258  0.25265  0.08708  1.0000
  H   H799      1.0  0.36972  0.26090  0.11180  1.0000
  H   H800      1.0  0.42066  0.24450  0.13812  1.0000
  H   H801      1.0  0.44350  0.23605  0.11341  1.0000
  H   H802      1.0  0.53171  0.10239  0.04079  1.0000
  H   H803      1.0  0.46327  0.09940  0.02790  1.0000
  C   C826      1.0  0.46239  0.12383  0.04973  1.0000
  H   H804      1.0  0.42532  0.47623  0.97630  1.0000
  H   H805      1.0  0.47129  0.27230  0.05907  1.0000
  C   C827      1.0  0.47229  0.15133  0.01216  1.0000
  C   C828      1.0  0.49335  0.14503  0.01066  1.0000
  C   C829      1.0  0.50532  0.15254  0.01977  1.0000
  C   C830      1.0  0.49640  0.16641  0.03045  1.0000
  C   C831      1.0  0.47548  0.17349  0.03141  1.0000
  C   C832      1.0  0.46347  0.16593  0.02230  1.0000
  H   H806      1.0  0.50034  0.13379  0.00298  1.0000
  H   H807      1.0  0.52152  0.14709  0.01890  1.0000
  H   H808      1.0  0.46846  0.18423  0.03958  1.0000
  H   H809      1.0  0.44719  0.17096  0.02349  1.0000
  C   C833      1.0  0.58469  0.42987  0.98634  1.0000
  C   C834      1.0  0.56455  0.42534  0.98946  1.0000
  H   H810      1.0  0.55358  0.43309  0.99803  1.0000
  C   C835      1.0  0.49818  0.30615  0.99831  1.0000
  C   C836      1.0  0.49071  0.28801  0.00560  1.0000
  C   C837      1.0  0.49768  0.27707  0.01961  1.0000
  C   C838      1.0  0.51210  0.28429  0.02647  1.0000
  C   C839      1.0  0.52005  0.30210  0.01891  1.0000
  C   C840      1.0  0.51316  0.31299  0.00482  1.0000
  H   H811      1.0  0.47915  0.28263  0.00059  1.0000
  H   H812      1.0  0.49155  0.26333  0.02526  1.0000
  H   H813      1.0  0.53125  0.30774  0.02414  1.0000
  H   H814      1.0  0.51901  0.32696  0.99929  1.0000
  N   N68       1.0  0.35212  0.21049  0.11445  1.0000
  C   C841      1.0  0.35308  0.21140  0.13015  1.0000
  C   C842      1.0  0.36965  0.20697  0.10396  1.0000
  C   C843      1.0  0.37193  0.20882  0.13572  1.0000
  C   C844      1.0  0.38876  0.20416  0.10916  1.0000
  C   C845      1.0  0.38985  0.20509  0.12515  1.0000
  H   H815      1.0  0.40268  0.20201  0.10074  1.0000
  S   S282      1.0  0.35674  0.48312  0.97637  1.0000
  Fe  Fe142     1.0  0.35937  0.99012  0.97976  1.0000
  Fe  Fe143     1.0  0.49996  0.08034  0.97852  1.0000
  C   C846      1.0  0.33209  0.21318  0.10905  1.0000
  H   H816      1.0  0.43169  0.05332  0.98630  1.0000
  H   H817      1.0  0.63057  0.21908  0.18124  1.0000
  C   C847      1.0  0.37335  0.27523  0.21531  1.0000
  C   C848      1.0  0.65089  0.22795  0.21282  1.0000
  C   C849      1.0  0.34331  0.03017  0.01265  1.0000
  C   C850      1.0  0.33359  0.01942  0.02641  1.0000
  C   C851      1.0  0.37471  0.27837  0.19860  1.0000
  H   H818      1.0  0.53706  0.25181  0.10536  1.0000
  C   C852      1.0  0.42180  0.04818  0.97948  1.0000
  N   N69       1.0  0.45891  0.29818  0.04394  1.0000
  C   C853      1.0  0.64694  0.13677  0.10500  1.0000
  C   C854      1.0  0.47240  0.31060  0.04569  1.0000
  H   H819      1.0  0.33327  0.21323  0.09595  1.0000
  C   C855      1.0  0.51456  0.08877  0.02716  1.0000
  C   C856      1.0  0.56101  0.03511  0.98843  1.0000
  C   C857      1.0  0.45025  0.32023  0.02016  1.0000
  H   H820      1.0  0.40459  0.20366  0.12920  1.0000
  C   C858      1.0  0.58409  0.24950  0.07277  1.0000
  H   H821      1.0  0.33919  0.21434  0.13842  1.0000
  N   N70       1.0  0.58659  0.24642  0.08858  1.0000
  C   C859      1.0  0.40949  0.03315  0.98675  1.0000
  C   C860      1.0  0.60727  0.24244  0.09294  1.0000
  C   C861      1.0  0.51672  0.10133  0.03810  1.0000
  C   C862      1.0  0.32865  0.30641  0.21596  1.0000
  C   C863      1.0  0.56453  0.25371  0.06826  1.0000
  H   H822      1.0  0.61426  0.25672  0.09038  1.0000
  H   H823      1.0  0.61696  0.23064  0.08617  1.0000
  H   H824      1.0  0.44208  0.32350  0.00988  1.0000
  C   C864      1.0  0.45631  0.27990  0.05568  1.0000
  H   H825      1.0  0.45072  0.12917  0.04153  1.0000
  C   C865      1.0  0.59876  0.41962  0.97533  1.0000
  H   H826      1.0  0.36559  0.26904  0.17818  1.0000
  H   H827      1.0  0.59144  0.01842  0.98622  1.0000
  H   H828      1.0  0.46696  0.34575  0.01259  1.0000
  S   S283      1.0  0.65341  0.45306  0.98871  1.0000
  S   S284      1.0  0.32539  0.24362  0.16472  1.0000
  H   H829      1.0  0.50123  0.12289  0.05367  1.0000
  C   C866      1.0  0.34347  0.04892  0.98540  1.0000
  C   C867      1.0  0.47528  0.32805  0.03459  1.0000
  C   C868      1.0  0.49938  0.11283  0.04542  1.0000
  H   H830      1.0  0.45573  0.11423  0.06050  1.0000
  H   H831      1.0  0.52780  0.07975  0.02132  1.0000
  C   C869      1.0  0.63675  0.22298  0.20437  1.0000
  S   S285      1.0  0.38084  0.00790  0.98820  1.0000
  S   S286      1.0  0.32812  0.00101  0.97245  1.0000
  H   H832      1.0  0.32305  0.22794  0.11194  1.0000
  H   H833      1.0  0.59724  0.24856  0.06356  1.0000
  H   H834      1.0  0.53236  0.25787  0.07669  1.0000
  C   C870      1.0  0.54756  0.25482  0.08004  1.0000
  C   C871      1.0  0.56998  0.24762  0.10021  1.0000
  H   H835      1.0  0.37266  0.21033  0.14804  1.0000
  H   H836      1.0  0.56243  0.25599  0.05574  1.0000
  H   H837      1.0  0.57188  0.24476  0.11276  1.0000
  H   H838      1.0  0.36900  0.20655  0.09145  1.0000
  H   H839      1.0  0.38325  0.28993  0.19151  1.0000
  H   H840      1.0  0.41006  0.02682  0.99916  1.0000
  H   H841      1.0  0.33759  0.31861  0.21114  1.0000
  H   H842      1.0  0.55947  0.03374  0.00133  1.0000
  C   C872      1.0  0.57911  0.02626  0.97988  1.0000
  C   C873      1.0  0.55023  0.25173  0.09611  1.0000
  C   C874      1.0  0.44768  0.30293  0.03152  1.0000
  S   S287      1.0  0.52370  0.05891  0.99143  1.0000
  H   H843      1.0  0.32347  0.20066  0.11528  1.0000
  H   H844      1.0  0.34757  0.03867  0.97602  1.0000
  H   H845      1.0  0.61432  0.42281  0.97290  1.0000
  H   H846      1.0  0.48665  0.33735  0.03560  1.0000
  H   H847      1.0  0.44979  0.26839  0.05082  1.0000
  C   C875      1.0  0.47822  0.09976  0.03103  1.0000
  C   C876      1.0  0.49521  0.08790  0.02365  1.0000
  H   H848      1.0  0.44606  0.28403  0.06659  1.0000
  H   H849      1.0  0.35926  0.03170  0.01208  1.0000
  C   C877      1.0  0.64761  0.17094  0.21915  1.0000
  S   S288      1.0  0.64482  0.20669  0.14712  1.0000
  Fe  Fe144     1.0  0.64562  0.18768  0.12760  1.0000
  C   C878      1.0  0.35269  0.24922  0.21705  1.0000
  S   S289      1.0  0.50466  0.37807  0.97445  1.0000
  C   C879      1.0  0.39656  0.02621  0.97809  1.0000
  H   H850      1.0  0.35787  0.05349  0.98755  1.0000
  H   H851      1.0  0.62274  0.21782  0.21069  1.0000
  S   S290      1.0  0.62286  0.48526  0.00923  1.0000
  H   H852      1.0  0.55160  0.09674  0.97799  1.0000
  S   S291      1.0  0.50305  0.11359  0.97523  1.0000
  H   H853      1.0  0.33361  0.06298  0.98086  1.0000
  H   H854      1.0  0.32760  0.34091  0.09496  1.0000
  S   S292      1.0  0.32567  0.29321  0.15621  1.0000
  H   H855      1.0  0.32402  0.35709  0.07639  1.0000
  H   H856      1.0  0.57934  0.07670  0.99224  1.0000
  C   C880      1.0  0.64832  0.11621  0.10325  1.0000
  H   H857      1.0  0.63297  0.14481  0.11078  1.0000
  C   C881      1.0  0.58123  0.07904  0.97927  1.0000
  H   H858      1.0  0.38084  0.28458  0.22108  1.0000
  H   H859      1.0  0.61076  0.06039  0.97675  1.0000
  Fe  Fe145     1.0  0.41387  0.06413  0.42669  1.0000
  S   S293      1.0  0.44701  0.05877  0.41689  1.0000
  S   S294      1.0  0.40199  0.07431  0.45101  1.0000
  Fe  Fe146     1.0  0.40023  0.05487  0.39623  1.0000
  S   S295      1.0  0.43286  0.04856  0.38437  1.0000
  S   S296      1.0  0.37343  0.05828  0.38190  1.0000
  Fe  Fe147     1.0  0.43934  0.03136  0.40831  1.0000
  S   S297      1.0  0.45991  0.00172  0.41524  1.0000
  Fe  Fe148     1.0  0.43787  0.07652  0.39394  1.0000
  S   S298      1.0  0.45817  0.09829  0.37833  1.0000
  S   S299      1.0  0.40636  0.03562  0.41961  1.0000
  S   S300      1.0  0.40511  0.08404  0.40427  1.0000
  H   H860      1.0  0.58829  0.13794  0.31318  1.0000
  C   C882      1.0  0.61836  0.38273  0.45563  1.0000
  C   C883      1.0  0.50161  0.47830  0.40893  1.0000
  Fe  Fe149     1.0  0.33995  0.27654  0.30298  1.0000
  S   S301      1.0  0.36323  0.25751  0.31810  1.0000
  S   S302      1.0  0.33820  0.30999  0.29321  1.0000
  Fe  Fe150     1.0  0.54634  0.41335  0.40730  1.0000
  S   S303      1.0  0.53140  0.38512  0.41570  1.0000
  S   S304      1.0  0.53017  0.44431  0.41345  1.0000
  Fe  Fe151     1.0  0.58931  0.38858  0.40111  1.0000
  S   S305      1.0  0.57709  0.35859  0.40957  1.0000
  S   S306      1.0  0.62411  0.38643  0.39592  1.0000
  Fe  Fe152     1.0  0.55167  0.37178  0.39509  1.0000
  S   S307      1.0  0.54105  0.35504  0.37726  1.0000
  Fe  Fe153     1.0  0.55795  0.37438  0.42940  1.0000
  S   S308      1.0  0.55248  0.36030  0.45551  1.0000
  S   S309      1.0  0.56494  0.40122  0.38544  1.0000
  S   S310      1.0  0.57200  0.40301  0.42201  1.0000
  H   H861      1.0  0.33203  0.36233  0.33668  1.0000
  N   N71       1.0  0.52055  0.42151  0.46321  1.0000
  S   S311      1.0  0.63320  0.20564  0.31853  1.0000
  Fe  Fe154     1.0  0.50099  0.25051  0.36702  1.0000
  S   S312      1.0  0.50531  0.25721  0.34016  1.0000
  S   S313      1.0  0.51056  0.26797  0.38487  1.0000
  Fe  Fe155     1.0  0.47771  0.21411  0.36717  1.0000
  S   S314      1.0  0.48049  0.21846  0.34036  1.0000
  S   S315      1.0  0.45849  0.19188  0.38369  1.0000
  Fe  Fe156     1.0  0.51298  0.22304  0.34086  1.0000
  S   S316      1.0  0.53747  0.20664  0.32374  1.0000
  Fe  Fe157     1.0  0.47251  0.25206  0.34194  1.0000
  S   S317      1.0  0.45075  0.27504  0.32764  1.0000
  S   S318      1.0  0.51070  0.21636  0.36770  1.0000
  S   S319      1.0  0.46770  0.24769  0.36877  1.0000
  C   C884      1.0  0.60652  0.20739  0.31888  1.0000
  C   C885      1.0  0.59321  0.21739  0.33058  1.0000
  C   C886      1.0  0.57193  0.21798  0.33187  1.0000
  C   C887      1.0  0.56381  0.20853  0.32144  1.0000
  C   C888      1.0  0.57711  0.19889  0.30953  1.0000
  C   C889      1.0  0.59837  0.19830  0.30825  1.0000
  H   H862      1.0  0.59937  0.22454  0.33882  1.0000
  H   H863      1.0  0.56185  0.22543  0.34109  1.0000
  H   H864      1.0  0.57093  0.19160  0.30139  1.0000
  H   H865      1.0  0.60842  0.19068  0.29912  1.0000
  H   H866      1.0  0.36891  0.35368  0.32667  1.0000
  H   H867      1.0  0.37700  0.10131  0.37469  1.0000
  C   C890      1.0  0.53500  0.32969  0.37950  1.0000
  C   C891      1.0  0.53233  0.32174  0.36584  1.0000
  C   C892      1.0  0.52557  0.30258  0.36716  1.0000
  C   C893      1.0  0.52135  0.29110  0.38220  1.0000
  C   C894      1.0  0.52459  0.29878  0.39581  1.0000
  C   C895      1.0  0.53138  0.31792  0.39449  1.0000
  H   H868      1.0  0.53518  0.33065  0.35417  1.0000
  H   H869      1.0  0.52331  0.29686  0.35657  1.0000
  H   H870      1.0  0.52145  0.29002  0.40750  1.0000
  H   H871      1.0  0.53335  0.32377  0.40510  1.0000
  C   C896      1.0  0.51079  0.45982  0.40341  1.0000
  C   C897      1.0  0.50440  0.45426  0.39019  1.0000
  C   C898      1.0  0.41773  0.07158  0.46617  1.0000
  H   H872      1.0  0.51139  0.44010  0.38582  1.0000
  H   H873      1.0  0.54858  0.16971  0.34860  1.0000
  H   H874      1.0  0.62327  0.39637  0.45812  1.0000
  C   C899      1.0  0.63868  0.40676  0.38909  1.0000
  C   C900      1.0  0.62974  0.42653  0.38363  1.0000
  C   C901      1.0  0.34110  0.04880  0.36975  1.0000
  C   C902      1.0  0.32703  0.03628  0.36769  1.0000
  H   H875      1.0  0.61333  0.42999  0.38414  1.0000
  N   N72       1.0  0.60362  0.35186  0.46506  1.0000
  H   H876      1.0  0.44185  0.13313  0.32957  1.0000
  H   H877      1.0  0.59916  0.33495  0.44716  1.0000
  C   C903      1.0  0.61050  0.36873  0.46818  1.0000
  H   H878      1.0  0.56943  0.39767  0.45473  1.0000
  H   H879      1.0  0.41264  0.15047  0.36004  1.0000
  C   C904      1.0  0.38808  0.26214  0.31967  1.0000
  C   C905      1.0  0.39605  0.27957  0.31148  1.0000
  C   C906      1.0  0.41533  0.28324  0.31393  1.0000
  C   C907      1.0  0.42691  0.26946  0.32444  1.0000
  C   C908      1.0  0.41901  0.25193  0.33247  1.0000
  C   C909      1.0  0.39968  0.24836  0.33013  1.0000
  H   H880      1.0  0.38733  0.29027  0.30335  1.0000
  H   H881      1.0  0.42137  0.29677  0.30759  1.0000
  H   H882      1.0  0.42771  0.24122  0.34061  1.0000
  H   H883      1.0  0.39364  0.23488  0.33657  1.0000
  H   H884      1.0  0.43707  0.48051  0.36211  1.0000
  C   C910      1.0  0.43395  0.11238  0.43779  1.0000
  H   H885      1.0  0.62352  0.14083  0.30850  1.0000
  C   C911      1.0  0.35964  0.34160  0.33110  1.0000
  C   C912      1.0  0.45726  0.12462  0.37937  1.0000
  C   C913      1.0  0.47298  0.13491  0.37047  1.0000
  C   C914      1.0  0.47306  0.15579  0.37105  1.0000
  C   C915      1.0  0.45746  0.16655  0.38067  1.0000
  C   C916      1.0  0.44146  0.15638  0.38926  1.0000
  C   C917      1.0  0.44133  0.13550  0.38862  1.0000
  H   H886      1.0  0.48532  0.12662  0.36321  1.0000
  H   H887      1.0  0.48547  0.16343  0.36441  1.0000
  H   H888      1.0  0.42935  0.16461  0.39674  1.0000
  H   H889      1.0  0.42907  0.12780  0.39543  1.0000
  C   C918      1.0  0.40581  0.09442  0.35997  1.0000
  H   H890      1.0  0.64797  0.22664  0.22577  1.0000
  H   H891      1.0  0.64456  0.37495  0.36056  1.0000
  C   C919      1.0  0.35605  0.04163  0.37994  1.0000
  C   C920      1.0  0.35667  0.02168  0.38811  1.0000
  C   C921      1.0  0.34258  0.00914  0.38605  1.0000
  C   C922      1.0  0.61958  0.37912  0.43988  1.0000
  C   C923      1.0  0.39059  0.10722  0.36820  1.0000
  H   H892      1.0  0.36802  0.01590  0.39599  1.0000
  C   C924      1.0  0.46514  0.15410  0.42030  1.0000
  C   C925      1.0  0.60485  0.34817  0.44965  1.0000
  C   C926      1.0  0.41087  0.47542  0.35244  1.0000
  C   C927      1.0  0.43872  0.06503  0.46323  1.0000
  N   N73       1.0  0.42561  0.12205  0.35182  1.0000
  H   H893      1.0  0.34331  0.99373  0.39238  1.0000
  H   H894      1.0  0.44551  0.06068  0.45172  1.0000
  H   H895      1.0  0.46196  0.99987  0.38102  1.0000
  C   C928      1.0  0.32713  0.33072  0.34208  1.0000
  H   H896      1.0  0.43704  0.15178  0.43611  1.0000
  H   H897      1.0  0.62550  0.38986  0.42996  1.0000
  S   S320      1.0  0.65135  0.16868  0.28383  1.0000
  H   H898      1.0  0.62965  0.40983  0.34957  1.0000
  H   H899      1.0  0.40408  0.07856  0.36007  1.0000
  H   H900      1.0  0.34379  0.23798  0.22416  1.0000
  H   H901      1.0  0.44607  0.14438  0.34633  1.0000
  H   H902      1.0  0.45759  0.11877  0.34411  1.0000
  H   H903      1.0  0.32647  0.39257  0.29933  1.0000
  C   C929      1.0  0.58084  0.16851  0.34868  1.0000
  C   C930      1.0  0.44970  0.14351  0.42907  1.0000
  C   C931      1.0  0.35599  0.30579  0.33674  1.0000
  C   C932      1.0  0.42334  0.10212  0.35182  1.0000
  C   C933      1.0  0.56456  0.39185  0.46698  1.0000
  N   N74       1.0  0.45026  0.12313  0.42844  1.0000
  N   N75       1.0  0.60289  0.15126  0.32843  1.0000
  C   C934      1.0  0.60038  0.16202  0.34106  1.0000
  H   H904      1.0  0.36262  0.27152  0.24645  1.0000
  S   S321      1.0  0.34133  0.47915  0.36521  1.0000
  C   C935      1.0  0.62354  0.14473  0.32064  1.0000
  H   H905      1.0  0.61350  0.16633  0.34489  1.0000
  C   C936      1.0  0.47617  0.98668  0.40186  1.0000
  H   H906      1.0  0.34043  0.06418  0.36335  1.0000
  H   H907      1.0  0.46421  0.17048  0.42017  1.0000
  H   H908      1.0  0.38360  0.47551  0.34210  1.0000
  H   H909      1.0  0.48431  0.46291  0.37217  1.0000
  C   C937      1.0  0.36175  0.25721  0.24172  1.0000
  C   C938      1.0  0.61295  0.36166  0.43687  1.0000
  C   C939      1.0  0.41078  0.13471  0.35991  1.0000
  C   C940      1.0  0.39310  0.12746  0.36829  1.0000
  N   N76       1.0  0.47559  0.31637  0.36104  1.0000
  C   C941      1.0  0.47210  0.30686  0.37644  1.0000
  C   C942      1.0  0.48232  0.33501  0.35789  1.0000
  C   C943      1.0  0.47523  0.31609  0.38919  1.0000
  C   C944      1.0  0.48566  0.34465  0.37036  1.0000
  C   C945      1.0  0.48214  0.33506  0.38609  1.0000
  C   C946      1.0  0.47318  0.30624  0.34767  1.0000
  H   H910      1.0  0.46773  0.29165  0.37894  1.0000
  H   H911      1.0  0.48577  0.34219  0.34565  1.0000
  H   H912      1.0  0.47340  0.30800  0.40129  1.0000
  H   H913      1.0  0.49196  0.35894  0.36782  1.0000
  H   H914      1.0  0.48566  0.34190  0.39577  1.0000
  H   H915      1.0  0.48833  0.30162  0.34082  1.0000
  H   H916      1.0  0.46583  0.29225  0.35182  1.0000
  H   H917      1.0  0.46341  0.31653  0.33952  1.0000
  H   H918      1.0  0.43320  0.09798  0.43319  1.0000
  H   H919      1.0  0.43650  0.10850  0.45051  1.0000
  H   H920      1.0  0.57883  0.17787  0.35819  1.0000
  H   H921      1.0  0.50653  0.48274  0.41911  1.0000
  C   C947      1.0  0.36830  0.32112  0.33123  1.0000
  H   H922      1.0  0.37470  0.24551  0.24507  1.0000
  H   H923      1.0  0.54110  0.46222  0.46865  1.0000
  H   H924      1.0  0.46667  0.09655  0.41897  1.0000
  C   C948      1.0  0.64610  0.40570  0.34869  1.0000
  H   H925      1.0  0.43526  0.09197  0.34567  1.0000
  C   C949      1.0  0.64211  0.44175  0.37702  1.0000
  S   S322      1.0  0.33269  0.26752  0.28063  1.0000
  C   C950      1.0  0.46624  0.11268  0.41958  1.0000
  C   C951      1.0  0.65450  0.38607  0.35483  1.0000
  H   H926      1.0  0.49292  0.15191  0.40369  1.0000
  C   C952      1.0  0.56385  0.16387  0.34333  1.0000
  S   S323      1.0  0.33710  0.31142  0.24536  1.0000
  C   C953      1.0  0.48905  0.46722  0.38248  1.0000
  C   C954      1.0  0.39449  0.48462  0.34438  1.0000
  H   H927      1.0  0.55336  0.14971  0.32598  1.0000
  H   H928      1.0  0.63092  0.13101  0.32789  1.0000
  C   C955      1.0  0.32770  0.01631  0.37580  1.0000
  C   C956      1.0  0.52947  0.43893  0.45950  1.0000
  C   C957      1.0  0.33897  0.34646  0.33671  1.0000
  C   C958      1.0  0.56655  0.15273  0.33054  1.0000
  C   C959      1.0  0.58632  0.14636  0.32325  1.0000
  H   H929      1.0  0.63506  0.45690  0.37255  1.0000
  H   H930      1.0  0.32958  0.28026  0.34217  1.0000
  C   C960      1.0  0.44363  0.13002  0.34245  1.0000
  H   H931      1.0  0.38146  0.13743  0.37484  1.0000
  H   H932      1.0  0.34720  0.25195  0.24775  1.0000
  Fe  Fe158     1.0  0.32792  0.30102  0.27172  1.0000
  H   H933      1.0  0.61389  0.35872  0.42466  1.0000
  H   H934      1.0  0.41876  0.12185  0.43719  1.0000
  H   H935      1.0  0.53386  0.44506  0.44707  1.0000
  H   H936      1.0  0.63297  0.15723  0.31913  1.0000
  C   C961      1.0  0.48196  0.12278  0.41070  1.0000
  C   C962      1.0  0.48132  0.14365  0.41103  1.0000
  H   H937      1.0  0.49414  0.11462  0.40316  1.0000
  H   H938      1.0  0.38440  0.31707  0.32704  1.0000
  H   H939      1.0  0.64946  0.17368  0.24370  1.0000
  H   H940      1.0  0.36281  0.28992  0.33694  1.0000
  C   C963      1.0  0.32568  0.30006  0.23254  1.0000
  H   H941      1.0  0.50412  0.42014  0.44431  1.0000
  C   C964      1.0  0.51703  0.41128  0.45025  1.0000
  C   C965      1.0  0.47327  0.98805  0.38589  1.0000
  H   H942      1.0  0.53083  0.41023  0.44115  1.0000
  H   H943      1.0  0.41303  0.45902  0.35621  1.0000
  H   H944      1.0  0.51396  0.39534  0.45454  1.0000
  N   N77       1.0  0.36235  0.26085  0.22429  1.0000
  H   H945      1.0  0.65251  0.43579  0.33786  1.0000
  N   N78       1.0  0.33559  0.31073  0.34170  1.0000
  C   C966      1.0  0.55552  0.37404  0.47070  1.0000
  H   H946      1.0  0.63295  0.16554  0.22200  1.0000
  H   H947      1.0  0.37443  0.48546  0.37988  1.0000
  C   C967      1.0  0.32288  0.29451  0.34738  1.0000
  C   C968      1.0  0.51848  0.42333  0.49125  1.0000
  Fe  Fe159     1.0  0.61305  0.24958  0.70937  1.0000
  H   H948      1.0  0.48423  0.27405  0.58878  1.0000
  S   S324      1.0  0.59599  0.25598  0.68764  1.0000
  Fe  Fe160     1.0  0.48313  0.23173  0.63689  1.0000
  S   S325      1.0  0.49579  0.19935  0.64518  1.0000
  S   S326      1.0  0.45725  0.25063  0.65073  1.0000
  Fe  Fe161     1.0  0.51743  0.23657  0.60945  1.0000
  S   S327      1.0  0.53291  0.20426  0.61570  1.0000
  S   S328      1.0  0.53106  0.25767  0.58822  1.0000
  Fe  Fe162     1.0  0.50140  0.19505  0.61907  1.0000
  S   S329      1.0  0.49655  0.16358  0.61387  1.0000
  Fe  Fe163     1.0  0.52597  0.21089  0.64111  1.0000
  S   S330      1.0  0.54701  0.19966  0.65998  1.0000
  S   S331      1.0  0.48634  0.22707  0.61104  1.0000
  S   S332      1.0  0.51296  0.24363  0.63455  1.0000
  Fe  Fe164     1.0  0.45350  0.09552  0.55852  1.0000
  S   S333      1.0  0.45079  0.06765  0.57690  1.0000
  S   S334      1.0  0.45898  0.12748  0.56203  1.0000
  Fe  Fe165     1.0  0.45031  0.07140  0.53107  1.0000
  S   S335      1.0  0.44716  0.04211  0.54780  1.0000
  S   S336      1.0  0.45901  0.06966  0.50445  1.0000
  Fe  Fe166     1.0  0.42585  0.06201  0.56398  1.0000
  S   S337      1.0  0.39856  0.05054  0.58046  1.0000
  Fe  Fe167     1.0  0.47204  0.05002  0.55915  1.0000
  S   S338      1.0  0.50025  0.02846  0.56560  1.0000
  S   S339      1.0  0.42716  0.09112  0.54646  1.0000
  S   S340      1.0  0.47658  0.07811  0.54166  1.0000
  Fe  Fe168     1.0  0.54886  0.37773  0.56984  1.0000
  S   S341      1.0  0.57830  0.37914  0.55287  1.0000
  S   S342      1.0  0.53752  0.35157  0.58814  1.0000
  Fe  Fe169     1.0  0.53698  0.42440  0.56454  1.0000
  S   S343      1.0  0.56542  0.42940  0.54754  1.0000
  S   S344      1.0  0.51305  0.44959  0.57371  1.0000
  Fe  Fe170     1.0  0.55956  0.40255  0.53698  1.0000
  S   S345      1.0  0.56525  0.40918  0.50982  1.0000
  Fe  Fe171     1.0  0.58216  0.40594  0.56445  1.0000
  S   S346      1.0  0.61367  0.40683  0.57084  1.0000
  S   S347      1.0  0.52968  0.39923  0.55297  1.0000
  S   S348      1.0  0.55418  0.40297  0.58245  1.0000
  C   C969      1.0  0.49854  0.46664  0.56041  1.0000
  H   H949      1.0  0.60617  0.47817  0.58136  1.0000
  H   H950      1.0  0.47698  0.47844  0.57946  1.0000
  H   H951      1.0  0.48863  0.24627  0.67266  1.0000
  C   C970      1.0  0.35779  0.12481  0.72133  1.0000
  H   H952      1.0  0.61766  0.38948  0.62196  1.0000
  H   H953      1.0  0.36451  0.03368  0.59950  1.0000
  N   N79       1.0  0.48204  0.32189  0.59768  1.0000
  C   C971      1.0  0.56179  0.39472  0.49530  1.0000
  C   C972      1.0  0.45105  0.06441  0.47515  1.0000
  C   C973      1.0  0.55265  0.37692  0.49914  1.0000
  H   H954      1.0  0.33505  0.02029  0.59280  1.0000
  H   H955      1.0  0.54790  0.37121  0.51154  1.0000
  C   C974      1.0  0.62238  0.42900  0.57438  1.0000
  C   C975      1.0  0.60924  0.44732  0.57596  1.0000
  C   C976      1.0  0.61648  0.46411  0.58001  1.0000
  C   C977      1.0  0.63685  0.46270  0.58258  1.0000
  C   C978      1.0  0.41575  0.99968  0.57454  1.0000
  H   H956      1.0  0.59344  0.44846  0.57427  1.0000
  C   C979      1.0  0.44234  0.00932  0.58701  1.0000
  H   H957      1.0  0.59033  0.27159  0.62752  1.0000
  C   C980      1.0  0.50569  0.00441  0.55867  1.0000
  C   C981      1.0  0.46168  0.00573  0.59183  1.0000
  H   H958      1.0  0.46195  0.29743  0.63319  1.0000
  H   H959      1.0  0.43254  0.02358  0.58893  1.0000
  H   H960      1.0  0.38052  0.17039  0.69503  1.0000
  H   H961      1.0  0.47829  0.00789  0.54794  1.0000
  H   H962      1.0  0.49611  0.99351  0.49624  1.0000
  H   H963      1.0  0.63188  0.39246  0.60200  1.0000
  C   C982      1.0  0.44251  0.06992  0.49024  1.0000
  C   C983      1.0  0.42146  0.07604  0.49333  1.0000
  H   H964      1.0  0.41471  0.08040  0.50487  1.0000
  C   C984      1.0  0.37754  0.04170  0.57497  1.0000
  C   C985      1.0  0.36295  0.03379  0.58710  1.0000
  C   C986      1.0  0.35856  0.03427  0.55523  1.0000
  C   C987      1.0  0.37535  0.04177  0.55899  1.0000
  H   H965      1.0  0.35689  0.03460  0.54283  1.0000
  H   H966      1.0  0.38645  0.04779  0.54953  1.0000
  C   C988      1.0  0.53411  0.28340  0.58856  1.0000
  C   C989      1.0  0.52919  0.29232  0.60262  1.0000
  C   C990      1.0  0.53100  0.31304  0.60228  1.0000
  C   C991      1.0  0.53769  0.32510  0.58793  1.0000
  C   C992      1.0  0.54286  0.31613  0.57390  1.0000
  C   C993      1.0  0.54111  0.29535  0.57424  1.0000
  H   H967      1.0  0.52361  0.28343  0.61369  1.0000
  H   H968      1.0  0.52687  0.31989  0.61318  1.0000
  H   H969      1.0  0.54794  0.32525  0.56276  1.0000
  H   H970      1.0  0.54497  0.28858  0.56330  1.0000
  C   C994      1.0  0.48372  0.15455  0.60026  1.0000
  C   C995      1.0  0.48110  0.13376  0.60269  1.0000
  C   C996      1.0  0.47278  0.12535  0.59152  1.0000
  C   C997      1.0  0.46696  0.13765  0.57767  1.0000
  C   C998      1.0  0.46896  0.15859  0.57551  1.0000
  C   C999      1.0  0.47731  0.16699  0.58667  1.0000
  H   H971      1.0  0.48585  0.12399  0.61320  1.0000
  H   H972      1.0  0.47125  0.10928  0.59346  1.0000
  H   H973      1.0  0.46438  0.16833  0.56493  1.0000
  H   H974      1.0  0.47910  0.18300  0.58460  1.0000
  C   C1000     1.0  0.58010  0.24045  0.68216  1.0000
  C   C1001     1.0  0.58197  0.21937  0.68723  1.0000
  C   C1002     1.0  0.57114  0.20715  0.68075  1.0000
  C   C1003     1.0  0.55830  0.21589  0.66923  1.0000
  C   C1004     1.0  0.55576  0.23709  0.66467  1.0000
  C   C1005     1.0  0.56667  0.24927  0.67109  1.0000
  H   H975      1.0  0.59234  0.21239  0.69567  1.0000
  H   H976      1.0  0.57319  0.19076  0.68434  1.0000
  H   H977      1.0  0.54599  0.24403  0.65582  1.0000
  H   H978      1.0  0.56519  0.26557  0.66709  1.0000
  C   C1006     1.0  0.41648  0.21551  0.69031  1.0000
  C   C1007     1.0  0.41611  0.23656  0.68979  1.0000
  C   C1008     1.0  0.42843  0.24731  0.67745  1.0000
  C   C1009     1.0  0.44138  0.23702  0.66576  1.0000
  C   C1010     1.0  0.44173  0.21600  0.66633  1.0000
  C   C1011     1.0  0.42921  0.20533  0.67848  1.0000
  H   H979      1.0  0.40631  0.24453  0.69886  1.0000
  H   H980      1.0  0.42802  0.26361  0.67703  1.0000
  H   H981      1.0  0.45141  0.20797  0.65726  1.0000
  H   H982      1.0  0.42955  0.18906  0.67879  1.0000
  N   N80       1.0  0.51439  0.12393  0.56371  1.0000
  C   C1012     1.0  0.50901  0.10658  0.56008  1.0000
  C   C1013     1.0  0.52235  0.12347  0.57752  1.0000
  C   C1014     1.0  0.51106  0.08824  0.57059  1.0000
  C   C1015     1.0  0.52461  0.10539  0.58831  1.0000
  C   C1016     1.0  0.51887  0.08770  0.58481  1.0000
  C   C1017     1.0  0.51213  0.14292  0.55247  1.0000
  H   H983      1.0  0.50244  0.10708  0.54924  1.0000
  H   H984      1.0  0.50631  0.07462  0.56785  1.0000
  H   H985      1.0  0.53026  0.10532  0.59950  1.0000
  H   H986      1.0  0.52020  0.07366  0.59318  1.0000
  H   H987      1.0  0.49790  0.14448  0.54699  1.0000
  H   H988      1.0  0.51074  0.15657  0.55864  1.0000
  H   H989      1.0  0.52542  0.14300  0.54288  1.0000
  C   C1018     1.0  0.56775  0.40207  0.47919  1.0000
  C   C1019     1.0  0.51483  0.41380  0.47883  1.0000
  H   H990      1.0  0.46398  0.24041  0.69868  1.0000
  S   S349      1.0  0.64733  0.24404  0.70828  1.0000
  C   C1020     1.0  0.54953  0.36661  0.48684  1.0000
  C   C1021     1.0  0.56936  0.25027  0.61407  1.0000
  H   H991      1.0  0.39294  0.08213  0.48366  1.0000
  H   H992      1.0  0.60937  0.37178  0.48039  1.0000
  C   C1022     1.0  0.40916  0.07701  0.48128  1.0000
  C   C1023     1.0  0.64283  0.42772  0.57669  1.0000
  C   C1024     1.0  0.65435  0.40530  0.62100  1.0000
  C   C1025     1.0  0.47359  0.31900  0.61341  1.0000
  H   H993      1.0  0.53176  0.44774  0.49717  1.0000
  C   C1026     1.0  0.48654  0.34227  0.59024  1.0000
  H   H994      1.0  0.60749  0.32387  0.48067  1.0000
  C   C1027     1.0  0.64020  0.44625  0.62306  1.0000
  H   H995      1.0  0.50691  0.19307  0.67950  1.0000
  N   N81       1.0  0.58365  0.24210  0.62560  1.0000
  C   C1028     1.0  0.58639  0.22162  0.63121  1.0000
  C   C1029     1.0  0.59313  0.25526  0.63149  1.0000
  C   C1030     1.0  0.59940  0.21376  0.64266  1.0000
  C   C1031     1.0  0.60613  0.24793  0.64303  1.0000
  C   C1032     1.0  0.60929  0.22703  0.64860  1.0000
  H   H996      1.0  0.49459  0.04774  0.51723  1.0000
  H   H997      1.0  0.57807  0.21129  0.62721  1.0000
  H   H998      1.0  0.57492  0.26307  0.60537  1.0000
  H   H999      1.0  0.60100  0.19762  0.64745  1.0000
  H   H1000     1.0  0.61305  0.25842  0.64817  1.0000
  H   H1001     1.0  0.61869  0.22131  0.65802  1.0000
  H   H1002     1.0  0.56727  0.23845  0.60698  1.0000
  H   H1003     1.0  0.52651  0.03228  0.52835  1.0000
  C   C1033     1.0  0.48130  0.18313  0.69563  1.0000
  N   N82       1.0  0.48656  0.21825  0.68816  1.0000
  C   C1034     1.0  0.46914  0.22430  0.69798  1.0000
  C   C1035     1.0  0.49292  0.19793  0.68711  1.0000
  C   C1036     1.0  0.49345  0.48329  0.53366  1.0000
  C   C1037     1.0  0.45741  0.20986  0.70694  1.0000
  C   C1038     1.0  0.50435  0.46833  0.54386  1.0000
  H   H1004     1.0  0.50639  0.24009  0.68725  1.0000
  H   H1005     1.0  0.61370  0.44074  0.61436  1.0000
  C   C1039     1.0  0.36453  0.14482  0.69541  1.0000
  H   H1006     1.0  0.51478  0.41674  0.50364  1.0000
  H   H1007     1.0  0.47931  0.02826  0.50116  1.0000
  C   C1040     1.0  0.50199  0.03262  0.51490  1.0000
  C   C1041     1.0  0.49337  0.02161  0.50592  1.0000
  H   H1008     1.0  0.57475  0.41588  0.47614  1.0000
  H   H1009     1.0  0.51050  0.22723  0.66992  1.0000
  C   C1042     1.0  0.47219  0.28367  0.61174  1.0000
  C   C1043     1.0  0.47445  0.98751  0.58935  1.0000
  H   H1010     1.0  0.54253  0.35279  0.48984  1.0000
  C   C1044     1.0  0.37524  0.15350  0.71870  1.0000
  N   N83       1.0  0.63555  0.41371  0.61691  1.0000
  H   H1011     1.0  0.60941  0.40984  0.60682  1.0000
  C   C1045     1.0  0.62300  0.40074  0.61176  1.0000
  H   H1012     1.0  0.59036  0.34428  0.48939  1.0000
  H   H1013     1.0  0.49807  0.48461  0.52086  1.0000
  C   C1046     1.0  0.52370  0.99130  0.56173  1.0000
  C   C1047     1.0  0.34390  0.02646  0.56737  1.0000
  S   S350      1.0  0.40222  0.20102  0.70589  1.0000
  H   H1014     1.0  0.63477  0.46241  0.62334  1.0000
  H   H1015     1.0  0.46694  0.01725  0.59708  1.0000
  C   C1048     1.0  0.50293  0.00200  0.50320  1.0000
  C   C1049     1.0  0.59558  0.33718  0.47827  1.0000
  H   H1016     1.0  0.49259  0.30821  0.57641  1.0000
  C   C1050     1.0  0.52920  0.00438  0.51804  1.0000
  C   C1051     1.0  0.49215  0.99801  0.55040  1.0000
  H   H1017     1.0  0.55427  0.25597  0.62047  1.0000
  C   C1052     1.0  0.52807  0.44079  0.48759  1.0000
  C   C1053     1.0  0.34624  0.02616  0.58335  1.0000
  H   H1018     1.0  0.34343  0.28501  0.71910  1.0000
  C   C1054     1.0  0.48083  0.28672  0.59572  1.0000
  C   C1055     1.0  0.37413  0.15745  0.70229  1.0000
  H   H1019     1.0  0.45394  0.17800  0.71199  1.0000
  H   H1020     1.0  0.51742  0.45830  0.53896  1.0000
  C   C1056     1.0  0.46858  0.29984  0.62069  1.0000
  C   C1057     1.0  0.49862  0.23374  0.67908  1.0000
  H   H1021     1.0  0.49357  0.34946  0.59841  1.0000
  H   H1022     1.0  0.47077  0.33154  0.62043  1.0000
  C   C1058     1.0  0.48162  0.47978  0.56666  1.0000
  H   H1023     1.0  0.46830  0.26879  0.61728  1.0000
  C   C1059     1.0  0.35636  0.12833  0.70496  1.0000
  H   H1024     1.0  0.47236  0.35224  0.58720  1.0000
  C   C1060     1.0  0.52003  0.02401  0.52099  1.0000
  H   H1025     1.0  0.52624  0.13730  0.58059  1.0000
  H   H1026     1.0  0.49778  0.34156  0.57917  1.0000
  H   H1027     1.0  0.58205  0.33176  0.47527  1.0000
  C   C1061     1.0  0.48556  0.30609  0.58880  1.0000
  H   H1028     1.0  0.36321  0.14792  0.68275  1.0000
  H   H1029     1.0  0.34828  0.11875  0.69988  1.0000
  S   S351      1.0  0.64489  0.48368  0.58875  1.0000
  H   H1030     1.0  0.41545  0.01260  0.56456  1.0000
  C   C1062     1.0  0.62838  0.43390  0.61794  1.0000
  H   H1031     1.0  0.50802  0.39983  0.48178  1.0000
  N   N84       1.0  0.43595  0.99523  0.57977  1.0000
  H   H1032     1.0  0.41139  0.98634  0.57043  1.0000
  H   H1033     1.0  0.48609  0.16710  0.69441  1.0000
  H   H1034     1.0  0.46732  0.05967  0.47265  1.0000
  N   N85       1.0  0.52051  0.99358  0.50936  1.0000
  H   H1035     1.0  0.40392  0.00420  0.58455  1.0000
  H   H1036     1.0  0.65307  0.41357  0.57552  1.0000
  H   H1037     1.0  0.32718  0.31460  0.70156  1.0000
  C   C1063     1.0  0.46339  0.18920  0.70555  1.0000
  H   H1038     1.0  0.54298  0.99763  0.52311  1.0000
  H   H1039     1.0  0.44333  0.21472  0.71446  1.0000
  H   H1040     1.0  0.53426  0.99612  0.56814  1.0000
  C   C1064     1.0  0.65003  0.44444  0.58080  1.0000
  H   H1041     1.0  0.64031  0.35331  0.71743  1.0000
  S   S352      1.0  0.32286  0.01755  0.56196  1.0000
  C   C1065     1.0  0.53348  0.44876  0.47162  1.0000
  Fe  Fe172     1.0  0.48362  0.26668  0.86387  1.0000
  S   S353      1.0  0.50340  0.23650  0.86940  1.0000
  S   S354      1.0  0.47467  0.28891  0.88237  1.0000
  Fe  Fe173     1.0  0.46943  0.25254  0.83512  1.0000
  S   S355      1.0  0.48760  0.22137  0.83923  1.0000
  S   S356      1.0  0.45159  0.26310  0.81399  1.0000
  Fe  Fe174     1.0  0.47703  0.22231  0.86544  1.0000
  S   S357      1.0  0.46256  0.19786  0.88301  1.0000
  Fe  Fe175     1.0  0.51239  0.23844  0.84260  1.0000
  S   S358      1.0  0.54414  0.22701  0.83079  1.0000
  S   S359      1.0  0.45665  0.25224  0.86105  1.0000
  S   S360      1.0  0.49474  0.26984  0.83727  1.0000
  C   C1066     1.0  0.59275  0.40499  0.96761  1.0000
  S   S361      1.0  0.53155  0.34357  0.95276  1.0000
  Fe  Fe176     1.0  0.49056  0.39176  0.95222  1.0000
  S   S362      1.0  0.52047  0.39039  0.93596  1.0000
  S   S363      1.0  0.47019  0.42232  0.94909  1.0000
  Fe  Fe177     1.0  0.51504  0.35934  0.93237  1.0000
  S   S364      1.0  0.52234  0.34894  0.90781  1.0000
  Fe  Fe178     1.0  0.53440  0.37503  0.95775  1.0000
  H   H1042     1.0  0.53712  0.30504  0.92851  1.0000
  S   S365      1.0  0.48404  0.36207  0.94677  1.0000
  C   C1067     1.0  0.56542  0.03902  0.95514  1.0000
  C   C1068     1.0  0.59458  0.46366  0.94743  1.0000
  H   H1043     1.0  0.38221  0.12298  0.74755  1.0000
  Fe  Fe179     1.0  0.49287  0.11507  0.95135  1.0000
  H   H1044     1.0  0.51075  0.24303  0.91507  1.0000
  S   S366      1.0  0.51066  0.13032  0.92913  1.0000
  H   H1045     1.0  0.35079  0.11235  0.72873  1.0000
  H   H1046     1.0  0.48658  0.41483  0.89432  1.0000
  H   H1047     1.0  0.58277  0.41300  0.93291  1.0000
  H   H1048     1.0  0.54399  0.11811  0.95204  1.0000
  S   S367      1.0  0.49270  0.08120  0.95374  1.0000
  H   H1049     1.0  0.33027  0.17957  0.72740  1.0000
  S   S368      1.0  0.38540  0.18879  0.74880  1.0000
  Fe  Fe180     1.0  0.35519  0.24307  0.74716  1.0000
  S   S369      1.0  0.35423  0.21975  0.76928  1.0000
  Fe  Fe181     1.0  0.38814  0.21333  0.76298  1.0000
  S   S370      1.0  0.40863  0.20498  0.78251  1.0000
  Fe  Fe182     1.0  0.35151  0.19740  0.75317  1.0000
  H   H1050     1.0  0.51327  0.30547  0.95404  1.0000
  S   S371      1.0  0.38965  0.23788  0.74169  1.0000
  Fe  Fe183     1.0  0.60627  0.25536  0.74486  1.0000
  H   H1051     1.0  0.43865  0.45652  0.94615  1.0000
  S   S372      1.0  0.58048  0.26917  0.76241  1.0000
  H   H1052     1.0  0.41896  0.36993  0.91964  1.0000
  C   C1069     1.0  0.64292  0.35773  0.74137  1.0000
  H   H1053     1.0  0.46613  0.30925  0.91001  1.0000
  S   S373      1.0  0.63987  0.25015  0.74661  1.0000
  H   H1054     1.0  0.48773  0.25971  0.91032  1.0000
  H   H1055     1.0  0.64479  0.35694  0.76634  1.0000
  H   H1056     1.0  0.55579  0.10916  0.93377  1.0000
  H   H1057     1.0  0.48792  0.41387  0.91540  1.0000
  H   H1058     1.0  0.65168  0.37033  0.73752  1.0000
  H   H1059     1.0  0.40073  0.45969  0.95120  1.0000
  N   N86       1.0  0.50656  0.27213  0.92294  1.0000
  C   C1070     1.0  0.45027  0.36734  0.90832  1.0000
  H   H1060     1.0  0.53520  0.05645  0.95737  1.0000
  H   H1061     1.0  0.45025  0.35267  0.90449  1.0000
  C   C1071     1.0  0.40044  0.42760  0.95926  1.0000
  C   C1072     1.0  0.55966  0.46506  0.96013  1.0000
  H   H1062     1.0  0.61391  0.06428  0.94717  1.0000
  H   H1063     1.0  0.35461  0.12698  0.75202  1.0000
  H   H1064     1.0  0.60424  0.30528  0.76874  1.0000
  C   C1073     1.0  0.43296  0.39602  0.92140  1.0000
  H   H1065     1.0  0.64085  0.14874  0.72916  1.0000
  C   C1074     1.0  0.43273  0.37704  0.91676  1.0000
  H   H1066     1.0  0.62375  0.29197  0.75547  1.0000
  N   N87       1.0  0.36683  0.13754  0.72804  1.0000
  H   H1067     1.0  0.56712  0.04065  0.94222  1.0000
  H   H1068     1.0  0.54735  0.47092  0.96882  1.0000
  C   C1075     1.0  0.49558  0.28438  0.94830  1.0000
  H   H1069     1.0  0.55583  0.41957  0.93657  1.0000
  H   H1070     1.0  0.48095  0.26332  0.93929  1.0000
  C   C1076     1.0  0.39596  0.03453  0.96205  1.0000
  S   S374      1.0  0.60462  0.01895  0.95198  1.0000
  C   C1077     1.0  0.59148  0.44859  0.93890  1.0000
  C   C1078     1.0  0.46793  0.37669  0.90486  1.0000
  Fe  Fe184     1.0  0.64377  0.26996  0.72283  1.0000
  C   C1079     1.0  0.44341  0.42401  0.95374  1.0000
  H   H1071     1.0  0.62616  0.32715  0.77492  1.0000
  C   C1080     1.0  0.45087  0.40492  0.91769  1.0000
  Fe  Fe185     1.0  0.50074  0.34788  0.96761  1.0000
  C   C1081     1.0  0.40994  0.44496  0.95362  1.0000
  C   C1082     1.0  0.43136  0.44313  0.95082  1.0000
  N   N88       1.0  0.46816  0.39503  0.90983  1.0000
  H   H1072     1.0  0.53275  0.28337  0.90888  1.0000
  C   C1083     1.0  0.42117  0.05657  0.96347  1.0000
  C   C1084     1.0  0.58145  0.02830  0.96319  1.0000
  C   C1085     1.0  0.44167  0.24626  0.80432  1.0000
  C   C1086     1.0  0.44214  0.22552  0.81037  1.0000
  C   C1087     1.0  0.43254  0.21297  0.80317  1.0000
  C   C1088     1.0  0.42233  0.22100  0.78991  1.0000
  C   C1089     1.0  0.42243  0.24160  0.78353  1.0000
  C   C1090     1.0  0.43211  0.25415  0.79070  1.0000
  H   H1073     1.0  0.44940  0.21925  0.82085  1.0000
  H   H1074     1.0  0.43257  0.19703  0.80815  1.0000
  H   H1075     1.0  0.41479  0.24792  0.77326  1.0000
  H   H1076     1.0  0.43176  0.27017  0.78590  1.0000
  C   C1091     1.0  0.47713  0.18195  0.89682  1.0000
  C   C1092     1.0  0.46724  0.17437  0.91182  1.0000
  C   C1093     1.0  0.47762  0.15910  0.92211  1.0000
  C   C1094     1.0  0.49798  0.15130  0.91745  1.0000
  C   C1095     1.0  0.50815  0.15950  0.90273  1.0000
  C   C1096     1.0  0.49777  0.17484  0.89245  1.0000
  H   H1077     1.0  0.45130  0.17989  0.91530  1.0000
  H   H1078     1.0  0.46969  0.15309  0.93347  1.0000
  H   H1079     1.0  0.52395  0.15363  0.89908  1.0000
  H   H1080     1.0  0.50550  0.18057  0.88088  1.0000
  C   C1097     1.0  0.55480  0.23930  0.81216  1.0000
  C   C1098     1.0  0.57184  0.22900  0.80335  1.0000
  C   C1099     1.0  0.58015  0.23801  0.78816  1.0000
  C   C1100     1.0  0.57166  0.25758  0.78182  1.0000
  C   C1101     1.0  0.55494  0.26806  0.79080  1.0000
  C   C1102     1.0  0.54638  0.25887  0.80582  1.0000
  H   H1081     1.0  0.57851  0.21389  0.80825  1.0000
  H   H1082     1.0  0.59308  0.22984  0.78137  1.0000
  H   H1083     1.0  0.54830  0.28322  0.78599  1.0000
  H   H1084     1.0  0.53336  0.26700  0.81251  1.0000
  C   C1103     1.0  0.48867  0.30502  0.88934  1.0000
  C   C1104     1.0  0.50738  0.30999  0.88118  1.0000
  C   C1105     1.0  0.51756  0.32341  0.88702  1.0000
  C   C1106     1.0  0.50938  0.33158  0.90122  1.0000
  C   C1107     1.0  0.49094  0.32616  0.90960  1.0000
  C   C1108     1.0  0.48054  0.31315  0.90357  1.0000
  H   H1085     1.0  0.51378  0.30388  0.87020  1.0000
  H   H1086     1.0  0.53182  0.32754  0.88044  1.0000
  H   H1087     1.0  0.48458  0.33214  0.92064  1.0000
  S   S375      1.0  0.45961  0.12219  0.96047  1.0000
  H   H1088     1.0  0.44309  0.39185  0.96169  1.0000
  N   N89       1.0  0.52003  0.23002  0.78954  1.0000
  C   C1109     1.0  0.53291  0.23530  0.77590  1.0000
  C   C1110     1.0  0.50274  0.24302  0.79392  1.0000
  C   C1111     1.0  0.52896  0.25432  0.76653  1.0000
  C   C1112     1.0  0.49837  0.26218  0.78487  1.0000
  C   C1113     1.0  0.51165  0.26788  0.77114  1.0000
  C   C1114     1.0  0.52432  0.20998  0.79916  1.0000
  H   H1089     1.0  0.54674  0.22512  0.77247  1.0000
  H   H1090     1.0  0.49231  0.23875  0.80457  1.0000
  H   H1091     1.0  0.53972  0.25877  0.75610  1.0000
  H   H1092     1.0  0.48483  0.27257  0.78863  1.0000
  H   H1093     1.0  0.50867  0.28285  0.76419  1.0000
  H   H1094     1.0  0.54098  0.20446  0.79810  1.0000
  H   H1095     1.0  0.51922  0.21093  0.81208  1.0000
  H   H1096     1.0  0.51639  0.19870  0.79538  1.0000
  C   C1115     1.0  0.61224  0.30588  0.75627  1.0000
  H   H1097     1.0  0.38262  0.16350  0.72392  1.0000
  H   H1098     1.0  0.45090  0.41972  0.92125  1.0000
  C   C1116     1.0  0.52499  0.29560  0.93110  1.0000
  C   C1117     1.0  0.62860  0.33329  0.76234  1.0000
  C   C1118     1.0  0.54737  0.04804  0.96368  1.0000
  C   C1119     1.0  0.60067  0.07216  0.95395  1.0000
  C   C1120     1.0  0.48673  0.40469  0.90595  1.0000
  H   H1099     1.0  0.48150  0.36914  0.89823  1.0000
  S   S376      1.0  0.34996  0.22104  0.73144  1.0000
  H   H1100     1.0  0.41938  0.40379  0.92790  1.0000
  C   C1121     1.0  0.52237  0.28337  0.92001  1.0000
  H   H1101     1.0  0.51162  0.26437  0.89914  1.0000
  H   H1102     1.0  0.38635  0.21523  0.82493  1.0000
  C   C1122     1.0  0.62624  0.33128  0.73527  1.0000
  H   H1103     1.0  0.40521  0.39499  0.96654  1.0000
  C   C1123     1.0  0.55708  0.44997  0.95140  1.0000
  C   C1124     1.0  0.63900  0.35022  0.75759  1.0000
  N   N90       1.0  0.57295  0.44186  0.94103  1.0000
  H   H1104     1.0  0.40756  0.05608  0.94242  1.0000
  H   H1105     1.0  0.62221  0.32334  0.72640  1.0000
  N   N91       1.0  0.37405  0.25811  0.79940  1.0000
  C   C1125     1.0  0.37503  0.23813  0.80637  1.0000
  C   C1126     1.0  0.38310  0.27157  0.80533  1.0000
  C   C1127     1.0  0.38498  0.23125  0.81982  1.0000
  C   C1128     1.0  0.39323  0.26518  0.81874  1.0000
  H   H1106     1.0  0.36062  0.28155  0.78232  1.0000
  C   C1129     1.0  0.36438  0.26464  0.78488  1.0000
  H   H1107     1.0  0.36877  0.22720  0.80121  1.0000
  H   H1108     1.0  0.38301  0.28721  0.79947  1.0000
  H   H1109     1.0  0.40110  0.27563  0.82307  1.0000
  C   C1130     1.0  0.43394  0.40666  0.95947  1.0000
  Fe  Fe186     1.0  0.62916  0.99801  0.96448  1.0000
  C   C1131     1.0  0.51149  0.29605  0.94533  1.0000
  H   H1110     1.0  0.37469  0.25914  0.77443  1.0000
  H   H1111     1.0  0.34981  0.25834  0.78607  1.0000
  N   N92       1.0  0.46975  0.11732  0.90646  1.0000
  C   C1132     1.0  0.46343  0.13407  0.89602  1.0000
  C   C1133     1.0  0.45659  0.11032  0.91938  1.0000
  C   C1134     1.0  0.44366  0.14468  0.89867  1.0000
  C   C1135     1.0  0.43674  0.12059  0.92243  1.0000
  C   C1136     1.0  0.43031  0.13795  0.91205  1.0000
  C   C1137     1.0  0.49045  0.10629  0.90339  1.0000
  H   H1112     1.0  0.47390  0.13981  0.88587  1.0000
  H   H1113     1.0  0.46143  0.09684  0.92753  1.0000
  H   H1114     1.0  0.43907  0.15849  0.89071  1.0000
  H   H1115     1.0  0.42653  0.11511  0.93289  1.0000
  H   H1116     1.0  0.41508  0.14627  0.91443  1.0000
  H   H1117     1.0  0.49073  0.09469  0.89544  1.0000
  H   H1118     1.0  0.50139  0.11704  0.89777  1.0000
  H   H1119     1.0  0.49595  0.09857  0.91474  1.0000
  C   C1138     1.0  0.49336  0.27237  0.93692  1.0000
  C   C1139     1.0  0.41250  0.40847  0.96218  1.0000
  H   H1120     1.0  0.50061  0.39298  0.90519  1.0000
  H   H1121     1.0  0.48506  0.28476  0.95937  1.0000
  Fe  Fe187     1.0  0.45978  0.08802  0.96459  1.0000
  H   H1122     1.0  0.60383  0.39699  0.95925  1.0000
  N   N93       1.0  0.62218  0.32421  0.75122  1.0000
  S   S377      1.0  0.61016  0.27702  0.72197  1.0000
  Fe  Fe188     1.0  0.35430  0.46047  0.96030  1.0000
  C   C1140     1.0  0.39414  0.24488  0.82600  1.0000
  C   C1141     1.0  0.50413  0.25911  0.91136  1.0000
  H   H1123     1.0  0.38606  0.02938  0.95525  1.0000
  C   C1142     1.0  0.40817  0.04968  0.95482  1.0000
  C   C1143     1.0  0.65208  0.13598  0.73298  1.0000
  C   C1144     1.0  0.58479  0.08364  0.94620  1.0000
  S   S378      1.0  0.60708  0.22815  0.73228  1.0000
  H   H1124     1.0  0.54252  0.44433  0.95338  1.0000
  S   S379      1.0  0.37361  0.42919  0.96228  1.0000
  S   S380      1.0  0.56571  0.38282  0.95982  1.0000
  H   H1125     1.0  0.60413  0.44199  0.93083  1.0000
  H   H1126     1.0  0.40265  0.23957  0.83601  1.0000
  Fe  Fe189     1.0  0.38436  0.21372  0.72781  1.0000
  H   H1127     1.0  0.56993  0.43249  0.91911  1.0000
  C   C1145     1.0  0.57019  0.42607  0.93188  1.0000
  C   C1146     1.0  0.55078  0.10407  0.94663  1.0000
  S   S381      1.0  0.35506  0.48289  0.93757  1.0000
  H   H1128     1.0  0.60945  0.46857  0.94602  1.0000
  S   S382      1.0  0.43600  0.07590  0.95388  1.0000
  H   H1129     1.0  0.60054  0.30546  0.74856  1.0000
  C   C1147     1.0  0.33076  0.29538  0.72411  1.0000
  C   C1148     1.0  0.63651  0.34823  0.73011  1.0000
  H   H1130     1.0  0.65207  0.14573  0.75573  1.0000
  S   S383      1.0  0.33023  0.17360  0.76198  1.0000
  N   N94       1.0  0.56766  0.09276  0.95480  1.0000
  C   C1149     1.0  0.36813  0.13361  0.74523  1.0000
  H   H1131     1.0  0.36816  0.14806  0.75003  1.0000
  C   C1150     1.0  0.57854  0.47187  0.95815  1.0000
  H   H1132     1.0  0.53869  0.09432  0.94749  1.0000
  H   H1133     1.0  0.58087  0.48306  0.96527  1.0000
  S   S384      1.0  0.33478  0.27193  0.75368  1.0000
  C   C1151     1.0  0.57254  0.40070  0.97054  1.0000
  C   C1152     1.0  0.32380  0.29242  0.74053  1.0000
  Fe  Fe190     1.0  0.64130  0.22446  0.73207  1.0000
  H   H1134     1.0  0.58608  0.08477  0.93330  1.0000
  H   H1135     1.0  0.55653  0.98629  0.96295  1.0000
  C   C1153     1.0  0.59886  0.06990  0.97059  1.0000
  C   C1154     1.0  0.56561  0.09036  0.97114  1.0000
  Fe  Fe191     1.0  0.51502  0.70957  0.10566  1.0000
  S   S385      1.0  0.48675  0.73206  0.11076  1.0000
  S   S386      1.0  0.53736  0.69868  0.12386  1.0000
  Fe  Fe192     1.0  0.50114  0.69917  0.07546  1.0000
  S   S387      1.0  0.47189  0.72062  0.07895  1.0000
  S   S388      1.0  0.50830  0.68601  0.05179  1.0000
  Fe  Fe193     1.0  0.49085  0.74252  0.08422  1.0000
  S   S389      1.0  0.48090  0.77548  0.07427  1.0000
  Fe  Fe194     1.0  0.47020  0.70840  0.10507  1.0000
  S   S390      1.0  0.44020  0.70055  0.11906  1.0000
  S   S391      1.0  0.52060  0.72196  0.07934  1.0000
  S   S392      1.0  0.49804  0.68496  0.10132  1.0000
  Fe  Fe195     1.0  0.51767  0.84029  0.99266  1.0000
  C   C1155     1.0  0.53299  0.59634  0.02965  1.0000
  S   S393      1.0  0.52961  0.81189  0.00873  1.0000
  H   H1136     1.0  0.40475  0.87910  0.98234  1.0000
  H   H1137     1.0  0.40151  0.74304  0.12051  1.0000
  S   S394      1.0  0.32358  0.95236  0.97391  1.0000
  C   C1156     1.0  0.52917  0.92942  0.99027  1.0000
  C   C1157     1.0  0.54830  0.53569  0.01840  1.0000
  S   S395      1.0  0.51796  0.87264  0.99674  1.0000
  Fe  Fe196     1.0  0.47479  0.60229  0.00859  1.0000
  S   S396      1.0  0.49636  0.60943  0.98614  1.0000
  S   S397      1.0  0.47906  0.60792  0.03332  1.0000
  Fe  Fe197     1.0  0.44795  0.58155  0.99119  1.0000
  S   S398      1.0  0.37228  0.91311  0.98291  1.0000
  S   S399      1.0  0.42321  0.56072  0.99652  1.0000
  Fe  Fe198     1.0  0.49399  0.57796  0.98117  1.0000
  H   H1138     1.0  0.59983  0.77358  0.13272  1.0000
  C   C1158     1.0  0.58380  0.54389  0.98365  1.0000
  S   S400      1.0  0.47470  0.56996  0.00450  1.0000
  S   S401      1.0  0.44608  0.61324  0.99755  1.0000
  Fe  Fe199     1.0  0.38653  0.71566  0.20742  1.0000
  H   H1139     1.0  0.55228  0.52042  0.01504  1.0000
  S   S402      1.0  0.41536  0.72073  0.19005  1.0000
  H   H1140     1.0  0.49165  0.70446  0.18199  1.0000
  C   C1159     1.0  0.52823  0.54559  0.01896  1.0000
  C   C1160     1.0  0.49858  0.69241  0.15956  1.0000
  C   C1161     1.0  0.57170  0.56319  0.98346  1.0000
  H   H1141     1.0  0.39420  0.93988  0.99491  1.0000
  S   S403      1.0  0.35395  0.71564  0.20393  1.0000
  Fe  Fe200     1.0  0.63229  0.75333  0.19747  1.0000
  H   H1142     1.0  0.35907  0.55143  0.01720  1.0000
  Fe  Fe201     1.0  0.59639  0.74143  0.18381  1.0000
  S   S404      1.0  0.58671  0.72165  0.20672  1.0000
  S   S405      1.0  0.57845  0.75103  0.16260  1.0000
  H   H1143     1.0  0.46258  0.54279  0.97593  1.0000
  Fe  Fe202     1.0  0.62044  0.71062  0.20677  1.0000
  S   S406      1.0  0.59991  0.76761  0.19620  1.0000
  S   S407      1.0  0.62979  0.72879  0.18296  1.0000
  C   C1162     1.0  0.41185  0.75237  0.12329  1.0000
  Fe  Fe203     1.0  0.62715  0.50892  0.98764  1.0000
  S   S408      1.0  0.60902  0.54068  0.98811  1.0000
  N   N95       1.0  0.62534  0.76733  0.14557  1.0000
  S   S409      1.0  0.34816  0.96627  0.99962  1.0000
  C   C1163     1.0  0.35193  0.56999  0.97893  1.0000
  H   H1144     1.0  0.57315  0.88287  0.98974  1.0000
  H   H1145     1.0  0.52440  0.92768  0.97877  1.0000
  H   H1146     1.0  0.48599  0.70210  0.97836  1.0000
  C   C1164     1.0  0.41026  0.89150  0.98622  1.0000
  C   C1165     1.0  0.40426  0.92574  0.99327  1.0000
  S   S410      1.0  0.62457  0.92623  0.99211  1.0000
  H   H1147     1.0  0.64891  0.76457  0.16017  1.0000
  C   C1166     1.0  0.41086  0.55234  0.98253  1.0000
  C   C1167     1.0  0.48690  0.69534  0.17428  1.0000
  H   H1148     1.0  0.57813  0.57609  0.98560  1.0000
  C   C1168     1.0  0.40047  0.53531  0.98747  1.0000
  C   C1169     1.0  0.55823  0.56584  0.02519  1.0000
  H   H1149     1.0  0.40061  0.52737  0.99953  1.0000
  H   H1150     1.0  0.58430  0.51229  0.98143  1.0000
  C   C1170     1.0  0.35334  0.55278  0.00589  1.0000
  H   H1151     1.0  0.64645  0.73954  0.14454  1.0000
  C   C1171     1.0  0.42460  0.92346  0.99612  1.0000
  H   H1152     1.0  0.53624  0.91392  0.99519  1.0000
  H   H1153     1.0  0.44688  0.49209  0.99029  1.0000
  H   H1154     1.0  0.52492  0.60623  0.02019  1.0000
  H   H1155     1.0  0.35390  0.60525  0.19689  1.0000
  C   C1172     1.0  0.61196  0.80540  0.15556  1.0000
  S   S411      1.0  0.63176  0.67669  0.21206  1.0000
  H   H1156     1.0  0.42952  0.73684  0.09608  1.0000
  C   C1173     1.0  0.55729  0.94254  0.99843  1.0000
  C   C1174     1.0  0.54315  0.95974  0.97533  1.0000
  C   C1175     1.0  0.42875  0.75364  0.09568  1.0000
  H   H1157     1.0  0.54201  0.58066  0.98061  1.0000
  S   S412      1.0  0.46400  0.90443  0.99536  1.0000
  H   H1158     1.0  0.38178  0.51548  0.98095  1.0000
  H   H1159     1.0  0.43006  0.93588  0.00001  1.0000
  C   C1176     1.0  0.52354  0.56551  0.02283  1.0000
  H   H1160     1.0  0.50790  0.57311  0.02335  1.0000
  H   H1161     1.0  0.45859  0.52403  0.99288  1.0000
  H   H1162     1.0  0.32526  0.52992  0.98704  1.0000
  C   C1177     1.0  0.43303  0.70653  0.13868  1.0000
  C   C1178     1.0  0.44496  0.71712  0.14537  1.0000
  C   C1179     1.0  0.43895  0.72177  0.16100  1.0000
  C   C1180     1.0  0.42115  0.71561  0.17017  1.0000
  C   C1181     1.0  0.40908  0.70512  0.16348  1.0000
  C   C1182     1.0  0.41501  0.70063  0.14773  1.0000
  H   H1163     1.0  0.45884  0.72172  0.13858  1.0000
  H   H1164     1.0  0.44832  0.72994  0.16612  1.0000
  H   H1165     1.0  0.39531  0.70032  0.17048  1.0000
  H   H1166     1.0  0.40566  0.69245  0.14260  1.0000
  C   C1183     1.0  0.54835  0.71359  0.13465  1.0000
  C   C1184     1.0  0.56039  0.70355  0.14643  1.0000
  C   C1185     1.0  0.56947  0.71472  0.15527  1.0000
  C   C1186     1.0  0.56671  0.73610  0.15236  1.0000
  C   C1187     1.0  0.55462  0.74613  0.14062  1.0000
  C   C1188     1.0  0.54539  0.73498  0.13188  1.0000
  H   H1167     1.0  0.56282  0.68701  0.14866  1.0000
  H   H1168     1.0  0.57877  0.70676  0.16421  1.0000
  H   H1169     1.0  0.55235  0.76266  0.13826  1.0000
  H   H1170     1.0  0.53618  0.74292  0.12288  1.0000
  C   C1189     1.0  0.51649  0.80321  0.02759  1.0000
  C   C1190     1.0  0.49741  0.81314  0.03355  1.0000
  C   C1191     1.0  0.48684  0.80481  0.04813  1.0000
  C   C1192     1.0  0.49519  0.78645  0.05671  1.0000
  C   C1193     1.0  0.51444  0.77678  0.05089  1.0000
  C   C1194     1.0  0.52507  0.78519  0.03643  1.0000
  H   H1171     1.0  0.49072  0.82709  0.02686  1.0000
  H   H1172     1.0  0.47201  0.81247  0.05262  1.0000
  H   H1173     1.0  0.52116  0.76283  0.05752  1.0000
  H   H1174     1.0  0.53991  0.77755  0.03195  1.0000
  C   C1195     1.0  0.49885  0.66487  0.04688  1.0000
  C   C1196     1.0  0.50117  0.66188  0.03074  1.0000
  C   C1197     1.0  0.49455  0.64493  0.02633  1.0000
  C   C1198     1.0  0.48588  0.63053  0.03808  1.0000
  C   C1199     1.0  0.48363  0.63349  0.05421  1.0000
  C   C1200     1.0  0.48986  0.65066  0.05859  1.0000
  H   H1175     1.0  0.50821  0.67271  0.02160  1.0000
  H   H1176     1.0  0.49650  0.64281  0.01389  1.0000
  H   H1177     1.0  0.47702  0.62241  0.06341  1.0000
  H   H1178     1.0  0.48807  0.65267  0.07105  1.0000
  Fe  Fe204     1.0  0.63794  0.95549  0.98225  1.0000
  N   N96       1.0  0.49973  0.75441  0.02375  1.0000
  C   C1201     1.0  0.50920  0.76276  0.00934  1.0000
  C   C1202     1.0  0.48056  0.76284  0.02972  1.0000
  C   C1203     1.0  0.49957  0.78020  0.00063  1.0000
  C   C1204     1.0  0.47053  0.78033  0.02134  1.0000
  C   C1205     1.0  0.48017  0.78908  0.00673  1.0000
  C   C1206     1.0  0.51019  0.73614  0.03263  1.0000
  H   H1179     1.0  0.52458  0.75641  0.00479  1.0000
  H   H1180     1.0  0.47321  0.75647  0.04128  1.0000
  H   H1181     1.0  0.50753  0.78737  0.98959  1.0000
  H   H1182     1.0  0.45568  0.78744  0.02640  1.0000
  H   H1183     1.0  0.47290  0.80304  0.00035  1.0000
  H   H1184     1.0  0.52634  0.73778  0.03281  1.0000
  H   H1185     1.0  0.50304  0.73350  0.04532  1.0000
  H   H1186     1.0  0.50969  0.72238  0.02709  1.0000
  N   N97       1.0  0.47416  0.67293  0.15409  1.0000
  C   C1207     1.0  0.49201  0.68100  0.14959  1.0000
  C   C1208     1.0  0.46283  0.67537  0.16865  1.0000
  C   C1209     1.0  0.46895  0.68669  0.17893  1.0000
  C   C1210     1.0  0.46757  0.66093  0.14353  1.0000
  H   H1187     1.0  0.50122  0.67883  0.13816  1.0000
  H   H1188     1.0  0.44855  0.66921  0.17218  1.0000
  H   H1189     1.0  0.45940  0.68935  0.19015  1.0000
  H   H1190     1.0  0.47435  0.64464  0.14596  1.0000
  H   H1191     1.0  0.45065  0.66212  0.14514  1.0000
  H   H1192     1.0  0.47219  0.66680  0.13075  1.0000
  Fe  Fe205     1.0  0.46763  0.61892  0.97469  1.0000
  H   H1193     1.0  0.58185  0.98297  0.98163  1.0000
  C   C1211     1.0  0.60519  0.91910  0.98333  1.0000
  H   H1194     1.0  0.63737  0.79838  0.16899  1.0000
  C   C1212     1.0  0.48476  0.68888  0.97243  1.0000
  Fe  Fe206     1.0  0.35525  0.94539  0.98078  1.0000
  N   N98       1.0  0.53848  0.57540  0.02577  1.0000
  C   C1213     1.0  0.39708  0.90983  0.98816  1.0000
  C   C1214     1.0  0.63145  0.74681  0.14094  1.0000
  H   H1195     1.0  0.61987  0.73684  0.14683  1.0000
  C   C1215     1.0  0.44372  0.49905  0.97843  1.0000
  H   H1196     1.0  0.51646  0.53806  0.01608  1.0000
  H   H1197     1.0  0.60649  0.82004  0.15974  1.0000
  C   C1216     1.0  0.56341  0.54582  0.02158  1.0000
  S   S413      1.0  0.48645  0.84643  0.98483  1.0000
  H   H1198     1.0  0.44265  0.75831  0.08792  1.0000
  H   H1199     1.0  0.45001  0.78340  0.13390  1.0000
  C   C1217     1.0  0.44071  0.76982  0.11554  1.0000
  H   H1200     1.0  0.58245  0.95477  0.00447  1.0000
  C   C1218     1.0  0.32673  0.65514  0.20187  1.0000
  C   C1219     1.0  0.42344  0.76851  0.14268  1.0000
  H   H1201     1.0  0.34363  0.52201  0.02677  1.0000
  C   C1220     1.0  0.40967  0.75728  0.13881  1.0000
  H   H1202     1.0  0.44102  0.87551  0.98663  1.0000
  H   H1203     1.0  0.58771  0.80745  0.14140  1.0000
  H   H1204     1.0  0.48797  0.67472  0.98100  1.0000
  H   H1205     1.0  0.41526  0.76158  0.09007  1.0000
  C   C1221     1.0  0.62926  0.79325  0.16077  1.0000
  H   H1206     1.0  0.52254  0.59642  0.04117  1.0000
  H   H1207     1.0  0.54653  0.60329  0.03070  1.0000
  C   C1222     1.0  0.33319  0.58459  0.20916  1.0000
  H   H1208     1.0  0.51260  0.69902  0.15580  1.0000
  H   H1209     1.0  0.45295  0.77478  0.10652  1.0000
  H   H1210     1.0  0.42217  0.77192  0.15481  1.0000
  N   N99       1.0  0.54371  0.94411  0.98783  1.0000
  H   H1211     1.0  0.33790  0.66481  0.19591  1.0000
  C   C1223     1.0  0.43079  0.88944  0.98863  1.0000
  C   C1224     1.0  0.43806  0.90553  0.99344  1.0000
  H   H1212     1.0  0.57019  0.57370  0.02729  1.0000
  Fe  Fe207     1.0  0.48816  0.87923  0.98673  1.0000
  C   C1225     1.0  0.58033  0.89600  0.98396  1.0000
  H   H1213     1.0  0.55787  0.93007  0.00826  1.0000
  S   S414      1.0  0.62524  0.73416  0.22125  1.0000
  C   C1226     1.0  0.60853  0.77929  0.14023  1.0000
  C   C1227     1.0  0.43910  0.77482  0.13100  1.0000
  H   H1214     1.0  0.48009  0.51921  0.97739  1.0000
  N   N100      1.0  0.42720  0.75867  0.11190  1.0000
  Fe  Fe208     1.0  0.59247  0.74680  0.21905  1.0000
  H   H1215     1.0  0.63255  0.74751  0.12778  1.0000
  C   C1228     1.0  0.59577  0.90206  0.99070  1.0000
  C   C1229     1.0  0.63574  0.77409  0.15569  1.0000
  C   C1230     1.0  0.33604  0.52261  0.01608  1.0000
  H   H1216     1.0  0.39780  0.75180  0.14795  1.0000
  C   C1231     1.0  0.57534  0.52728  0.98093  1.0000
  H   H1217     1.0  0.60037  0.89353  0.00173  1.0000
  H   H1218     1.0  0.57919  0.53846  0.02062  1.0000
  H   H1219     1.0  0.51542  0.93444  0.99859  1.0000
  C   C1232     1.0  0.60151  0.79842  0.14521  1.0000
  N   N101      1.0  0.34151  0.53913  0.00339  1.0000
  H   H1220     1.0  0.63163  0.79726  0.21130  1.0000
  C   C1233     1.0  0.55125  0.56579  0.98068  1.0000
  C   C1234     1.0  0.34629  0.59896  0.20837  1.0000
  H   H1221     1.0  0.65168  0.90180  0.18703  1.0000
  S   S415      1.0  0.51754  0.55161  0.97395  1.0000
  C   C1235     1.0  0.57115  0.95654  0.99641  1.0000
  C   C1236     1.0  0.54296  0.54917  0.97772  1.0000
  H   H1222     1.0  0.34054  0.50757  0.01160  1.0000
  C   C1237     1.0  0.64665  0.80163  0.21006  1.0000
  C   C1238     1.0  0.55511  0.52997  0.97777  1.0000
  H   H1223     1.0  0.54876  0.51703  0.97558  1.0000
  C   C1239     1.0  0.46381  0.52600  0.97977  1.0000
  H   H1224     1.0  0.33063  0.57960  0.19830  1.0000
  C   C1240     1.0  0.38973  0.52857  0.97698  1.0000
  C   C1241     1.0  0.57091  0.97230  0.98355  1.0000
  C   C1242     1.0  0.64961  0.81826  0.21718  1.0000
  C   C1243     1.0  0.35871  0.56842  0.99371  1.0000
  C   C1244     1.0  0.55676  0.97404  0.97298  1.0000
  C   C1245     1.0  0.33979  0.55608  0.97654  1.0000
  C   C1246     1.0  0.33462  0.54073  0.98900  1.0000
  S   S416      1.0  0.62414  0.98555  0.99050  1.0000
  H   H1225     1.0  0.36869  0.57877  0.99554  1.0000
  H   H1226     1.0  0.64589  0.89426  0.97161  1.0000
  S   S417      1.0  0.34309  0.71201  0.24331  1.0000
  Fe  Fe209     1.0  0.37656  0.71192  0.24372  1.0000
  S   S418      1.0  0.39150  0.70450  0.26645  1.0000
  S   S419      1.0  0.57052  0.76257  0.23770  1.0000
  Fe  Fe210     1.0  0.46156  0.74864  0.31192  1.0000
  S   S420      1.0  0.47592  0.71601  0.31677  1.0000
  S   S421      1.0  0.44015  0.76084  0.29356  1.0000
  Fe  Fe211     1.0  0.48334  0.76293  0.33654  1.0000
  S   S422      1.0  0.49928  0.73097  0.34331  1.0000
  S   S423      1.0  0.48181  0.79237  0.34745  1.0000
  Fe  Fe212     1.0  0.50448  0.72953  0.31671  1.0000
  S   S424      1.0  0.53364  0.71475  0.30323  1.0000
  Fe  Fe213     1.0  0.46938  0.72008  0.34270  1.0000
  S   S425      1.0  0.45149  0.69994  0.36222  1.0000
  S   S426      1.0  0.49047  0.76204  0.31001  1.0000
  S   S427      1.0  0.45298  0.75215  0.33782  1.0000
  Fe  Fe214     1.0  0.54185  0.86407  0.38756  1.0000
  S   S428      1.0  0.55386  0.88955  0.36974  1.0000
  S   S429      1.0  0.54133  0.83211  0.38108  1.0000
  Fe  Fe215     1.0  0.53912  0.88884  0.41572  1.0000
  S   S430      1.0  0.55104  0.91563  0.39982  1.0000
  S   S431      1.0  0.52732  0.89323  0.44155  1.0000
  Fe  Fe216     1.0  0.53008  0.91078  0.38338  1.0000
  S   S432      1.0  0.50948  0.93741  0.37167  1.0000
  Fe  Fe217     1.0  0.57369  0.89227  0.38786  1.0000
  S   S433      1.0  0.60799  0.89253  0.38240  1.0000
  S   S434      1.0  0.51665  0.88519  0.39987  1.0000
  S   S435      1.0  0.56330  0.86557  0.40506  1.0000
  Fe  Fe218     1.0  0.44110  0.57812  0.38387  1.0000
  S   S436      1.0  0.40979  0.58094  0.39849  1.0000
  S   S437      1.0  0.46024  0.60237  0.37032  1.0000
  Fe  Fe219     1.0  0.44498  0.53128  0.38665  1.0000
  S   S438      1.0  0.41429  0.53068  0.40134  1.0000
  H   H1227     1.0  0.63678  0.82651  0.22401  1.0000
  Fe  Fe220     1.0  0.40337  0.55765  0.38435  1.0000
  S   S439      1.0  0.37334  0.55985  0.37481  1.0000
  Fe  Fe221     1.0  0.42305  0.55349  0.41451  1.0000
  S   S440      1.0  0.41496  0.54389  0.44113  1.0000
  S   S441      1.0  0.43344  0.55696  0.36852  1.0000
  S   S442      1.0  0.45494  0.55203  0.40107  1.0000
  C   C1247     1.0  0.41218  0.55930  0.45642  1.0000
  C   C1248     1.0  0.41200  0.58049  0.45320  1.0000
  C   C1249     1.0  0.57542  0.87604  0.46669  1.0000
  H   H1228     1.0  0.41292  0.58809  0.44099  1.0000
  N   N102      1.0  0.50348  0.72716  0.26438  1.0000
  C   C1250     1.0  0.54332  0.88945  0.45658  1.0000
  C   C1251     1.0  0.56317  0.87891  0.45441  1.0000
  H   H1229     1.0  0.56888  0.87261  0.44342  1.0000
  C   C1252     1.0  0.64081  0.91340  0.37579  1.0000
  C   C1253     1.0  0.61942  0.91506  0.37831  1.0000
  C   C1254     1.0  0.60775  0.93446  0.37745  1.0000
  H   H1230     1.0  0.59642  0.87943  0.41987  1.0000
  H   H1231     1.0  0.59127  0.93591  0.37939  1.0000
  N   N103      1.0  0.45600  0.93878  0.40471  1.0000
  C   C1255     1.0  0.47042  0.92236  0.40833  1.0000
  H   H1232     1.0  0.33940  0.60460  0.24759  1.0000
  C   C1256     1.0  0.44903  0.94235  0.38899  1.0000
  H   H1233     1.0  0.47937  0.50545  0.40555  1.0000
  H   H1234     1.0  0.62317  0.87936  0.41570  1.0000
  H   H1235     1.0  0.65425  0.57657  0.24050  1.0000
  C   C1257     1.0  0.37429  0.51801  0.37759  1.0000
  C   C1258     1.0  0.36435  0.53740  0.37229  1.0000
  C   C1259     1.0  0.34667  0.53898  0.36510  1.0000
  C   C1260     1.0  0.51398  0.75299  0.24303  1.0000
  H   H1236     1.0  0.38789  0.51652  0.38314  1.0000
  N   N104      1.0  0.40462  0.51759  0.34360  1.0000
  S   S443      1.0  0.46082  0.50169  0.37789  1.0000
  H   H1237     1.0  0.59068  0.86767  0.46502  1.0000
  C   C1261     1.0  0.48438  0.97346  0.37641  1.0000
  C   C1262     1.0  0.50183  0.95663  0.39862  1.0000
  C   C1263     1.0  0.49828  0.95738  0.38289  1.0000
  C   C1264     1.0  0.62904  0.94444  0.33520  1.0000
  N   N105      1.0  0.46128  0.55444  0.45754  1.0000
  C   C1265     1.0  0.64961  0.60881  0.24241  1.0000
  H   H1238     1.0  0.51244  0.94434  0.40377  1.0000
  H   H1239     1.0  0.63730  0.91038  0.41300  1.0000
  H   H1240     1.0  0.43145  0.51784  0.35397  1.0000
  C   C1266     1.0  0.49932  0.80357  0.35574  1.0000
  C   C1267     1.0  0.49338  0.82341  0.35992  1.0000
  C   C1268     1.0  0.50614  0.83257  0.36736  1.0000
  C   C1269     1.0  0.52496  0.82185  0.37095  1.0000
  C   C1270     1.0  0.53085  0.80195  0.36683  1.0000
  C   C1271     1.0  0.51822  0.79290  0.35919  1.0000
  H   H1241     1.0  0.47878  0.83182  0.35738  1.0000
  H   H1242     1.0  0.50132  0.84783  0.37046  1.0000
  H   H1243     1.0  0.54537  0.79350  0.36955  1.0000
  H   H1244     1.0  0.52303  0.77763  0.35612  1.0000
  C   C1272     1.0  0.45362  0.67286  0.36393  1.0000
  C   C1273     1.0  0.46892  0.66148  0.35452  1.0000
  C   C1274     1.0  0.47052  0.63997  0.35659  1.0000
  C   C1275     1.0  0.45673  0.62957  0.36790  1.0000
  C   C1276     1.0  0.44114  0.64100  0.37708  1.0000
  C   C1277     1.0  0.43969  0.66253  0.37516  1.0000
  H   H1245     1.0  0.47977  0.66917  0.34585  1.0000
  H   H1246     1.0  0.48265  0.63128  0.34945  1.0000
  H   H1247     1.0  0.43045  0.63323  0.38585  1.0000
  H   H1248     1.0  0.42777  0.67118  0.38249  1.0000
  C   C1278     1.0  0.56041  0.74876  0.25566  1.0000
  C   C1279     1.0  0.56638  0.72773  0.25953  1.0000
  C   C1280     1.0  0.55817  0.71741  0.27423  1.0000
  C   C1281     1.0  0.54375  0.72800  0.28494  1.0000
  C   C1282     1.0  0.53776  0.74898  0.28093  1.0000
  C   C1283     1.0  0.54612  0.75932  0.26639  1.0000
  H   H1249     1.0  0.57743  0.71949  0.25129  1.0000
  H   H1250     1.0  0.56292  0.70117  0.27730  1.0000
  H   H1251     1.0  0.52701  0.75738  0.28916  1.0000
  H   H1252     1.0  0.54149  0.77561  0.26345  1.0000
  H   H1253     1.0  0.47245  0.77210  0.26749  1.0000
  C   C1284     1.0  0.40817  0.71990  0.27091  1.0000
  C   C1285     1.0  0.40549  0.74108  0.26630  1.0000
  C   C1286     1.0  0.41612  0.75342  0.27280  1.0000
  C   C1287     1.0  0.42953  0.74466  0.28387  1.0000
  C   C1288     1.0  0.43320  0.72339  0.28767  1.0000
  C   C1289     1.0  0.42249  0.71107  0.28124  1.0000
  H   H1254     1.0  0.39445  0.74804  0.25838  1.0000
  H   H1255     1.0  0.41332  0.76987  0.26970  1.0000
  H   H1256     1.0  0.44355  0.71643  0.29610  1.0000
  H   H1257     1.0  0.42470  0.69467  0.28478  1.0000
  N   N106      1.0  0.39101  0.72025  0.31314  1.0000
  C   C1290     1.0  0.39181  0.69966  0.31325  1.0000
  C   C1291     1.0  0.40307  0.72737  0.32179  1.0000
  C   C1292     1.0  0.40518  0.68562  0.32203  1.0000
  C   C1293     1.0  0.41651  0.71374  0.33076  1.0000
  C   C1294     1.0  0.41756  0.69275  0.33086  1.0000
  C   C1295     1.0  0.37657  0.73478  0.30423  1.0000
  H   H1258     1.0  0.38251  0.69404  0.30615  1.0000
  H   H1259     1.0  0.40270  0.74370  0.32149  1.0000
  H   H1260     1.0  0.40605  0.66932  0.32189  1.0000
  H   H1261     1.0  0.42615  0.71939  0.33753  1.0000
  H   H1262     1.0  0.42804  0.68207  0.33774  1.0000
  H   H1263     1.0  0.38324  0.74889  0.29889  1.0000
  H   H1264     1.0  0.37283  0.72823  0.29410  1.0000
  H   H1265     1.0  0.36227  0.73888  0.31228  1.0000
  H   H1266     1.0  0.46128  0.53089  0.44350  1.0000
  C   C1296     1.0  0.61747  0.95205  0.37393  1.0000
  H   H1267     1.0  0.46176  0.93779  0.37958  1.0000
  C   C1297     1.0  0.59932  0.95042  0.41613  1.0000
  H   H1268     1.0  0.52200  0.69842  0.27001  1.0000
  C   C1298     1.0  0.46113  0.53467  0.45538  1.0000
  H   H1269     1.0  0.34451  0.48950  0.41340  1.0000
  H   H1270     1.0  0.38070  0.52446  0.43236  1.0000
  C   C1299     1.0  0.58300  0.93952  0.42182  1.0000
  C   C1300     1.0  0.50596  0.70596  0.27235  1.0000
  S   S444      1.0  0.37852  0.73900  0.22450  1.0000
  C   C1301     1.0  0.39165  0.50586  0.33994  1.0000
  Fe  Fe222     1.0  0.35289  0.69049  0.22494  1.0000
  S   S445      1.0  0.38627  0.68862  0.22684  1.0000
  H   H1271     1.0  0.60835  0.96703  0.37316  1.0000
  C   C1302     1.0  0.45435  0.94837  0.43079  1.0000
  H   H1272     1.0  0.64696  0.88632  0.33785  1.0000
  C   C1303     1.0  0.46937  0.93191  0.43447  1.0000
  H   H1273     1.0  0.47879  0.57027  0.43797  1.0000
  C   C1304     1.0  0.46266  0.57035  0.44358  1.0000
  H   H1274     1.0  0.32566  0.52266  0.35728  1.0000
  H   H1275     1.0  0.45351  0.56774  0.43457  1.0000
  C   C1305     1.0  0.60922  0.88548  0.42339  1.0000
  H   H1276     1.0  0.60996  0.89933  0.34321  1.0000
  H   H1277     1.0  0.45642  0.58577  0.44691  1.0000
  N   N107      1.0  0.46515  0.76090  0.38158  1.0000
  C   C1306     1.0  0.46360  0.74095  0.38092  1.0000
  C   C1307     1.0  0.48274  0.76598  0.38496  1.0000
  C   C1308     1.0  0.48001  0.72550  0.38350  1.0000
  C   C1309     1.0  0.49955  0.75097  0.38738  1.0000
  C   C1310     1.0  0.49814  0.73060  0.38663  1.0000
  C   C1311     1.0  0.44769  0.77675  0.37878  1.0000
  H   H1278     1.0  0.44970  0.73689  0.37817  1.0000
  H   H1279     1.0  0.48407  0.78181  0.38539  1.0000
  H   H1280     1.0  0.47876  0.70973  0.38271  1.0000
  H   H1281     1.0  0.51364  0.75524  0.38958  1.0000
  H   H1282     1.0  0.51112  0.71881  0.38830  1.0000
  H   H1283     1.0  0.44272  0.77591  0.36717  1.0000
  H   H1284     1.0  0.43488  0.77476  0.38861  1.0000
  H   H1285     1.0  0.45173  0.79239  0.37788  1.0000
  N   N108      1.0  0.60669  0.77031  0.25975  1.0000
  C   C1312     1.0  0.61025  0.74968  0.26464  1.0000
  C   C1313     1.0  0.59241  0.78261  0.26859  1.0000
  C   C1314     1.0  0.59984  0.74096  0.27899  1.0000
  C   C1315     1.0  0.58173  0.77440  0.28301  1.0000
  C   C1316     1.0  0.58551  0.75344  0.28822  1.0000
  C   C1317     1.0  0.61731  0.77922  0.24450  1.0000
  H   H1286     1.0  0.62092  0.73981  0.25730  1.0000
  H   H1287     1.0  0.58902  0.79882  0.26439  1.0000
  H   H1288     1.0  0.60235  0.72456  0.28269  1.0000
  H   H1289     1.0  0.57020  0.78412  0.28989  1.0000
  H   H1290     1.0  0.57686  0.74676  0.29912  1.0000
  H   H1291     1.0  0.60739  0.78106  0.23501  1.0000
  H   H1292     1.0  0.62126  0.79442  0.24542  1.0000
  H   H1293     1.0  0.63184  0.76943  0.24074  1.0000
  C   C1318     1.0  0.47737  0.91872  0.42324  1.0000
  H   H1294     1.0  0.49320  0.97011  0.42037  1.0000
  C   C1319     1.0  0.48773  0.74095  0.27019  1.0000
  H   H1295     1.0  0.44848  0.95920  0.43917  1.0000
  C   C1320     1.0  0.51633  0.73284  0.25082  1.0000
  H   H1296     1.0  0.44368  0.95886  0.38544  1.0000
  H   H1297     1.0  0.41056  0.60827  0.46339  1.0000
  H   H1298     1.0  0.56759  0.94751  0.42412  1.0000
  H   H1299     1.0  0.62390  0.96071  0.33500  1.0000
  H   H1300     1.0  0.49571  0.69717  0.26819  1.0000
  C   C1321     1.0  0.36659  0.50040  0.37576  1.0000
  H   H1301     1.0  0.33883  0.55393  0.36099  1.0000
  C   C1322     1.0  0.61454  0.93098  0.33879  1.0000
  H   H1302     1.0  0.63447  0.61169  0.23886  1.0000
  C   C1323     1.0  0.63886  0.95039  0.37128  1.0000
  H   H1303     1.0  0.47730  0.73637  0.28074  1.0000
  H   H1304     1.0  0.59672  0.96701  0.41383  1.0000
  H   H1305     1.0  0.40561  0.54779  0.34800  1.0000
  N   N109      1.0  0.35863  0.54164  0.41813  1.0000
  C   C1324     1.0  0.49087  0.97126  0.40803  1.0000
  H   H1306     1.0  0.33578  0.55498  0.40339  1.0000
  C   C1325     1.0  0.33787  0.59852  0.23692  1.0000
  C   C1326     1.0  0.36365  0.50494  0.42395  1.0000
  H   H1307     1.0  0.37195  0.49093  0.42943  1.0000
  H   H1308     1.0  0.57382  0.90977  0.42870  1.0000
  C   C1327     1.0  0.36387  0.56152  0.41975  1.0000
  C   C1328     1.0  0.44768  0.95150  0.41581  1.0000
  C   C1329     1.0  0.48490  0.76121  0.26270  1.0000
  C   C1330     1.0  0.36858  0.52395  0.42550  1.0000
  S   S446      1.0  0.65022  0.97297  0.36642  1.0000
  H   H1309     1.0  0.59843  0.93675  0.34133  1.0000
  C   C1331     1.0  0.53582  0.89692  0.47115  1.0000
  H   H1310     1.0  0.52467  0.75759  0.23260  1.0000
  C   C1332     1.0  0.42096  0.50863  0.35121  1.0000
  C   C1333     1.0  0.33912  0.52130  0.36305  1.0000
  C   C1334     1.0  0.58661  0.91813  0.42431  1.0000
  H   H1311     1.0  0.64992  0.89842  0.37646  1.0000
  H   H1312     1.0  0.49632  0.78298  0.24326  1.0000
  H   H1313     1.0  0.36544  0.57125  0.40788  1.0000
  H   H1314     1.0  0.47513  0.92957  0.44586  1.0000
  H   H1315     1.0  0.43655  0.96478  0.41287  1.0000
  H   H1316     1.0  0.35180  0.56942  0.42803  1.0000
  H   H1317     1.0  0.33090  0.77375  0.24650  1.0000
  H   H1318     1.0  0.63176  0.94819  0.40850  1.0000
  H   H1319     1.0  0.52882  0.72194  0.24615  1.0000
  C   C1335     1.0  0.49820  0.76726  0.24908  1.0000
  C   C1336     1.0  0.34333  0.54099  0.40953  1.0000
  C   C1337     1.0  0.64180  0.90266  0.33693  1.0000
  C   C1338     1.0  0.34915  0.50193  0.36831  1.0000
  C   C1339     1.0  0.62203  0.91847  0.41572  1.0000
  H   H1320     1.0  0.48926  0.90607  0.42595  1.0000
  H   H1321     1.0  0.38509  0.54569  0.33796  1.0000
  H   H1322     1.0  0.48166  0.97420  0.36420  1.0000
  C   C1340     1.0  0.45995  0.51919  0.46850  1.0000
  N   N110      1.0  0.60586  0.90790  0.42091  1.0000
  C   C1341     1.0  0.42427  0.48745  0.35582  1.0000
  H   H1323     1.0  0.37863  0.55990  0.42445  1.0000
  C   C1342     1.0  0.62101  0.90996  0.33980  1.0000
  N   N111      1.0  0.64943  0.93712  0.33266  1.0000
  H   H1324     1.0  0.41083  0.54394  0.32721  1.0000
  C   C1343     1.0  0.40143  0.53981  0.33886  1.0000
  H   H1325     1.0  0.50234  0.70541  0.28555  1.0000
  C   C1344     1.0  0.65053  0.93099  0.37230  1.0000
  H   H1326     1.0  0.61054  0.87969  0.43615  1.0000
  H   H1327     1.0  0.64965  0.64015  0.24495  1.0000
  C   C1345     1.0  0.61900  0.93987  0.41320  1.0000
  H   H1328     1.0  0.47711  0.91242  0.39946  1.0000
  S   S447      1.0  0.33629  0.66242  0.23066  1.0000
  H   H1329     1.0  0.37854  0.51292  0.33407  1.0000
  H   H1330     1.0  0.43643  0.93345  0.38921  1.0000
  C   C1346     1.0  0.34820  0.50413  0.41506  1.0000
  C   C1347     1.0  0.34882  0.60585  0.22235  1.0000
  C   C1348     1.0  0.41069  0.59187  0.46590  1.0000
  C   C1349     1.0  0.33784  0.52226  0.40790  1.0000
  C   C1350     1.0  0.48623  0.49121  0.40127  1.0000
  Fe  Fe223     1.0  0.34590  0.73711  0.22253  1.0000
  N   N112      1.0  0.32478  0.58469  0.23754  1.0000
  H   H1331     1.0  0.32622  0.52176  0.40058  1.0000
  H   H1332     1.0  0.45925  0.50366  0.46677  1.0000
  C   C1351     1.0  0.65588  0.91655  0.33327  1.0000
  H   H1333     1.0  0.35837  0.61761  0.22180  1.0000
  C   C1352     1.0  0.47994  0.48575  0.38796  1.0000
  Fe  Fe224     1.0  0.57407  0.89017  0.52066  1.0000
  S   S448      1.0  0.54355  0.88798  0.53545  1.0000
  S   S449      1.0  0.58369  0.87895  0.49648  1.0000
  Fe  Fe225     1.0  0.59194  0.90403  0.54765  1.0000
  S   S450      1.0  0.56232  0.90293  0.56447  1.0000
  S   S451      1.0  0.62383  0.90513  0.55361  1.0000
  Fe  Fe226     1.0  0.56062  0.87327  0.55576  1.0000
  S   S452      1.0  0.55519  0.84428  0.57301  1.0000
  Fe  Fe227     1.0  0.54742  0.91787  0.54282  1.0000
  S   S453      1.0  0.51889  0.94147  0.54163  1.0000
  S   S454      1.0  0.59106  0.87335  0.54051  1.0000
  S   S455      1.0  0.57707  0.92102  0.52645  1.0000
  Fe  Fe228     1.0  0.40139  0.56019  0.55446  1.0000
  S   S456      1.0  0.40707  0.59247  0.54467  1.0000
  S   S457      1.0  0.37244  0.55676  0.57214  1.0000
  Fe  Fe229     1.0  0.44150  0.54160  0.53638  1.0000
  S   S458      1.0  0.44975  0.57241  0.52535  1.0000
  S   S459      1.0  0.46401  0.51576  0.52679  1.0000
  Fe  Fe230     1.0  0.43935  0.58205  0.54966  1.0000
  S   S460      1.0  0.46093  0.59594  0.56160  1.0000
  Fe  Fe231     1.0  0.41707  0.57991  0.52128  1.0000
  S   S461      1.0  0.40868  0.59658  0.49749  1.0000
  S   S462      1.0  0.43317  0.55041  0.56108  1.0000
  S   S463      1.0  0.40926  0.54855  0.53073  1.0000
  H   H1334     1.0  0.55475  0.77873  0.54057  1.0000
  S   S464      1.0  0.63860  0.65854  0.65629  1.0000
  S   S465      1.0  0.63086  0.69815  0.61704  1.0000
  N   N113      1.0  0.34414  0.58733  0.54042  1.0000
  H   H1335     1.0  0.48024  0.52781  0.59651  1.0000
  C   C1353     1.0  0.45925  0.52400  0.48386  1.0000
  S   S466      1.0  0.36184  0.78843  0.62261  1.0000
  C   C1354     1.0  0.51399  0.51862  0.55661  1.0000
  H   H1336     1.0  0.51139  0.55251  0.53539  1.0000
  C   C1355     1.0  0.64096  0.65022  0.60404  1.0000
  Fe  Fe232     1.0  0.48218  0.70529  0.58131  1.0000
  S   S467      1.0  0.48434  0.69705  0.60752  1.0000
  S   S468      1.0  0.46363  0.68944  0.56802  1.0000
  Fe  Fe233     1.0  0.50154  0.74469  0.57958  1.0000
  S   S469      1.0  0.50499  0.73875  0.60569  1.0000
  S   S470      1.0  0.50707  0.77411  0.56278  1.0000
  Fe  Fe234     1.0  0.51586  0.70621  0.60142  1.0000
  S   S471      1.0  0.54009  0.68476  0.61419  1.0000
  Fe  Fe235     1.0  0.47334  0.73017  0.60950  1.0000
  S   S472      1.0  0.44999  0.73921  0.63048  1.0000
  S   S473      1.0  0.51448  0.71245  0.57481  1.0000
  S   S474      1.0  0.46912  0.73814  0.58379  1.0000
  C   C1356     1.0  0.38577  0.77364  0.62515  1.0000
  C   C1357     1.0  0.39977  0.76971  0.61151  1.0000
  C   C1358     1.0  0.41935  0.75879  0.61296  1.0000
  C   C1359     1.0  0.42523  0.75208  0.62809  1.0000
  C   C1360     1.0  0.41120  0.75588  0.64174  1.0000
  C   C1361     1.0  0.39148  0.76650  0.64029  1.0000
  H   H1337     1.0  0.39545  0.77517  0.59974  1.0000
  H   H1338     1.0  0.42997  0.75590  0.60237  1.0000
  H   H1339     1.0  0.41560  0.75065  0.65350  1.0000
  H   H1340     1.0  0.38083  0.76948  0.65087  1.0000
  C   C1362     1.0  0.47694  0.78904  0.60057  1.0000
  C   C1363     1.0  0.62279  0.89974  0.59605  1.0000
  C   C1364     1.0  0.56042  0.79322  0.53639  1.0000
  C   C1365     1.0  0.60478  0.69592  0.61774  1.0000
  C   C1366     1.0  0.59562  0.68076  0.62833  1.0000
  C   C1367     1.0  0.57547  0.67813  0.62753  1.0000
  C   C1368     1.0  0.56418  0.69071  0.61624  1.0000
  C   C1369     1.0  0.57314  0.70621  0.60591  1.0000
  C   C1370     1.0  0.59340  0.70869  0.60660  1.0000
  H   H1341     1.0  0.60422  0.67073  0.63688  1.0000
  H   H1342     1.0  0.56869  0.66605  0.63552  1.0000
  H   H1343     1.0  0.56469  0.71588  0.59707  1.0000
  H   H1344     1.0  0.60039  0.72042  0.59833  1.0000
  C   C1371     1.0  0.33562  0.52550  0.55468  1.0000
  C   C1372     1.0  0.57336  0.83100  0.52621  1.0000
  C   C1373     1.0  0.49655  0.54982  0.54265  1.0000
  C   C1374     1.0  0.46168  0.62211  0.56289  1.0000
  C   C1375     1.0  0.47702  0.62703  0.57040  1.0000
  C   C1376     1.0  0.47815  0.64752  0.57182  1.0000
  C   C1377     1.0  0.46382  0.66338  0.56582  1.0000
  C   C1378     1.0  0.44852  0.65845  0.55827  1.0000
  C   C1379     1.0  0.44744  0.63798  0.55680  1.0000
  H   H1345     1.0  0.48817  0.61492  0.57512  1.0000
  H   H1346     1.0  0.49010  0.65102  0.57756  1.0000
  H   H1347     1.0  0.43741  0.67057  0.55350  1.0000
  H   H1348     1.0  0.43558  0.63449  0.55095  1.0000
  H   H1349     1.0  0.50043  0.77884  0.62271  1.0000
  H   H1350     1.0  0.59702  0.61799  0.61664  1.0000
  C   C1380     1.0  0.35277  0.53389  0.55674  1.0000
  C   C1381     1.0  0.35185  0.54462  0.56961  1.0000
  H   H1351     1.0  0.41086  0.53330  0.47489  1.0000
  C   C1382     1.0  0.58030  0.81871  0.53965  1.0000
  H   H1352     1.0  0.54285  0.80104  0.51692  1.0000
  H   H1353     1.0  0.36661  0.53220  0.54831  1.0000
  H   H1354     1.0  0.58705  0.64254  0.58643  1.0000
  H   H1355     1.0  0.48158  0.78800  0.63830  1.0000
  C   C1383     1.0  0.44852  0.97744  0.57705  1.0000
  C   C1384     1.0  0.40981  0.56097  0.48491  1.0000
  C   C1385     1.0  0.40984  0.58211  0.48178  1.0000
  H   H1356     1.0  0.40905  0.55325  0.49704  1.0000
  C   C1386     1.0  0.54071  0.82549  0.57048  1.0000
  C   C1387     1.0  0.52860  0.82839  0.55824  1.0000
  C   C1388     1.0  0.51802  0.81267  0.55629  1.0000
  C   C1389     1.0  0.51956  0.79386  0.56645  1.0000
  C   C1390     1.0  0.53145  0.79106  0.57882  1.0000
  C   C1391     1.0  0.54187  0.80685  0.58086  1.0000
  H   H1357     1.0  0.52752  0.84268  0.55022  1.0000
  H   H1358     1.0  0.50883  0.81498  0.54670  1.0000
  H   H1359     1.0  0.53295  0.77661  0.58663  1.0000
  H   H1360     1.0  0.55124  0.80446  0.59034  1.0000
  H   H1361     1.0  0.35975  0.84590  0.70642  1.0000
  H   H1362     1.0  0.48191  0.76285  0.63306  1.0000
  C   C1392     1.0  0.64754  0.63251  0.71496  1.0000
  C   C1393     1.0  0.63624  0.92319  0.56004  1.0000
  C   C1394     1.0  0.62571  0.94140  0.56509  1.0000
  C   C1395     1.0  0.63600  0.95418  0.57155  1.0000
  H   H1363     1.0  0.48754  0.54331  0.53548  1.0000
  C   C1396     1.0  0.44291  0.80257  0.59481  1.0000
  H   H1364     1.0  0.60958  0.94542  0.56431  1.0000
  C   C1397     1.0  0.49003  0.52525  0.58540  1.0000
  H   H1365     1.0  0.44436  0.79080  0.63471  1.0000
  C   C1398     1.0  0.54809  0.89409  0.48342  1.0000
  H   H1366     1.0  0.57851  0.79033  0.55548  1.0000
  H   H1367     1.0  0.48825  0.56499  0.54530  1.0000
  H   H1368     1.0  0.54213  0.89989  0.49460  1.0000
  H   H1369     1.0  0.52287  0.51544  0.54529  1.0000
  C   C1399     1.0  0.47680  0.49672  0.53995  1.0000
  H   H1370     1.0  0.48972  0.98482  0.59263  1.0000
  C   C1400     1.0  0.51441  0.96549  0.54844  1.0000
  H   H1371     1.0  0.34242  0.87335  0.60013  1.0000
  H   H1372     1.0  0.47594  0.55238  0.57195  1.0000
  H   H1373     1.0  0.54201  0.96187  0.55896  1.0000
  C   C1401     1.0  0.44994  0.79300  0.62201  1.0000
  C   C1402     1.0  0.46347  0.79659  0.58943  1.0000
  C   C1403     1.0  0.46788  0.97323  0.58192  1.0000
  C   C1404     1.0  0.32904  0.83699  0.60713  1.0000
  C   C1405     1.0  0.56796  0.88364  0.48122  1.0000
  H   H1374     1.0  0.33707  0.61493  0.55060  1.0000
  H   H1375     1.0  0.62765  0.96807  0.57566  1.0000
  H   H1376     1.0  0.65540  0.56382  0.64798  1.0000
  H   H1377     1.0  0.44399  0.65004  0.59880  1.0000
  H   H1378     1.0  0.43224  0.80811  0.58629  1.0000
  C   C1406     1.0  0.62478  0.91672  0.60287  1.0000
  H   H1379     1.0  0.59021  0.82417  0.54635  1.0000
  C   C1407     1.0  0.34233  0.56539  0.51591  1.0000
  H   H1380     1.0  0.45796  0.50504  0.56143  1.0000
  H   H1381     1.0  0.49282  0.78427  0.59625  1.0000
  N   N114      1.0  0.63775  0.62981  0.70281  1.0000
  H   H1382     1.0  0.46372  0.66411  0.60104  1.0000
  C   C1408     1.0  0.48423  0.77889  0.62823  1.0000
  H   H1383     1.0  0.33985  0.84021  0.61462  1.0000
  S   S475      1.0  0.64279  0.68008  0.69498  1.0000
  C   C1409     1.0  0.43608  0.80091  0.61120  1.0000
  C   C1410     1.0  0.51704  0.50469  0.57038  1.0000
  C   C1411     1.0  0.53031  0.97309  0.50617  1.0000
  C   C1412     1.0  0.52812  0.97190  0.55656  1.0000
  C   C1413     1.0  0.55282  0.83819  0.50436  1.0000
  H   H1384     1.0  0.46899  0.79750  0.57671  1.0000
  C   C1414     1.0  0.48761  0.53905  0.57144  1.0000
  C   C1415     1.0  0.55359  0.80602  0.52309  1.0000
  N   N115      1.0  0.47013  0.78744  0.61663  1.0000
  H   H1385     1.0  0.42001  0.80492  0.61553  1.0000
  C   C1416     1.0  0.44878  0.65949  0.60668  1.0000
  H   H1386     1.0  0.48580  0.97377  0.53907  1.0000
  H   H1387     1.0  0.61201  0.65177  0.70961  1.0000
  H   H1388     1.0  0.42436  0.67998  0.58594  1.0000
  C   C1417     1.0  0.64747  0.61786  0.69153  1.0000
  H   H1389     1.0  0.44374  0.96647  0.57095  1.0000
  C   C1418     1.0  0.58746  0.65140  0.59622  1.0000
  H   H1390     1.0  0.33848  0.77473  0.70192  1.0000
  C   C1419     1.0  0.33351  0.77972  0.71352  1.0000
  C   C1420     1.0  0.61661  0.63946  0.70189  1.0000
  H   H1391     1.0  0.37153  0.59621  0.52653  1.0000
  C   C1421     1.0  0.63979  0.88513  0.59292  1.0000
  N   N116      1.0  0.55998  0.82472  0.51825  1.0000
  H   H1392     1.0  0.62014  0.67106  0.59051  1.0000
  H   H1393     1.0  0.63848  0.87236  0.58699  1.0000
  H   H1394     1.0  0.33354  0.84145  0.70822  1.0000
  H   H1395     1.0  0.35350  0.82040  0.70748  1.0000
  H   H1396     1.0  0.44187  0.68039  0.63148  1.0000
  C   C1422     1.0  0.57376  0.79971  0.54476  1.0000
  H   H1397     1.0  0.57850  0.84574  0.52226  1.0000
  H   H1398     1.0  0.45072  0.64968  0.61827  1.0000
  H   H1399     1.0  0.61502  0.64704  0.68950  1.0000
  H   H1400     1.0  0.60833  0.89834  0.59250  1.0000
  C   C1423     1.0  0.34494  0.59908  0.55327  1.0000
  H   H1401     1.0  0.54030  0.83262  0.50005  1.0000
  H   H1402     1.0  0.45810  0.51223  0.49421  1.0000
  H   H1403     1.0  0.33641  0.51739  0.54461  1.0000
  C   C1424     1.0  0.60934  0.62710  0.61302  1.0000
  H   H1404     1.0  0.33733  0.82623  0.59886  1.0000
  C   C1425     1.0  0.62789  0.62027  0.61897  1.0000
  C   C1426     1.0  0.64379  0.63189  0.61435  1.0000
  Fe  Fe236     1.0  0.33433  0.79110  0.64202  1.0000
  N   N117      1.0  0.60672  0.64506  0.60283  1.0000
  H   H1405     1.0  0.47802  0.95933  0.57944  1.0000
  C   C1427     1.0  0.41078  0.54968  0.47231  1.0000
  C   C1428     1.0  0.35899  0.58757  0.52740  1.0000
  H   H1406     1.0  0.63001  0.60612  0.62717  1.0000
  H   H1407     1.0  0.32587  0.90519  0.58560  1.0000
  H   H1408     1.0  0.54696  0.85380  0.50748  1.0000
  H   H1409     1.0  0.37043  0.57651  0.50485  1.0000
  N   N118      1.0  0.43381  0.67779  0.60886  1.0000
  C   C1429     1.0  0.43209  0.68665  0.62242  1.0000
  C   C1430     1.0  0.42233  0.68647  0.59701  1.0000
  C   C1431     1.0  0.41782  0.70405  0.62475  1.0000
  C   C1432     1.0  0.40809  0.70403  0.59887  1.0000
  C   C1433     1.0  0.40568  0.71271  0.61293  1.0000
  C   C1434     1.0  0.33375  0.54653  0.58051  1.0000
  H   H1410     1.0  0.54161  0.96632  0.51445  1.0000
  C   C1435     1.0  0.50488  0.50799  0.58483  1.0000
  H   H1411     1.0  0.41651  0.71102  0.63554  1.0000
  H   H1412     1.0  0.39916  0.71097  0.58939  1.0000
  H   H1413     1.0  0.39468  0.72633  0.61456  1.0000
  H   H1414     1.0  0.56565  0.83945  0.49440  1.0000
  C   C1436     1.0  0.64388  0.91892  0.60636  1.0000
  C   C1437     1.0  0.35840  0.57651  0.51501  1.0000
  N   N119      1.0  0.49966  0.53569  0.55732  1.0000
  H   H1415     1.0  0.61185  0.92858  0.60475  1.0000
  H   H1416     1.0  0.53818  0.97372  0.49368  1.0000
  C   C1438     1.0  0.49645  0.97861  0.54539  1.0000
  H   H1417     1.0  0.33775  0.59173  0.56497  1.0000
  H   H1418     1.0  0.63972  0.61570  0.68188  1.0000
  H   H1419     1.0  0.45896  0.54798  0.49784  1.0000
  C   C1439     1.0  0.45976  0.54412  0.48591  1.0000
  H   H1420     1.0  0.60611  0.62787  0.70552  1.0000
  H   H1421     1.0  0.34187  0.55646  0.50653  1.0000
  C   C1440     1.0  0.46079  0.55926  0.47255  1.0000
  C   C1441     1.0  0.32694  0.56572  0.52901  1.0000
  H   H1422     1.0  0.57421  0.64903  0.60565  1.0000
  H   H1423     1.0  0.33293  0.55470  0.59056  1.0000
  H   H1424     1.0  0.50662  0.49683  0.59543  1.0000
  C   C1442     1.0  0.62226  0.65657  0.59829  1.0000
  C   C1443     1.0  0.32848  0.87310  0.59539  1.0000
  H   H1425     1.0  0.58538  0.66797  0.59143  1.0000
  H   H1426     1.0  0.36099  0.59948  0.55478  1.0000
  S   S476      1.0  0.32530  0.77212  0.66567  1.0000
  H   H1427     1.0  0.52042  0.90496  0.47296  1.0000
  H   H1428     1.0  0.65300  0.65975  0.60075  1.0000
  Fe  Fe237     1.0  0.65044  0.68031  0.63551  1.0000
  H   H1429     1.0  0.46067  0.57496  0.47434  1.0000
  C   C1444     1.0  0.47088  0.49491  0.55648  1.0000
  C   C1445     1.0  0.32805  0.57690  0.54120  1.0000
  C   C1446     1.0  0.34871  0.83533  0.71207  1.0000
  H   H1430     1.0  0.64557  0.93266  0.61093  1.0000
  H   H1431     1.0  0.51879  0.96244  0.50812  1.0000
  H   H1432     1.0  0.52809  0.49089  0.56972  1.0000
  S   S477      1.0  0.32382  0.82106  0.65153  1.0000
  H   H1433     1.0  0.41974  0.95281  0.96507  1.0000
  H   H1434     1.0  0.47981  0.82352  0.83343  1.0000
  S   S478      1.0  0.49425  0.84644  0.93724  1.0000
  C   C1447     1.0  0.33323  0.84467  0.75461  1.0000
  Fe  Fe238     1.0  0.49209  0.75021  0.89490  1.0000
  S   S479      1.0  0.46813  0.73423  0.88852  1.0000
  S   S480      1.0  0.48926  0.75841  0.92006  1.0000
  Fe  Fe239     1.0  0.52181  0.74171  0.86438  1.0000
  S   S481      1.0  0.50024  0.72508  0.85568  1.0000
  S   S482      1.0  0.55377  0.74805  0.85311  1.0000
  Fe  Fe240     1.0  0.47537  0.75005  0.86344  1.0000
  S   S483      1.0  0.45256  0.76610  0.84656  1.0000
  Fe  Fe241     1.0  0.49444  0.71054  0.88135  1.0000
  S   S484      1.0  0.49442  0.67657  0.88832  1.0000
  S   S485      1.0  0.49749  0.76812  0.87033  1.0000
  S   S486      1.0  0.51780  0.72515  0.88939  1.0000
  Fe  Fe242     1.0  0.50372  0.85272  0.96011  1.0000
  Fe  Fe243     1.0  0.35552  0.50586  0.95411  1.0000
  S   S487      1.0  0.37579  0.53109  0.94780  1.0000
  N   N120      1.0  0.64000  0.66065  0.84166  1.0000
  H   H1435     1.0  0.45480  0.70776  0.86811  1.0000
  S   S488      1.0  0.64116  0.96750  0.95611  1.0000
  H   H1436     1.0  0.44583  0.94530  0.96784  1.0000
  H   H1437     1.0  0.36879  0.80254  0.75993  1.0000
  H   H1438     1.0  0.61946  0.66003  0.82524  1.0000
  H   H1439     1.0  0.63371  0.68379  0.85708  1.0000
  S   S489      1.0  0.33106  0.98125  0.92957  1.0000
  S   S490      1.0  0.61871  0.69767  0.80551  1.0000
  H   H1440     1.0  0.63747  0.69284  0.83588  1.0000
  C   C1448     1.0  0.64875  0.90263  0.95967  1.0000
  Fe  Fe244     1.0  0.34429  0.76599  0.81779  1.0000
  S   S491      1.0  0.35141  0.78920  0.79624  1.0000
  S   S492      1.0  0.36474  0.74904  0.83623  1.0000
  H   H1441     1.0  0.45343  0.53920  0.95067  1.0000
  H   H1442     1.0  0.45482  0.65465  0.88573  1.0000
  N   N121      1.0  0.49649  0.79428  0.82961  1.0000
  H   H1443     1.0  0.33015  0.93515  0.92990  1.0000
  C   C1449     1.0  0.51468  0.79770  0.83311  1.0000
  C   C1450     1.0  0.49576  0.77828  0.82170  1.0000
  H   H1444     1.0  0.43771  0.69316  0.86211  1.0000
  H   H1445     1.0  0.35659  0.58154  0.96919  1.0000
  H   H1446     1.0  0.62814  0.91418  0.92501  1.0000
  H   H1447     1.0  0.63548  0.62609  0.81818  1.0000
  C   C1451     1.0  0.53224  0.76903  0.82015  1.0000
  C   C1452     1.0  0.42817  0.76095  0.84395  1.0000
  C   C1453     1.0  0.41868  0.74528  0.85360  1.0000
  C   C1454     1.0  0.39933  0.74185  0.85106  1.0000
  C   C1455     1.0  0.38918  0.75403  0.83887  1.0000
  C   C1456     1.0  0.39868  0.76971  0.82923  1.0000
  C   C1457     1.0  0.41803  0.77313  0.83177  1.0000
  H   H1448     1.0  0.42613  0.73599  0.86310  1.0000
  H   H1449     1.0  0.39210  0.72974  0.85863  1.0000
  H   H1450     1.0  0.39110  0.77925  0.81984  1.0000
  H   H1451     1.0  0.42513  0.78535  0.82425  1.0000
  C   C1458     1.0  0.57175  0.73345  0.84024  1.0000
  C   C1459     1.0  0.56661  0.71742  0.83380  1.0000
  C   C1460     1.0  0.58114  0.70681  0.82308  1.0000
  C   C1461     1.0  0.60098  0.71195  0.81878  1.0000
  C   C1462     1.0  0.60617  0.72785  0.82533  1.0000
  C   C1463     1.0  0.59158  0.73861  0.83592  1.0000
  H   H1452     1.0  0.55141  0.71332  0.83698  1.0000
  H   H1453     1.0  0.57697  0.69452  0.81809  1.0000
  H   H1454     1.0  0.62135  0.73203  0.82209  1.0000
  H   H1455     1.0  0.59567  0.75105  0.84079  1.0000
  S   S493      1.0  0.62244  0.48896  0.97040  1.0000
  C   C1464     1.0  0.50114  0.70641  0.94743  1.0000
  H   H1456     1.0  0.39941  0.56387  0.94442  1.0000
  H   H1457     1.0  0.44191  0.64345  0.91404  1.0000
  C   C1465     1.0  0.47063  0.65711  0.94082  1.0000
  C   C1466     1.0  0.46806  0.67779  0.93419  1.0000
  C   C1467     1.0  0.47605  0.68387  0.91828  1.0000
  C   C1468     1.0  0.48615  0.66924  0.90871  1.0000
  C   C1469     1.0  0.48870  0.64850  0.91529  1.0000
  C   C1470     1.0  0.48112  0.64243  0.93140  1.0000
  H   H1458     1.0  0.45997  0.68922  0.94143  1.0000
  H   H1459     1.0  0.47409  0.69987  0.91338  1.0000
  H   H1460     1.0  0.49652  0.63711  0.90791  1.0000
  H   H1461     1.0  0.48322  0.62645  0.93647  1.0000
  H   H1462     1.0  0.46652  0.91706  0.95508  1.0000
  C   C1471     1.0  0.43535  0.51664  0.94814  1.0000
  H   H1463     1.0  0.65564  0.68523  0.74880  1.0000
  C   C1472     1.0  0.45245  0.91316  0.95254  1.0000
  S   S494      1.0  0.34733  0.76247  0.75861  1.0000
  H   H1464     1.0  0.49086  0.83283  0.90786  1.0000
  C   C1473     1.0  0.44981  0.69247  0.86968  1.0000
  H   H1465     1.0  0.57949  0.93214  0.95112  1.0000
  C   C1474     1.0  0.49402  0.82165  0.93254  1.0000
  C   C1475     1.0  0.49522  0.80429  0.94411  1.0000
  C   C1476     1.0  0.49389  0.78501  0.94008  1.0000
  C   C1477     1.0  0.49170  0.78285  0.92439  1.0000
  C   C1478     1.0  0.49086  0.80015  0.91276  1.0000
  C   C1479     1.0  0.49183  0.81947  0.91687  1.0000
  H   H1466     1.0  0.49685  0.80579  0.95621  1.0000
  H   H1467     1.0  0.49451  0.77173  0.94916  1.0000
  H   H1468     1.0  0.48910  0.79872  0.90068  1.0000
  H   H1469     1.0  0.46347  0.68186  0.86537  1.0000
  H   H1470     1.0  0.34249  0.71511  0.83505  1.0000
  C   C1480     1.0  0.50855  0.67021  0.95298  1.0000
  H   H1471     1.0  0.63996  0.64220  0.72380  1.0000
  H   H1472     1.0  0.48129  0.77517  0.81929  1.0000
  C   C1481     1.0  0.65517  0.92467  0.92936  1.0000
  H   H1473     1.0  0.62249  0.89423  0.95213  1.0000
  H   H1474     1.0  0.37015  0.80637  0.73059  1.0000
  S   S495      1.0  0.36816  0.96849  0.96151  1.0000
  C   C1482     1.0  0.33425  0.84645  0.73799  1.0000
  C   C1483     1.0  0.32686  0.92480  0.89321  1.0000
  Fe  Fe245     1.0  0.33538  0.77153  0.78315  1.0000
  S   S496      1.0  0.46083  0.65060  0.96100  1.0000
  H   H1475     1.0  0.53233  0.96104  0.96697  1.0000
  C   C1484     1.0  0.39972  0.55581  0.95644  1.0000
  C   C1485     1.0  0.44565  0.66577  0.89285  1.0000
  C   C1486     1.0  0.52350  0.68772  0.92800  1.0000
  H   H1476     1.0  0.42232  0.66892  0.93091  1.0000
  S   S497      1.0  0.53492  0.84453  0.96762  1.0000
  C   C1487     1.0  0.42739  0.67364  0.91833  1.0000
  C   C1488     1.0  0.33718  0.93071  0.91802  1.0000
  C   C1489     1.0  0.43099  0.70004  0.89560  1.0000
  S   S498      1.0  0.46724  0.58812  0.96746  1.0000
  H   H1477     1.0  0.54720  0.78765  0.83144  1.0000
  C   C1490     1.0  0.38922  0.53886  0.96142  1.0000
  C   C1491     1.0  0.63546  0.90255  0.94869  1.0000
  H   H1478     1.0  0.50604  0.65594  0.96058  1.0000
  H   H1479     1.0  0.49303  0.72093  0.95064  1.0000
  H   H1480     1.0  0.41525  0.70545  0.91899  1.0000
  C   C1492     1.0  0.35997  0.81742  0.73721  1.0000
  C   C1493     1.0  0.57444  0.90678  0.96962  1.0000
  H   H1481     1.0  0.46884  0.68990  0.96996  1.0000
  C   C1494     1.0  0.41055  0.56251  0.96692  1.0000
  C   C1495     1.0  0.44750  0.52525  0.95628  1.0000
  C   C1496     1.0  0.63238  0.65196  0.83093  1.0000
  C   C1497     1.0  0.51360  0.76540  0.81688  1.0000
  H   H1482     1.0  0.42804  0.71602  0.89054  1.0000
  C   C1498     1.0  0.43837  0.65932  0.90885  1.0000
  H   H1483     1.0  0.43164  0.52396  0.93648  1.0000
  H   H1484     1.0  0.51293  0.75248  0.81092  1.0000
  H   H1485     1.0  0.51521  0.80982  0.83996  1.0000
  H   H1486     1.0  0.46491  0.80596  0.82874  1.0000
  C   C1499     1.0  0.47764  0.80718  0.83522  1.0000
  N   N122      1.0  0.44218  0.68596  0.88650  1.0000
  H   H1487     1.0  0.40211  0.89824  0.94519  1.0000
  S   S499      1.0  0.50311  0.88600  0.96157  1.0000
  C   C1500     1.0  0.53283  0.78529  0.82828  1.0000
  H   H1488     1.0  0.47287  0.80219  0.84814  1.0000
  C   C1501     1.0  0.42358  0.69414  0.91168  1.0000
  H   H1489     1.0  0.43441  0.87372  0.94174  1.0000
  H   H1490     1.0  0.54618  0.75888  0.81686  1.0000
  N   N123      1.0  0.43469  0.92650  0.95441  1.0000
  N   N124      1.0  0.49884  0.68851  0.95742  1.0000
  C   C1502     1.0  0.41689  0.92150  0.95138  1.0000
  C   C1503     1.0  0.45262  0.89408  0.94782  1.0000
  C   C1504     1.0  0.41646  0.90245  0.94683  1.0000
  C   C1505     1.0  0.43447  0.88868  0.94505  1.0000
  C   C1506     1.0  0.35930  0.81518  0.75381  1.0000
  C   C1507     1.0  0.58399  0.92370  0.96220  1.0000
  H   H1491     1.0  0.40271  0.93188  0.95312  1.0000
  H   H1492     1.0  0.46665  0.88338  0.94653  1.0000
  S   S500      1.0  0.33075  0.74684  0.80399  1.0000
  Fe  Fe246     1.0  0.33585  0.97705  0.95581  1.0000
  C   C1508     1.0  0.43497  0.94655  0.95908  1.0000
  H   H1493     1.0  0.51546  0.72053  0.92485  1.0000
  H   H1494     1.0  0.43950  0.95750  0.94839  1.0000
  C   C1509     1.0  0.51370  0.70629  0.93269  1.0000
  C   C1510     1.0  0.43156  0.49000  0.97060  1.0000
  H   H1495     1.0  0.63419  0.68967  0.72707  1.0000
  C   C1511     1.0  0.52095  0.66953  0.93819  1.0000
  H   H1496     1.0  0.61411  0.68352  0.84527  1.0000
  H   H1497     1.0  0.53270  0.68742  0.91634  1.0000
  H   H1498     1.0  0.34428  0.94405  0.91136  1.0000
  S   S501      1.0  0.55522  0.89996  0.96050  1.0000
  H   H1499     1.0  0.52803  0.65496  0.93447  1.0000
  H   H1500     1.0  0.34527  0.82761  0.77537  1.0000
  H   H1501     1.0  0.41838  0.57570  0.96301  1.0000
  N   N125      1.0  0.34743  0.83284  0.72953  1.0000
  H   H1502     1.0  0.60623  0.94310  0.96327  1.0000
  C   C1512     1.0  0.42718  0.49904  0.95543  1.0000
  Fe  Fe247     1.0  0.53293  0.87741  0.97125  1.0000
  C   C1513     1.0  0.33576  0.77555  0.74207  1.0000
  H   H1503     1.0  0.32430  0.85865  0.73192  1.0000
  C   C1514     1.0  0.34594  0.82902  0.76251  1.0000
  C   C1515     1.0  0.34175  0.76885  0.72707  1.0000
  H   H1504     1.0  0.34156  0.92817  0.88693  1.0000
  H   H1505     1.0  0.34917  0.91733  0.91988  1.0000
  C   C1516     1.0  0.32609  0.71567  0.83832  1.0000
  C   C1517     1.0  0.64132  0.63270  0.82694  1.0000
  C   C1518     1.0  0.59916  0.92995  0.96907  1.0000
  C   C1519     1.0  0.63092  0.68118  0.84519  1.0000
  Fe  Fe248     1.0  0.65308  0.69746  0.79857  1.0000
  H   H1506     1.0  0.41714  0.49266  0.94945  1.0000
  C   C1520     1.0  0.63860  0.91381  0.93350  1.0000
  H   H1507     1.0  0.35304  0.75541  0.72588  1.0000
  H   H1508     1.0  0.32359  0.69370  0.82321  1.0000
  H   H1509     1.0  0.33495  0.55675  0.96494  1.0000
  C   C1521     1.0  0.65029  0.68397  0.72477  1.0000
  H   H1510     1.0  0.32354  0.73894  0.85343  1.0000
  N   N126      1.0  0.45120  0.51667  0.97136  1.0000
  Fe  Fe249     1.0  0.78320  0.47128  0.10318  1.0000
  H   H1511     1.0  0.71725  0.04582  0.01384  1.0000
  S   S502      1.0  0.79979  0.44066  0.11341  1.0000
  H   H1512     1.0  0.97767  0.25639  0.04944  1.0000
  Fe  Fe250     1.0  0.79948  0.30322  0.17261  1.0000
  S   S503      1.0  0.81408  0.32549  0.15321  1.0000
  S   S504      1.0  0.79153  0.30734  0.19878  1.0000
  Fe  Fe251     1.0  0.78907  0.27828  0.14928  1.0000
  S   S505      1.0  0.80253  0.29842  0.12793  1.0000
  S   S506      1.0  0.77801  0.24843  0.14785  1.0000
  Fe  Fe252     1.0  0.82848  0.29760  0.14167  1.0000
  S   S507      1.0  0.85930  0.29830  0.12606  1.0000
  Fe  Fe253     1.0  0.78748  0.32508  0.14060  1.0000
  S   S508      1.0  0.77125  0.35282  0.12615  1.0000
  S   S509      1.0  0.81633  0.27531  0.16224  1.0000
  S   S510      1.0  0.77156  0.30486  0.16077  1.0000
  Fe  Fe254     1.0  0.73368  0.99909  0.07830  1.0000
  H   H1513     1.0  0.67261  0.02866  0.03394  1.0000
  Fe  Fe255     1.0  0.72428  0.03118  0.10119  1.0000
  S   S511      1.0  0.75581  0.02508  0.10812  1.0000
  S   S512      1.0  0.69867  0.05282  0.11297  1.0000
  Fe  Fe256     1.0  0.76677  0.02403  0.08192  1.0000
  S   S513      1.0  0.79015  0.04166  0.06527  1.0000
  H   H1514     1.0  0.82233  0.41684  0.08853  1.0000
  S   S514      1.0  0.73518  0.03276  0.07480  1.0000
  S   S515      1.0  0.72001  0.99799  0.10425  1.0000
  Fe  Fe257     1.0  0.93456  0.07480  0.02100  1.0000
  S   S516      1.0  0.93399  0.04254  0.03343  1.0000
  S   S517      1.0  0.94016  0.08530  0.99424  1.0000
  Fe  Fe258     1.0  0.93226  0.09299  0.05179  1.0000
  S   S518      1.0  0.93119  0.06221  0.06669  1.0000
  S   S519      1.0  0.93026  0.12043  0.06514  1.0000
  Fe  Fe259     1.0  0.95571  0.04996  0.04821  1.0000
  Fe  Fe260     1.0  0.90917  0.05645  0.05131  1.0000
  S   S520      1.0  0.88626  0.03589  0.06512  1.0000
  S   S521      1.0  0.95855  0.08115  0.03440  1.0000
  S   S522      1.0  0.90799  0.08849  0.03772  1.0000
  Fe  Fe261     1.0  0.96409  0.22728  0.10907  1.0000
  S   S523      1.0  0.96805  0.23298  0.08222  1.0000
  S   S524      1.0  0.93451  0.22653  0.12630  1.0000
  C   C1522     1.0  0.69350  0.23842  0.17972  1.0000
  H   H1515     1.0  0.96941  0.08846  0.06430  1.0000
  Fe  Fe262     1.0  0.68704  0.16325  0.13398  1.0000
  S   S525      1.0  0.67806  0.19201  0.11758  1.0000
  S   S526      1.0  0.71284  0.14046  0.12387  1.0000
  Fe  Fe263     1.0  0.67808  0.20851  0.13835  1.0000
  S   S527      1.0  0.68859  0.23938  0.13690  1.0000
  S   S528      1.0  0.68983  0.18023  0.15398  1.0000
  S   S529      1.0  0.78810  0.48544  0.07719  1.0000
  C   C1523     1.0  0.98088  0.14957  0.05535  1.0000
  S   S530      1.0  0.67803  0.46498  0.02396  1.0000
  N   N127      1.0  0.93330  0.98718  0.07471  1.0000
  C   C1524     1.0  0.67579  0.18085  0.19961  1.0000
  H   H1516     1.0  0.76650  0.03951  0.04136  1.0000
  H   H1517     1.0  0.68308  0.18314  0.18740  1.0000
  H   H1518     1.0  0.91888  0.01232  0.08658  1.0000
  C   C1525     1.0  0.94788  0.13785  0.06434  1.0000
  C   C1526     1.0  0.96689  0.13624  0.05470  1.0000
  C   C1527     1.0  0.70351  0.01126  0.16575  1.0000
  H   H1519     1.0  0.68819  0.00925  0.17146  1.0000
  C   C1528     1.0  0.95694  0.16647  0.07503  1.0000
  C   C1529     1.0  0.94295  0.15319  0.07435  1.0000
  H   H1520     1.0  0.97085  0.12468  0.04681  1.0000
  N   N128      1.0  0.68162  0.13694  0.09235  1.0000
  H   H1521     1.0  0.92826  0.15465  0.08180  1.0000
  C   C1530     1.0  0.70363  0.07625  0.11724  1.0000
  C   C1531     1.0  0.68842  0.08816  0.12646  1.0000
  C   C1532     1.0  0.69120  0.10772  0.12891  1.0000
  C   C1533     1.0  0.70935  0.11536  0.12231  1.0000
  C   C1534     1.0  0.72483  0.10313  0.11356  1.0000
  C   C1535     1.0  0.72198  0.08365  0.11098  1.0000
  S   S531      1.0  0.66336  0.00886  0.00926  1.0000
  H   H1522     1.0  0.67924  0.11694  0.13576  1.0000
  H   H1523     1.0  0.73896  0.10891  0.10851  1.0000
  H   H1524     1.0  0.73383  0.07457  0.10390  1.0000
  C   C1536     1.0  0.81676  0.04010  0.06578  1.0000
  C   C1537     1.0  0.82717  0.02529  0.07625  1.0000
  C   C1538     1.0  0.84839  0.02432  0.07590  1.0000
  C   C1539     1.0  0.85945  0.03819  0.06520  1.0000
  C   C1540     1.0  0.84903  0.05307  0.05479  1.0000
  C   C1541     1.0  0.82783  0.05394  0.05505  1.0000
  H   H1525     1.0  0.81890  0.01452  0.08455  1.0000
  H   H1526     1.0  0.85628  0.01275  0.08402  1.0000
  H   H1527     1.0  0.85730  0.06384  0.04649  1.0000
  H   H1528     1.0  0.81994  0.06547  0.04691  1.0000
  C   C1542     1.0  0.69304  0.47662  0.03444  1.0000
  C   C1543     1.0  0.92520  0.05460  0.98367  1.0000
  H   H1529     1.0  0.91892  0.05022  0.99599  1.0000
  C   C1544     1.0  0.88028  0.27846  0.12674  1.0000
  C   C1545     1.0  0.89767  0.28019  0.11526  1.0000
  C   C1546     1.0  0.91446  0.26446  0.11502  1.0000
  C   C1547     1.0  0.91394  0.24683  0.12626  1.0000
  C   C1548     1.0  0.89664  0.24517  0.13785  1.0000
  C   C1549     1.0  0.87985  0.26092  0.13811  1.0000
  H   H1530     1.0  0.89814  0.29372  0.10643  1.0000
  H   H1531     1.0  0.92772  0.26593  0.10606  1.0000
  H   H1532     1.0  0.89616  0.23161  0.14665  1.0000
  H   H1533     1.0  0.86657  0.25947  0.14705  1.0000
  C   C1550     1.0  0.75304  0.24636  0.14480  1.0000
  C   C1551     1.0  0.74789  0.22683  0.14494  1.0000
  C   C1552     1.0  0.72829  0.22447  0.14235  1.0000
  C   C1553     1.0  0.71369  0.24167  0.13951  1.0000
  C   C1554     1.0  0.71888  0.26121  0.13929  1.0000
  C   C1555     1.0  0.73847  0.26357  0.14194  1.0000
  H   H1534     1.0  0.75906  0.21342  0.14715  1.0000
  H   H1535     1.0  0.72449  0.20934  0.14258  1.0000
  H   H1536     1.0  0.70767  0.27460  0.13712  1.0000
  H   H1537     1.0  0.74227  0.27869  0.14176  1.0000
  H   H1538     1.0  0.96562  0.14070  0.11178  1.0000
  C   C1556     1.0  0.98757  0.26408  0.14713  1.0000
  C   C1557     1.0  0.70437  0.46421  0.04586  1.0000
  H   H1539     1.0  0.94645  0.01082  0.08173  1.0000
  H   H1540     1.0  0.70368  0.44795  0.04814  1.0000
  H   H1541     1.0  0.72514  0.46276  0.06308  1.0000
  C   C1558     1.0  0.78985  0.41718  0.11835  1.0000
  C   C1559     1.0  0.77351  0.41349  0.11153  1.0000
  C   C1560     1.0  0.76758  0.39383  0.11442  1.0000
  C   C1561     1.0  0.77783  0.37776  0.12420  1.0000
  C   C1562     1.0  0.79385  0.38162  0.13132  1.0000
  C   C1563     1.0  0.79988  0.40120  0.12834  1.0000
  H   H1542     1.0  0.76575  0.42562  0.10374  1.0000
  H   H1543     1.0  0.75517  0.39098  0.10885  1.0000
  H   H1544     1.0  0.80185  0.36944  0.13889  1.0000
  H   H1545     1.0  0.81254  0.40392  0.13367  1.0000
  C   C1564     1.0  0.82662  0.28701  0.21042  1.0000
  C   C1565     1.0  0.80577  0.29400  0.21378  1.0000
  H   H1546     1.0  0.98309  0.48402  0.03078  1.0000
  H   H1547     1.0  0.83398  0.28803  0.19814  1.0000
  C   C1566     1.0  0.97387  0.99493  0.04682  1.0000
  C   C1567     1.0  0.96067  0.20952  0.15775  1.0000
  H   H1548     1.0  0.82129  0.33330  0.21004  1.0000
  C   C1568     1.0  0.72120  0.47652  0.97252  1.0000
  C   C1569     1.0  0.75002  0.00363  0.02551  1.0000
  Fe  Fe264     1.0  0.65676  0.17728  0.16172  1.0000
  H   H1549     1.0  0.70133  0.42519  0.97485  1.0000
  C   C1570     1.0  0.95644  0.10057  0.09565  1.0000
  H   H1550     1.0  0.70335  0.24227  0.18768  1.0000
  H   H1551     1.0  0.98126  0.25259  0.02864  1.0000
  C   C1571     1.0  0.71659  0.47258  0.05438  1.0000
  H   H1552     1.0  0.69884  0.15425  0.07354  1.0000
  C   C1572     1.0  0.98621  0.00268  0.05535  1.0000
  C   C1573     1.0  0.96653  0.26506  0.14772  1.0000
  S   S532      1.0  0.98267  0.02889  0.05747  1.0000
  H   H1553     1.0  0.94152  0.24785  0.15144  1.0000
  C   C1574     1.0  0.71197  0.46737  0.98712  1.0000
  H   H1554     1.0  0.96451  0.20156  0.14699  1.0000
  H   H1555     1.0  0.72489  0.00872  0.01180  1.0000
  C   C1575     1.0  0.75752  0.03269  0.03479  1.0000
  H   H1556     1.0  0.95708  0.27962  0.14490  1.0000
  C   C1576     1.0  0.95780  0.24700  0.15144  1.0000
  H   H1557     1.0  0.91069  0.12096  0.97863  1.0000
  H   H1558     1.0  0.90841  0.99478  0.06117  1.0000
  C   C1577     1.0  0.70726  0.43945  0.97415  1.0000
  Fe  Fe265     1.0  0.75212  0.99186  0.10978  1.0000
  C   C1578     1.0  0.69907  0.14795  0.08634  1.0000
  C   C1579     1.0  0.73427  0.01569  0.01795  1.0000
  N   N129      1.0  0.83357  0.38638  0.09863  1.0000
  C   C1580     1.0  0.84705  0.37426  0.10780  1.0000
  C   C1581     1.0  0.81814  0.37846  0.09425  1.0000
  C   C1582     1.0  0.84518  0.35364  0.11294  1.0000
  C   C1583     1.0  0.81584  0.35790  0.09918  1.0000
  C   C1584     1.0  0.82946  0.34548  0.10858  1.0000
  C   C1585     1.0  0.83614  0.40784  0.09321  1.0000
  H   H1559     1.0  0.85921  0.38057  0.11134  1.0000
  H   H1560     1.0  0.80705  0.38816  0.08739  1.0000
  H   H1561     1.0  0.85570  0.34401  0.12038  1.0000
  H   H1562     1.0  0.80306  0.35185  0.09631  1.0000
  H   H1563     1.0  0.82770  0.32962  0.11270  1.0000
  H   H1564     1.0  0.83843  0.41523  0.10339  1.0000
  N   N130      1.0  0.81056  0.24669  0.11234  1.0000
  C   C1586     1.0  0.82519  0.25907  0.10672  1.0000
  C   C1587     1.0  0.81489  0.22890  0.12239  1.0000
  C   C1588     1.0  0.84480  0.25370  0.11104  1.0000
  C   C1589     1.0  0.83433  0.22306  0.12697  1.0000
  C   C1590     1.0  0.84938  0.23551  0.12117  1.0000
  C   C1591     1.0  0.79002  0.25302  0.10785  1.0000
  H   H1565     1.0  0.82163  0.27340  0.09906  1.0000
  H   H1566     1.0  0.80312  0.21940  0.12731  1.0000
  H   H1567     1.0  0.85627  0.26373  0.10679  1.0000
  H   H1568     1.0  0.83757  0.20913  0.13516  1.0000
  H   H1569     1.0  0.86451  0.23122  0.12467  1.0000
  H   H1570     1.0  0.78002  0.24103  0.11232  1.0000
  H   H1571     1.0  0.78261  0.26689  0.11329  1.0000
  H   H1572     1.0  0.79072  0.25634  0.09465  1.0000
  S   S533      1.0  0.98817  0.24593  0.11102  1.0000
  H   H1573     1.0  0.75814  0.01727  0.14513  1.0000
  H   H1574     1.0  0.70177  0.22500  0.17406  1.0000
  H   H1575     1.0  0.94416  0.09194  0.09550  1.0000
  H   H1576     1.0  0.72874  0.04100  0.13558  1.0000
  C   C1592     1.0  0.68299  0.11689  0.09031  1.0000
  C   C1593     1.0  0.72042  0.99844  0.17122  1.0000
  C   C1594     1.0  0.97704  0.08179  0.07492  1.0000
  H   H1577     1.0  0.69122  0.25162  0.17013  1.0000
  C   C1595     1.0  0.65680  0.17393  0.20314  1.0000
  C   C1596     1.0  0.93706  0.07046  0.97979  1.0000
  H   H1578     1.0  0.71368  0.13770  0.08782  1.0000
  C   C1597     1.0  0.69423  0.48197  0.10546  1.0000
  C   C1598     1.0  0.68184  0.01375  0.03453  1.0000
  H   H1579     1.0  0.69363  0.03666  0.14831  1.0000
  H   H1580     1.0  0.97015  0.06802  0.08086  1.0000
  C   C1599     1.0  0.72630  0.02897  0.14555  1.0000
  C   C1600     1.0  0.93232  0.00827  0.07763  1.0000
  N   N131      1.0  0.73974  0.00052  0.16371  1.0000
  H   H1581     1.0  0.93069  0.01887  0.06637  1.0000
  C   C1601     1.0  0.74283  0.01562  0.15109  1.0000
  N   N132      1.0  0.67372  0.23372  0.18832  1.0000
  H   H1582     1.0  0.91101  0.03317  0.97451  1.0000
  H   H1583     1.0  0.85443  0.27491  0.22042  1.0000
  C   C1602     1.0  0.70511  0.44863  0.98799  1.0000
  H   H1584     1.0  0.78364  0.00715  0.04994  1.0000
  H   H1585     1.0  0.68069  0.23621  0.21134  1.0000
  H   H1586     1.0  0.70990  0.47485  0.99774  1.0000
  H   H1587     1.0  0.66787  0.09006  0.09468  1.0000
  N   N133      1.0  0.96970  0.22850  0.15458  1.0000
  S   S534      1.0  0.98562  0.19760  0.11012  1.0000
  H   H1588     1.0  0.94375  0.21253  0.16045  1.0000
  C   C1603     1.0  0.74167  0.04514  0.02758  1.0000
  C   C1604     1.0  0.66945  0.23328  0.20456  1.0000
  C   C1605     1.0  0.66381  0.14698  0.09935  1.0000
  C   C1606     1.0  0.69540  0.00794  0.04599  1.0000
  C   C1607     1.0  0.72993  0.03651  0.01917  1.0000
  C   C1608     1.0  0.68512  0.18541  0.21190  1.0000
  N   N134      1.0  0.76129  0.01215  0.03391  1.0000
  C   C1609     1.0  0.95311  0.11603  0.10536  1.0000
  H   H1589     1.0  0.69773  0.44150  0.99929  1.0000
  H   H1590     1.0  0.67422  0.08247  0.13140  1.0000
  H   H1591     1.0  0.96219  0.00512  0.04100  1.0000
  H   H1592     1.0  0.95295  0.17803  0.08293  1.0000
  H   H1593     1.0  0.69664  0.01838  0.05407  1.0000
  C   C1610     1.0  0.70653  0.02661  0.15281  1.0000
  H   H1594     1.0  0.73839  0.06129  0.02873  1.0000
  C   C1611     1.0  0.68013  0.00044  0.02383  1.0000
  H   H1595     1.0  0.84942  0.40891  0.08367  1.0000
  C   C1612     1.0  0.97607  0.16463  0.06562  1.0000
  Fe  Fe266     1.0  0.65699  0.47607  0.00444  1.0000
  H   H1596     1.0  0.93852  0.11912  0.11276  1.0000
  H   H1597     1.0  0.69718  0.10882  0.08493  1.0000
  C   C1613     1.0  0.77768  0.99909  0.04169  1.0000
  H   H1598     1.0  0.96651  0.19927  0.16810  1.0000
  H   H1599     1.0  0.66258  0.16295  0.10075  1.0000
  H   H1600     1.0  0.69885  0.16067  0.09329  1.0000
  H   H1601     1.0  0.69957  0.19122  0.20898  1.0000
  H   H1602     1.0  0.78538  0.34597  0.21976  1.0000
  S   S535      1.0  0.76586  0.99033  0.08405  1.0000
  N   N135      1.0  0.97448  0.09714  0.08575  1.0000
  C   C1614     1.0  0.96828  0.12815  0.10478  1.0000
  C   C1615     1.0  0.89360  0.09947  0.97268  1.0000
  H   H1603     1.0  0.75264  0.98726  0.02520  1.0000
  H   H1604     1.0  0.76414  0.99511  0.17746  1.0000
  C   C1616     1.0  0.66640  0.10620  0.09575  1.0000
  H   H1605     1.0  0.88785  0.09440  0.98506  1.0000
  C   C1617     1.0  0.70746  0.98873  0.04683  1.0000
  H   H1606     1.0  0.98924  0.27440  0.03437  1.0000
  H   H1607     1.0  0.69797  0.46977  0.12991  1.0000
  S   S536      1.0  0.74929  0.48190  0.10678  1.0000
  H   H1608     1.0  0.98474  0.44944  0.04606  1.0000
  H   H1609     1.0  0.98166  0.43969  0.02812  1.0000
  C   C1618     1.0  0.75736  0.98720  0.16965  1.0000
  H   H1610     1.0  0.79053  0.99420  0.03257  1.0000
  C   C1619     1.0  0.69775  0.48319  0.12088  1.0000
  H   H1611     1.0  0.66337  0.22926  0.16709  1.0000
  H   H1612     1.0  0.69166  0.46760  0.10239  1.0000
  C   C1620     1.0  0.65981  0.22916  0.17993  1.0000
  H   H1613     1.0  0.71795  0.98647  0.18125  1.0000
  H   H1614     1.0  0.98908  0.46805  0.07279  1.0000
  C   C1621     1.0  0.98808  0.25785  0.03793  1.0000
  C   C1622     1.0  0.98653  0.12472  0.09451  1.0000
  C   C1623     1.0  0.92070  0.04502  0.97147  1.0000
  C   C1624     1.0  0.98936  0.10910  0.08498  1.0000
  Fe  Fe267     1.0  0.65638  0.99090  0.99077  1.0000
  S   S537      1.0  0.70004  0.99316  0.37241  1.0000
  S   S538      1.0  0.95099  0.24005  0.38467  1.0000
  H   H1615     1.0  0.68189  0.44789  0.40171  1.0000
  H   H1616     1.0  0.73300  0.44393  0.43539  1.0000
  Fe  Fe268     1.0  0.96378  0.24879  0.35907  1.0000
  S   S539      1.0  0.94416  0.26381  0.33964  1.0000
  Fe  Fe269     1.0  0.81339  0.30788  0.30248  1.0000
  S   S540      1.0  0.80398  0.28425  0.32286  1.0000
  S   S541      1.0  0.81076  0.34216  0.30156  1.0000
  Fe  Fe270     1.0  0.82940  0.27609  0.27989  1.0000
  S   S542      1.0  0.82180  0.24971  0.29865  1.0000
  S   S543      1.0  0.84413  0.27245  0.25458  1.0000
  Fe  Fe271     1.0  0.79226  0.27013  0.30460  1.0000
  S   S544      1.0  0.75987  0.26313  0.30667  1.0000
  Fe  Fe272     1.0  0.83449  0.26594  0.31521  1.0000
  S   S545      1.0  0.85346  0.25040  0.33482  1.0000
  S   S546      1.0  0.79927  0.29555  0.28484  1.0000
  S   S547      1.0  0.84451  0.29056  0.29591  1.0000
  C   C1625     1.0  0.94873  0.18690  0.44452  1.0000
  C   C1626     1.0  0.98785  0.34181  0.40324  1.0000
  Fe  Fe273     1.0  0.71318  0.45246  0.36094  1.0000
  S   S548      1.0  0.73407  0.43455  0.37777  1.0000
  S   S549      1.0  0.67843  0.45665  0.36636  1.0000
  Fe  Fe274     1.0  0.74874  0.46443  0.33537  1.0000
  S   S550      1.0  0.77239  0.44658  0.35033  1.0000
  Fe  Fe275     1.0  0.75176  0.42230  0.35572  1.0000
  S   S551      1.0  0.75901  0.38773  0.35792  1.0000
  Fe  Fe276     1.0  0.75300  0.46027  0.37108  1.0000
  N   N136      1.0  0.75559  0.99052  0.45386  1.0000
  S   S552      1.0  0.72973  0.43891  0.33926  1.0000
  C   C1627     1.0  0.66349  0.43737  0.37578  1.0000
  C   C1628     1.0  0.97235  0.21829  0.43816  1.0000
  S   S553      1.0  0.71769  0.04062  0.34237  1.0000
  Fe  Fe277     1.0  0.70276  0.17499  0.29672  1.0000
  S   S554      1.0  0.70121  0.15431  0.27891  1.0000
  S   S555      1.0  0.73358  0.17762  0.30314  1.0000
  Fe  Fe278     1.0  0.67401  0.14438  0.29556  1.0000
  H   H1617     1.0  0.92326  0.07453  0.46259  1.0000
  Fe  Fe279     1.0  0.67900  0.18014  0.26870  1.0000
  S   S556      1.0  0.68616  0.19229  0.24239  1.0000
  S   S557      1.0  0.67757  0.16267  0.31439  1.0000
  S   S558      1.0  0.68210  0.20137  0.28572  1.0000
  S   S559      1.0  0.82572  0.45388  0.43991  1.0000
  H   H1618     1.0  0.96126  0.15644  0.46548  1.0000
  H   H1619     1.0  0.75725  0.02025  0.32236  1.0000
  C   C1629     1.0  0.67336  0.07333  0.31735  1.0000
  H   H1620     1.0  0.97025  0.35763  0.43928  1.0000
  H   H1621     1.0  0.70493  0.18234  0.33623  1.0000
  C   C1630     1.0  0.70216  0.06057  0.33190  1.0000
  C   C1631     1.0  0.68463  0.05725  0.32646  1.0000
  C   C1632     1.0  0.70786  0.45012  0.41299  1.0000
  C   C1633     1.0  0.67956  0.09279  0.31360  1.0000
  C   C1634     1.0  0.69703  0.09613  0.31912  1.0000
  C   C1635     1.0  0.70824  0.08008  0.32826  1.0000
  H   H1622     1.0  0.67983  0.04228  0.32917  1.0000
  C   C1636     1.0  0.90062  0.05698  0.45866  1.0000
  H   H1623     1.0  0.70194  0.11105  0.31630  1.0000
  H   H1624     1.0  0.72180  0.08277  0.33243  1.0000
  H   H1625     1.0  0.71005  0.43395  0.41762  1.0000
  N   N137      1.0  0.96355  0.18690  0.45376  1.0000
  H   H1626     1.0  0.74254  0.99876  0.30786  1.0000
  H   H1627     1.0  0.68883  0.41422  0.38092  1.0000
  C   C1637     1.0  0.80839  0.46107  0.42557  1.0000
  C   C1638     1.0  0.71020  0.39073  0.34803  1.0000
  C   C1639     1.0  0.96493  0.15022  0.42002  1.0000
  S   S560      1.0  0.73044  0.47952  0.35578  1.0000
  C   C1640     1.0  0.79239  0.45145  0.40457  1.0000
  H   H1628     1.0  0.65983  0.07066  0.31314  1.0000
  C   C1641     1.0  0.92792  0.01081  0.45034  1.0000
  C   C1642     1.0  0.79098  0.34528  0.24403  1.0000
  C   C1643     1.0  0.75387  0.23946  0.30382  1.0000
  C   C1644     1.0  0.73431  0.23867  0.30037  1.0000
  C   C1645     1.0  0.72816  0.21986  0.29955  1.0000
  C   C1646     1.0  0.74147  0.20166  0.30237  1.0000
  C   C1647     1.0  0.76127  0.20249  0.30533  1.0000
  C   C1648     1.0  0.76753  0.22135  0.30593  1.0000
  H   H1629     1.0  0.72370  0.25265  0.29869  1.0000
  H   H1630     1.0  0.71294  0.21944  0.29721  1.0000
  H   H1631     1.0  0.77167  0.18845  0.30750  1.0000
  H   H1632     1.0  0.78262  0.22181  0.30864  1.0000
  C   C1649     1.0  0.82892  0.27927  0.23903  1.0000
  H   H1633     1.0  0.77988  0.20525  0.26912  1.0000
  C   C1650     1.0  0.80789  0.28531  0.24230  1.0000
  C   C1651     1.0  0.76515  0.21016  0.26501  1.0000
  H   H1634     1.0  0.80052  0.28466  0.25449  1.0000
  C   C1652     1.0  0.79585  0.35466  0.31714  1.0000
  C   C1653     1.0  0.78654  0.34365  0.33093  1.0000
  C   C1654     1.0  0.77530  0.35400  0.34333  1.0000
  C   C1655     1.0  0.77309  0.37543  0.34197  1.0000
  C   C1656     1.0  0.78217  0.38646  0.32810  1.0000
  C   C1657     1.0  0.79361  0.37608  0.31576  1.0000
  H   H1635     1.0  0.78800  0.32718  0.33209  1.0000
  H   H1636     1.0  0.76828  0.34538  0.35402  1.0000
  H   H1637     1.0  0.78058  0.40297  0.32693  1.0000
  H   H1638     1.0  0.80075  0.38473  0.30513  1.0000
  C   C1658     1.0  0.98696  0.35179  0.41647  1.0000
  C   C1659     1.0  0.91946  0.25867  0.33812  1.0000
  C   C1660     1.0  0.91055  0.26714  0.32428  1.0000
  C   C1661     1.0  0.89055  0.26440  0.32292  1.0000
  C   C1662     1.0  0.87920  0.25312  0.33542  1.0000
  C   C1663     1.0  0.88821  0.24440  0.34917  1.0000
  C   C1664     1.0  0.90821  0.24715  0.35053  1.0000
  H   H1639     1.0  0.91915  0.27599  0.31458  1.0000
  H   H1640     1.0  0.88390  0.27112  0.31224  1.0000
  H   H1641     1.0  0.87962  0.23556  0.35888  1.0000
  H   H1642     1.0  0.91485  0.24049  0.36123  1.0000
  C   C1665     1.0  0.97234  0.33067  0.40243  1.0000
  H   H1643     1.0  0.71232  0.22695  0.25106  1.0000
  C   C1666     1.0  0.67647  0.21476  0.33096  1.0000
  S   S561      1.0  0.86873  0.47128  0.45806  1.0000
  H   H1644     1.0  0.83393  0.32837  0.27249  1.0000
  C   C1667     1.0  0.97520  0.20240  0.45079  1.0000
  C   C1668     1.0  0.97382  0.16699  0.41140  1.0000
  H   H1645     1.0  0.84667  0.32434  0.22898  1.0000
  Fe  Fe280     1.0  0.97667  0.25372  0.39087  1.0000
  C   C1669     1.0  0.75854  0.01565  0.42455  1.0000
  H   H1646     1.0  0.80119  0.34247  0.26692  1.0000
  C   C1670     1.0  0.76785  0.00546  0.45106  1.0000
  C   C1671     1.0  0.94556  0.20247  0.43174  1.0000
  H   H1647     1.0  0.79074  0.44010  0.39740  1.0000
  H   H1648     1.0  0.96636  0.12563  0.43985  1.0000
  H   H1649     1.0  0.81459  0.43140  0.41769  1.0000
  N   N138      1.0  0.73810  0.03142  0.30438  1.0000
  C   C1672     1.0  0.93915  0.33728  0.44152  1.0000
  C   C1673     1.0  0.72683  0.04896  0.29806  1.0000
  S   S562      1.0  0.69393  0.99139  0.33536  1.0000
  Fe  Fe281     1.0  0.82667  0.98833  0.43993  1.0000
  H   H1650     1.0  0.76103  0.25909  0.26835  1.0000
  C   C1674     1.0  0.73810  0.45373  0.42417  1.0000
  C   C1675     1.0  0.97059  0.35032  0.42882  1.0000
  H   H1651     1.0  0.92543  0.01857  0.43851  1.0000
  C   C1676     1.0  0.69197  0.45786  0.40396  1.0000
  C   C1677     1.0  0.79707  0.48061  0.42337  1.0000
  H   H1652     1.0  0.75390  0.04722  0.31708  1.0000
  H   H1653     1.0  0.94865  0.03060  0.45368  1.0000
  H   H1654     1.0  0.71296  0.99628  0.29495  1.0000
  H   H1655     1.0  0.74975  0.44441  0.41648  1.0000
  C   C1678     1.0  0.68000  0.41491  0.34178  1.0000
  C   C1679     1.0  0.70479  0.02902  0.28965  1.0000
  H   H1656     1.0  0.66710  0.38733  0.39255  1.0000
  N   N139      1.0  0.85224  0.30177  0.34499  1.0000
  C   C1680     1.0  0.84426  0.31573  0.33325  1.0000
  C   C1681     1.0  0.87258  0.29949  0.34625  1.0000
  C   C1682     1.0  0.85687  0.32741  0.32205  1.0000
  C   C1683     1.0  0.88564  0.31086  0.33522  1.0000
  C   C1684     1.0  0.87771  0.32481  0.32300  1.0000
  C   C1685     1.0  0.83870  0.28991  0.35673  1.0000
  H   H1657     1.0  0.82808  0.31784  0.33238  1.0000
  H   H1658     1.0  0.87898  0.28836  0.35550  1.0000
  H   H1659     1.0  0.85044  0.33830  0.31267  1.0000
  H   H1660     1.0  0.90189  0.30841  0.33597  1.0000
  H   H1661     1.0  0.88772  0.33354  0.31426  1.0000
  H   H1662     1.0  0.83125  0.29904  0.36636  1.0000
  H   H1663     1.0  0.82685  0.28539  0.35089  1.0000
  H   H1664     1.0  0.84724  0.27535  0.36205  1.0000
  N   N140      1.0  0.68814  0.39557  0.34773  1.0000
  H   H1665     1.0  0.95514  0.23042  0.41875  1.0000
  H   H1666     1.0  0.77997  0.02947  0.43395  1.0000
  H   H1667     1.0  0.91365  0.45910  0.44720  1.0000
  H   H1668     1.0  0.94569  0.33097  0.45275  1.0000
  H   H1669     1.0  0.73377  0.25279  0.25368  1.0000
  H   H1670     1.0  0.71548  0.37398  0.34978  1.0000
  H   H1671     1.0  0.98689  0.20247  0.45814  1.0000
  C   C1686     1.0  0.79666  0.34283  0.22795  1.0000
  H   H1672     1.0  0.76025  0.02498  0.41291  1.0000
  H   H1673     1.0  0.71441  0.39730  0.35794  1.0000
  C   C1687     1.0  0.67241  0.41777  0.38170  1.0000
  S   S563      1.0  0.96883  0.27048  0.41262  1.0000
  C   C1688     1.0  0.91537  0.48038  0.47066  1.0000
  H   H1674     1.0  0.79476  0.00374  0.38775  1.0000
  H   H1675     1.0  0.78028  0.29820  0.23240  1.0000
  C   C1689     1.0  0.73344  0.01270  0.30306  1.0000
  C   C1690     1.0  0.84090  0.32826  0.25981  1.0000
  C   C1691     1.0  0.88861  0.04143  0.46506  1.0000
  C   C1692     1.0  0.95622  0.32949  0.41501  1.0000
  Fe  Fe282     1.0  0.85341  0.00821  0.45787  1.0000
  H   H1676     1.0  0.78232  0.23971  0.27095  1.0000
  H   H1677     1.0  0.75874  0.17919  0.26689  1.0000
  H   H1678     1.0  0.74569  0.46574  0.42739  1.0000
  Fe  Fe283     1.0  0.97356  0.21136  0.38362  1.0000
  H   H1679     1.0  0.72487  0.19007  0.25763  1.0000
  C   C1693     1.0  0.66004  0.40257  0.38833  1.0000
  C   C1694     1.0  0.91390  0.06279  0.46775  1.0000
  C   C1695     1.0  0.95742  0.21825  0.42861  1.0000
  N   N141      1.0  0.75797  0.23054  0.26168  1.0000
  H   H1680     1.0  0.76762  0.99038  0.37767  1.0000
  H   H1681     1.0  0.69312  0.24718  0.33378  1.0000
  C   C1696     1.0  0.77053  0.24597  0.26299  1.0000
  H   H1682     1.0  0.93586  0.42732  0.44070  1.0000
  C   C1697     1.0  0.79640  0.29274  0.22974  1.0000
  H   H1683     1.0  0.77526  0.35071  0.24845  1.0000
  H   H1684     1.0  0.67783  0.48439  0.38975  1.0000
  H   H1685     1.0  0.90877  0.39252  0.46010  1.0000
  N   N142      1.0  0.69664  0.21467  0.33544  1.0000
  C   C1698     1.0  0.70951  0.19663  0.33772  1.0000
  C   C1699     1.0  0.70301  0.23281  0.33623  1.0000
  C   C1700     1.0  0.72916  0.19641  0.34127  1.0000
  C   C1701     1.0  0.72261  0.23316  0.33967  1.0000
  C   C1702     1.0  0.73574  0.21481  0.34221  1.0000
  H   H1686     1.0  0.94474  0.32005  0.41454  1.0000
  H   H1687     1.0  0.67069  0.19994  0.33538  1.0000
  S   S564      1.0  0.76082  0.47946  0.31044  1.0000
  C   C1703     1.0  0.98073  0.29019  0.43425  1.0000
  Fe  Fe284     1.0  0.83511  0.47104  0.45801  1.0000
  H   H1688     1.0  0.71882  0.39711  0.33659  1.0000
  H   H1689     1.0  0.68974  0.42655  0.33718  1.0000
  H   H1690     1.0  0.66498  0.22680  0.33611  1.0000
  C   C1704     1.0  0.75577  0.03261  0.31204  1.0000
  N   N143      1.0  0.92873  0.46169  0.46672  1.0000
  Fe  Fe285     1.0  0.71195  0.00756  0.34782  1.0000
  C   C1705     1.0  0.65890  0.42024  0.34210  1.0000
  H   H1691     1.0  0.84955  0.31274  0.25879  1.0000
  H   H1692     1.0  0.77833  0.25163  0.25098  1.0000
  C   C1706     1.0  0.96644  0.17070  0.46732  1.0000
  H   H1693     1.0  0.93959  0.17455  0.44674  1.0000
  H   H1694     1.0  0.95161  0.14615  0.41638  1.0000
  H   H1695     1.0  0.90662  0.99008  0.45100  1.0000
  H   H1696     1.0  0.69155  0.02810  0.28420  1.0000
  H   H1697     1.0  0.67723  0.21759  0.31774  1.0000
  C   C1707     1.0  0.70992  0.04805  0.29073  1.0000
  C   C1708     1.0  0.78116  0.47101  0.40233  1.0000
  C   C1709     1.0  0.80590  0.44655  0.41611  1.0000
  H   H1698     1.0  0.97327  0.32218  0.39249  1.0000
  C   C1710     1.0  0.74591  0.00050  0.42755  1.0000
  C   C1711     1.0  0.71855  0.48283  0.40911  1.0000
  H   H1699     1.0  0.96633  0.28748  0.44138  1.0000
  C   C1712     1.0  0.80570  0.34045  0.25443  1.0000
  H   H1700     1.0  0.93027  0.35258  0.44304  1.0000
  N   N144      1.0  0.82545  0.33306  0.24897  1.0000
  H   H1701     1.0  0.77651  0.00744  0.46020  1.0000
  H   H1702     1.0  0.75124  0.21495  0.34426  1.0000
  C   C1713     1.0  0.67560  0.18310  0.22782  1.0000
  H   H1703     1.0  0.76990  0.03129  0.30329  1.0000
  S   S565      1.0  0.98475  0.21889  0.35739  1.0000
  C   C1714     1.0  0.73425  0.20142  0.25865  1.0000
  S   S566      1.0  0.96346  0.18087  0.39453  1.0000
  C   C1715     1.0  0.76962  0.01816  0.43635  1.0000
  H   H1704     1.0  0.70059  0.06205  0.28629  1.0000
  H   H1705     1.0  0.85163  0.33968  0.25684  1.0000
  H   H1706     1.0  0.73045  0.06382  0.29913  1.0000
  H   H1707     1.0  0.68202  0.36615  0.35955  1.0000
  C   C1716     1.0  0.97322  0.13862  0.43332  1.0000
  S   S567      1.0  0.87365  0.03343  0.45253  1.0000
  C   C1717     1.0  0.94091  0.01756  0.45885  1.0000
  C   C1718     1.0  0.75335  0.19532  0.26367  1.0000
  H   H1708     1.0  0.73955  0.18213  0.34247  1.0000
  C   C1719     1.0  0.67568  0.38125  0.35431  1.0000
  C   C1720     1.0  0.92588  0.45264  0.45420  1.0000
  N   N145      1.0  0.95560  0.33914  0.42804  1.0000
  C   C1721     1.0  0.91716  0.99475  0.45755  1.0000
  H   H1709     1.0  0.98823  0.30806  0.45058  1.0000
  S   S568      1.0  0.82010  0.01393  0.45489  1.0000
  C   C1722     1.0  0.71671  0.01121  0.29573  1.0000
  C   C1723     1.0  0.93847  0.43473  0.45038  1.0000
  H   H1710     1.0  0.72795  0.24760  0.33966  1.0000
  H   H1711     1.0  0.89987  0.06438  0.44651  1.0000
  C   C1724     1.0  0.78807  0.99089  0.39471  1.0000
  H   H1712     1.0  0.93434  0.20205  0.42403  1.0000
  S   S569      1.0  0.66531  0.11241  0.30178  1.0000
  S   S570      1.0  0.76320  0.47792  0.38847  1.0000
  H   H1713     1.0  0.92852  0.32699  0.43986  1.0000
  C   C1725     1.0  0.83114  0.33065  0.23322  1.0000
  N   N146      1.0  0.72088  0.46258  0.41547  1.0000
  S   S571      1.0  0.81405  0.99270  0.41608  1.0000
  C   C1726     1.0  0.68966  0.47840  0.39725  1.0000
  C   C1727     1.0  0.81690  0.33571  0.22245  1.0000
  H   H1714     1.0  0.98061  0.17318  0.36135  1.0000
  H   H1715     1.0  0.73774  0.99802  0.41823  1.0000
  S   S572      1.0  0.98809  0.26481  0.36525  1.0000
  C   C1728     1.0  0.74470  0.98790  0.44233  1.0000
  H   H1716     1.0  0.98163  0.23057  0.43566  1.0000
  H   H1717     1.0  0.96341  0.41179  0.45702  1.0000
  C   C1729     1.0  0.95393  0.42602  0.45954  1.0000
  C   C1730     1.0  0.73934  0.23665  0.25654  1.0000
  C   C1731     1.0  0.72718  0.22219  0.25500  1.0000
  H   H1718     1.0  0.98287  0.16653  0.46869  1.0000
  C   C1732     1.0  0.98643  0.28263  0.41958  1.0000
  S   S573      1.0  0.94585  0.36901  0.46920  1.0000
  C   C1733     1.0  0.91185  0.39793  0.47058  1.0000
  C   C1734     1.0  0.83818  0.27972  0.22304  1.0000
  H   H1719     1.0  0.88544  0.42139  0.47105  1.0000
  C   C1735     1.0  0.65698  0.17547  0.23147  1.0000
  Fe  Fe286     1.0  0.65645  0.18752  0.30185  1.0000
  C   C1736     1.0  0.78356  0.48552  0.41182  1.0000
  S   S574      1.0  0.96120  0.21651  0.58780  1.0000
  C   C1737     1.0  0.94315  0.00812  0.47437  1.0000
  S   S575      1.0  0.93276  0.19611  0.63110  1.0000
  C   C1738     1.0  0.93245  0.15781  0.59486  1.0000
  C   C1739     1.0  0.89865  0.41432  0.47672  1.0000
  C   C1740     1.0  0.96943  0.25025  0.54164  1.0000
  S   S576      1.0  0.96726  0.08114  0.51550  1.0000
  C   C1741     1.0  0.78879  0.16492  0.68341  1.0000
  C   C1742     1.0  0.76519  0.00645  0.59108  1.0000
  Fe  Fe287     1.0  0.96652  0.11505  0.50853  1.0000
  S   S577      1.0  0.95361  0.13951  0.52471  1.0000
  H   H1720     1.0  0.96520  0.20048  0.64744  1.0000
  C   C1743     1.0  0.96847  0.14582  0.59407  1.0000
  H   H1721     1.0  0.76076  0.99957  0.63053  1.0000
  N   N147      1.0  0.95728  0.20907  0.67064  1.0000
  C   C1744     1.0  0.75365  0.01951  0.56497  1.0000
  H   H1722     1.0  0.95186  0.16854  0.60836  1.0000
  H   H1723     1.0  0.73845  0.16983  0.71249  1.0000
  S   S578      1.0  0.73039  0.48086  0.60655  1.0000
  Fe  Fe288     1.0  0.86722  0.23617  0.70725  1.0000
  S   S579      1.0  0.88205  0.24977  0.68302  1.0000
  H   H1724     1.0  0.96443  0.29077  0.51218  1.0000
  C   C1745     1.0  0.78539  0.17829  0.69484  1.0000
  H   H1725     1.0  0.75784  0.47445  0.63385  1.0000
  S   S580      1.0  0.71693  0.99669  0.63263  1.0000
  N   N148      1.0  0.70667  0.47269  0.54061  1.0000
  C   C1746     1.0  0.93226  0.99201  0.48118  1.0000
  S   S581      1.0  0.98824  0.18687  0.61308  1.0000
  Fe  Fe289     1.0  0.86251  0.46149  0.48445  1.0000
  S   S582      1.0  0.88635  0.44183  0.49837  1.0000
  Fe  Fe290     1.0  0.75766  0.06604  0.68873  1.0000
  H   H1726     1.0  0.68614  0.32933  0.70768  1.0000
  S   S583      1.0  0.76609  0.04408  0.66976  1.0000
  Fe  Fe291     1.0  0.77788  0.09614  0.70309  1.0000
  C   C1747     1.0  0.69287  0.46271  0.55348  1.0000
  S   S584      1.0  0.80679  0.11098  0.69861  1.0000
  S   S585      1.0  0.93294  0.05833  0.49503  1.0000
  Fe  Fe292     1.0  0.73251  0.10476  0.70124  1.0000
  S   S586      1.0  0.70669  0.12990  0.69504  1.0000
  S   S587      1.0  0.77800  0.06198  0.70798  1.0000
  S   S588      1.0  0.75990  0.09973  0.68259  1.0000
  H   H1727     1.0  0.66567  0.44305  0.58286  1.0000
  H   H1728     1.0  0.66006  0.38933  0.62013  1.0000
  H   H1729     1.0  0.84318  0.16531  0.70707  1.0000
  C   C1748     1.0  0.98869  0.14236  0.53698  1.0000
  H   H1730     1.0  0.93055  0.25062  0.68610  1.0000
  S   S589      1.0  0.74428  0.46097  0.56395  1.0000
  Fe  Fe293     1.0  0.70578  0.46274  0.61923  1.0000
  H   H1731     1.0  0.91554  0.22348  0.70543  1.0000
  S   S590      1.0  0.71136  0.43554  0.63841  1.0000
  H   H1732     1.0  0.74501  0.02958  0.54138  1.0000
  Fe  Fe294     1.0  0.95906  0.20868  0.61453  1.0000
  S   S591      1.0  0.69931  0.45436  0.59642  1.0000
  C   C1749     1.0  0.93160  0.14465  0.58392  1.0000
  H   H1733     1.0  0.96161  0.18540  0.56185  1.0000
  S   S592      1.0  0.96909  0.27245  0.57732  1.0000
  S   S593      1.0  0.98786  0.07555  0.47844  1.0000
  C   C1750     1.0  0.73440  0.46989  0.51904  1.0000
  C   C1751     1.0  0.71006  0.43765  0.69189  1.0000
  C   C1752     1.0  0.71831  0.41984  0.68523  1.0000
  C   C1753     1.0  0.71817  0.41934  0.66887  1.0000
  C   C1754     1.0  0.71009  0.43668  0.65901  1.0000
  C   C1755     1.0  0.70158  0.45442  0.66570  1.0000
  C   C1756     1.0  0.70138  0.45480  0.68212  1.0000
  H   H1734     1.0  0.72500  0.40655  0.69262  1.0000
  H   H1735     1.0  0.72472  0.40553  0.66378  1.0000
  H   H1736     1.0  0.69516  0.46781  0.65824  1.0000
  H   H1737     1.0  0.69475  0.46854  0.68726  1.0000
  C   C1757     1.0  0.75200  0.03137  0.65940  1.0000
  C   C1758     1.0  0.73073  0.03275  0.66244  1.0000
  C   C1759     1.0  0.72035  0.02217  0.65405  1.0000
  C   C1760     1.0  0.73100  0.01007  0.64248  1.0000
  C   C1761     1.0  0.75228  0.00874  0.63936  1.0000
  C   C1762     1.0  0.76266  0.01927  0.64780  1.0000
  H   H1738     1.0  0.72227  0.04196  0.67127  1.0000
  N   N149      1.0  0.76766  0.17963  0.70534  1.0000
  H   H1739     1.0  0.77910  0.01809  0.64533  1.0000
  C   C1763     1.0  0.92751  0.21938  0.69583  1.0000
  H   H1740     1.0  0.77869  0.32454  0.70593  1.0000
  Fe  Fe295     1.0  0.67632  0.48257  0.59567  1.0000
  C   C1764     1.0  0.77447  0.46287  0.53822  1.0000
  C   C1765     1.0  0.96029  0.26796  0.53291  1.0000
  H   H1741     1.0  0.77605  0.44634  0.54019  1.0000
  S   S594      1.0  0.95288  0.11541  0.48603  1.0000
  S   S595      1.0  0.97378  0.23500  0.61793  1.0000
  H   H1742     1.0  0.94537  0.27543  0.53752  1.0000
  C   C1766     1.0  0.81056  0.13037  0.70918  1.0000
  H   H1743     1.0  0.98709  0.21564  0.55485  1.0000
  H   H1744     1.0  0.66866  0.44712  0.63135  1.0000
  H   H1745     1.0  0.77665  0.14208  0.67425  1.0000
  H   H1746     1.0  0.94503  0.45954  0.48644  1.0000
  S   S596      1.0  0.71147  0.43963  0.71199  1.0000
  C   C1767     1.0  0.88968  0.03203  0.48080  1.0000
  C   C1768     1.0  0.97272  0.20355  0.65723  1.0000
  H   H1747     1.0  0.79737  0.18695  0.69568  1.0000
  H   H1748     1.0  0.93672  0.12564  0.55841  1.0000
  H   H1749     1.0  0.75185  0.32891  0.70372  1.0000
  C   C1769     1.0  0.68126  0.16503  0.70127  1.0000
  H   H1750     1.0  0.79689  0.46387  0.51695  1.0000
  C   C1770     1.0  0.82750  0.14080  0.70390  1.0000
  C   C1771     1.0  0.75750  0.02420  0.54830  1.0000
  Fe  Fe296     1.0  0.95604  0.08087  0.49205  1.0000
  S   S597      1.0  0.78608  0.99313  0.49282  1.0000
  H   H1751     1.0  0.83835  0.13638  0.69381  1.0000
  H   H1752     1.0  0.67690  0.16529  0.68961  1.0000
  C   C1772     1.0  0.96928  0.17356  0.55486  1.0000
  H   H1753     1.0  0.68362  0.47370  0.56122  1.0000
  H   H1754     1.0  0.96799  0.42801  0.48000  1.0000
  C   C1773     1.0  0.75267  0.16851  0.70437  1.0000
  H   H1755     1.0  0.74631  0.46047  0.51222  1.0000
  H   H1756     1.0  0.73801  0.02154  0.57083  1.0000
  H   H1757     1.0  0.65898  0.19112  0.70686  1.0000
  S   S598      1.0  0.66296  0.29597  0.71521  1.0000
  C   C1774     1.0  0.76038  0.47418  0.54869  1.0000
  C   C1775     1.0  0.94740  0.11839  0.56707  1.0000
  C   C1776     1.0  0.90240  0.42127  0.49034  1.0000
  C   C1777     1.0  0.91945  0.41184  0.49771  1.0000
  C   C1778     1.0  0.93287  0.39572  0.49139  1.0000
  H   H1758     1.0  0.92231  0.41709  0.50833  1.0000
  H   H1759     1.0  0.94603  0.38863  0.49710  1.0000
  C   C1779     1.0  0.94853  0.19403  0.68092  1.0000
  H   H1760     1.0  0.96078  0.30818  0.55457  1.0000
  C   C1780     1.0  0.91851  0.21114  0.64540  1.0000
  C   C1781     1.0  0.91910  0.23216  0.64375  1.0000
  C   C1782     1.0  0.90744  0.24384  0.65518  1.0000
  C   C1783     1.0  0.89545  0.23457  0.66853  1.0000
  C   C1784     1.0  0.89499  0.21351  0.67027  1.0000
  C   C1785     1.0  0.90636  0.20187  0.65865  1.0000
  H   H1761     1.0  0.92819  0.23951  0.63350  1.0000
  H   H1762     1.0  0.90780  0.26014  0.65372  1.0000
  H   H1763     1.0  0.88575  0.20623  0.68047  1.0000
  H   H1764     1.0  0.90575  0.18564  0.65996  1.0000
  C   C1786     1.0  0.76293  0.32811  0.71218  1.0000
  C   C1787     1.0  0.96818  0.15002  0.53600  1.0000
  C   C1788     1.0  0.95858  0.16573  0.54492  1.0000
  C   C1789     1.0  0.94346  0.45292  0.47605  1.0000
  H   H1765     1.0  0.94268  0.17169  0.54429  1.0000
  H   H1766     1.0  0.94203  0.10421  0.57379  1.0000
  H   H1767     1.0  0.68412  0.09610  0.71893  1.0000
  S   S599      1.0  0.83339  0.23750  0.71545  1.0000
  H   H1768     1.0  0.68221  0.45536  0.54841  1.0000
  C   C1790     1.0  0.92908  0.38873  0.47780  1.0000
  C   C1791     1.0  0.76436  0.19342  0.71747  1.0000
  C   C1792     1.0  0.90288  0.03791  0.48990  1.0000
  C   C1793     1.0  0.95096  0.22920  0.67236  1.0000
  C   C1794     1.0  0.77386  0.15307  0.68266  1.0000
  S   S600      1.0  0.87530  0.20392  0.71904  1.0000
  Fe  Fe297     1.0  0.97866  0.24121  0.59091  1.0000
  H   H1769     1.0  0.82002  0.33537  0.71429  1.0000
  H   H1770     1.0  0.91886  0.16757  0.59941  1.0000
  C   C1795     1.0  0.96706  0.13279  0.58320  1.0000
  H   H1771     1.0  0.76741  0.98952  0.59405  1.0000
  H   H1772     1.0  0.74387  0.14591  0.69251  1.0000
  C   C1796     1.0  0.75558  0.15502  0.69307  1.0000
  H   H1773     1.0  0.88051  0.02012  0.48590  1.0000
  H   H1774     1.0  0.74958  0.44770  0.67563  1.0000
  S   S601      1.0  0.82959  0.45856  0.48435  1.0000
  H   H1775     1.0  0.96134  0.24424  0.55302  1.0000
  H   H1776     1.0  0.73238  0.47935  0.68226  1.0000
  H   H1777     1.0  0.90374  0.03040  0.50201  1.0000
  C   C1797     1.0  0.83028  0.15718  0.71139  1.0000
  C   C1798     1.0  0.93364  0.19893  0.69374  1.0000
  C   C1799     1.0  0.69648  0.14963  0.70674  1.0000
  C   C1800     1.0  0.93611  0.23465  0.68504  1.0000
  C   C1801     1.0  0.67112  0.17971  0.71100  1.0000
  C   C1802     1.0  0.78630  0.47277  0.52502  1.0000
  H   H1778     1.0  0.95287  0.17815  0.67909  1.0000
  C   C1803     1.0  0.77751  0.02120  0.54057  1.0000
  Fe  Fe298     1.0  0.97777  0.35982  0.47564  1.0000
  N   N150      1.0  0.94881  0.13248  0.57815  1.0000
  N   N151      1.0  0.76934  0.01210  0.57368  1.0000
  C   C1804     1.0  0.95102  0.15835  0.59993  1.0000
  H   H1779     1.0  0.78066  0.02409  0.52760  1.0000
  C   C1805     1.0  0.66651  0.41720  0.62626  1.0000
  H   H1780     1.0  0.75064  0.98956  0.51636  1.0000
  H   H1781     1.0  0.80130  0.00218  0.57300  1.0000
  H   H1782     1.0  0.70187  0.45088  0.56129  1.0000
  H   H1783     1.0  0.98214  0.21594  0.65243  1.0000
  S   S602      1.0  0.72879  0.07140  0.70595  1.0000
  H   H1784     1.0  0.90279  0.47641  0.48023  1.0000
  C   C1806     1.0  0.78899  0.00894  0.56617  1.0000
  Fe  Fe299     1.0  0.98553  0.10995  0.47429  1.0000
  Fe  Fe300     1.0  0.72201  0.47479  0.58366  1.0000
  C   C1807     1.0  0.97101  0.27658  0.51874  1.0000
  C   C1808     1.0  0.98754  0.30930  0.53679  1.0000
  H   H1785     1.0  0.95776  0.17573  0.47855  1.0000
  C   C1809     1.0  0.91525  0.05312  0.48339  1.0000
  H   H1786     1.0  0.80328  0.16307  0.67566  1.0000
  H   H1787     1.0  0.75257  0.44349  0.65524  1.0000
  C   C1810     1.0  0.72101  0.46086  0.53143  1.0000
  H   H1788     1.0  0.95262  0.01383  0.48128  1.0000
  H   H1789     1.0  0.95704  0.24119  0.66369  1.0000
  C   C1811     1.0  0.97619  0.30105  0.55100  1.0000
  H   H1790     1.0  0.70391  0.02338  0.65657  1.0000
  H   H1791     1.0  0.72264  0.44432  0.53406  1.0000
  Fe  Fe301     1.0  0.81605  0.98927  0.47603  1.0000
  C   C1812     1.0  0.79339  0.01357  0.54954  1.0000
  N   N152      1.0  0.98861  0.24122  0.53625  1.0000
  H   H1792     1.0  0.98345  0.18972  0.66096  1.0000
  H   H1793     1.0  0.96238  0.11425  0.55975  1.0000
  H   H1794     1.0  0.92649  0.18705  0.70178  1.0000
  H   H1795     1.0  0.77235  0.45343  0.66242  1.0000
  N   N153      1.0  0.74591  0.47482  0.65849  1.0000
  H   H1796     1.0  0.98079  0.12337  0.57850  1.0000
  H   H1797     1.0  0.80890  0.01046  0.54357  1.0000
  H   H1798     1.0  0.77565  0.01278  0.59715  1.0000
  C   C1813     1.0  0.75563  0.45387  0.66320  1.0000
  H   H1799     1.0  0.68150  0.41063  0.62943  1.0000
  C   C1814     1.0  0.98449  0.28337  0.56042  1.0000
  H   H1800     1.0  0.91711  0.14431  0.58000  1.0000
  H   H1801     1.0  0.75417  0.20761  0.71365  1.0000
  H   H1802     1.0  0.76191  0.34345  0.71589  1.0000
  C   C1815     1.0  0.68444  0.32508  0.72053  1.0000
  H   H1803     1.0  0.98090  0.32271  0.52948  1.0000
  H   H1804     1.0  0.74932  0.01241  0.59603  1.0000
  C   C1816     1.0  0.65931  0.43776  0.62734  1.0000
  H   H1805     1.0  0.78165  0.28954  0.71756  1.0000
  H   H1806     1.0  0.98310  0.14651  0.59764  1.0000
  H   H1807     1.0  0.77900  0.19755  0.71956  1.0000
  C   C1817     1.0  0.74878  0.48327  0.64277  1.0000
  C   C1818     1.0  0.95645  0.43511  0.47249  1.0000
  H   H1808     1.0  0.65709  0.12370  0.71066  1.0000
  H   H1809     1.0  0.74922  0.98654  0.47921  1.0000
  S   S603      1.0  0.75055  0.10335  0.72136  1.0000
  S   S604      1.0  0.90730  0.20950  0.75214  1.0000
  S   S605      1.0  0.84622  0.21816  0.75096  1.0000
  H   H1810     1.0  0.83066  0.29814  0.79414  1.0000
  H   H1811     1.0  0.69566  0.16336  0.74347  1.0000
  S   S606      1.0  0.96062  0.23762  0.84083  1.0000
  C   C1819     1.0  0.89780  0.09611  0.94465  1.0000
  Fe  Fe302     1.0  0.95861  0.24910  0.81478  1.0000
  S   S607      1.0  0.92796  0.25572  0.80551  1.0000
  S   S608      1.0  0.87248  0.25110  0.72767  1.0000
  S   S609      1.0  0.73998  0.05008  0.74841  1.0000
  C   C1820     1.0  0.81849  0.30669  0.72991  1.0000
  C   C1821     1.0  0.79338  0.30803  0.75359  1.0000
  H   H1812     1.0  0.77427  0.26367  0.74100  1.0000
  Fe  Fe303     1.0  0.93837  0.08589  0.88681  1.0000
  S   S610      1.0  0.90836  0.07959  0.90153  1.0000
  S   S611      1.0  0.94108  0.11994  0.88487  1.0000
  Fe  Fe304     1.0  0.95055  0.04054  0.88276  1.0000
  S   S612      1.0  0.92165  0.03165  0.89723  1.0000
  H   H1813     1.0  0.95440  0.47777  0.92960  1.0000
  Fe  Fe305     1.0  0.90600  0.05950  0.88356  1.0000
  S   S613      1.0  0.87749  0.06114  0.87199  1.0000
  Fe  Fe306     1.0  0.92665  0.05230  0.91397  1.0000
  S   S614      1.0  0.92003  0.04046  0.94036  1.0000
  S   S615      1.0  0.93459  0.06762  0.86786  1.0000
  S   S616      1.0  0.95690  0.05931  0.90057  1.0000
  C   C1822     1.0  0.80906  0.29687  0.74421  1.0000
  H   H1814     1.0  0.73456  0.33302  0.73744  1.0000
  H   H1815     1.0  0.78993  0.01097  0.88685  1.0000
  C   C1823     1.0  0.74319  0.31777  0.73808  1.0000
  H   H1816     1.0  0.85556  0.27209  0.77429  1.0000
  H   H1817     1.0  0.71858  0.03189  0.89546  1.0000
  H   H1818     1.0  0.88294  0.27593  0.75136  1.0000
  C   C1824     1.0  0.69193  0.33668  0.73001  1.0000
  S   S617      1.0  0.79288  0.03026  0.80572  1.0000
  H   H1819     1.0  0.78623  0.02401  0.73401  1.0000
  C   C1825     1.0  0.88921  0.09023  0.96042  1.0000
  S   S618      1.0  0.78093  0.01031  0.85260  1.0000
  H   H1820     1.0  0.71946  0.46649  0.76662  1.0000
  S   S619      1.0  0.70498  0.40603  0.75360  1.0000
  Fe  Fe307     1.0  0.75899  0.38069  0.73919  1.0000
  S   S620      1.0  0.74294  0.37211  0.76398  1.0000
  S   S621      1.0  0.98476  0.22674  0.80548  1.0000
  Fe  Fe308     1.0  0.71587  0.37284  0.75128  1.0000
  S   S622      1.0  0.69665  0.34688  0.75924  1.0000
  Fe  Fe309     1.0  0.73361  0.40615  0.76428  1.0000
  S   S623      1.0  0.72825  0.42448  0.78562  1.0000
  H   H1821     1.0  0.75353  0.02157  0.88245  1.0000
  S   S624      1.0  0.75181  0.41467  0.74025  1.0000
  C   C1826     1.0  0.76480  0.45408  0.81494  1.0000
  C   C1827     1.0  0.74349  0.45610  0.81790  1.0000
  C   C1828     1.0  0.73273  0.44633  0.80920  1.0000
  C   C1829     1.0  0.74300  0.43476  0.79716  1.0000
  C   C1830     1.0  0.76433  0.43262  0.79426  1.0000
  C   C1831     1.0  0.77512  0.44204  0.80321  1.0000
  C   C1832     1.0  0.98062  0.34013  0.83535  1.0000
  H   H1822     1.0  0.71628  0.44790  0.81174  1.0000
  H   H1823     1.0  0.77252  0.42372  0.78514  1.0000
  H   H1824     1.0  0.79160  0.44022  0.80087  1.0000
  H   H1825     1.0  0.95435  0.08825  0.96067  1.0000
  C   C1833     1.0  0.78427  0.99843  0.89580  1.0000
  C   C1834     1.0  0.91736  0.01800  0.85673  1.0000
  H   H1826     1.0  0.77512  0.33734  0.75617  1.0000
  H   H1827     1.0  0.71352  0.09525  0.74519  1.0000
  N   N154      1.0  0.90025  0.01653  0.84851  1.0000
  Fe  Fe310     1.0  0.72378  0.41283  0.72959  1.0000
  H   H1828     1.0  0.86852  0.04590  0.82417  1.0000
  H   H1829     1.0  0.78874  0.15668  0.73998  1.0000
  H   H1830     1.0  0.92538  0.13100  0.95055  1.0000
  C   C1835     1.0  0.75401  0.04590  0.76472  1.0000
  C   C1836     1.0  0.77077  0.05590  0.76444  1.0000
  C   C1837     1.0  0.78220  0.05135  0.77731  1.0000
  C   C1838     1.0  0.77707  0.03668  0.79048  1.0000
  C   C1839     1.0  0.76014  0.02690  0.79085  1.0000
  C   C1840     1.0  0.74860  0.03159  0.77805  1.0000
  H   H1831     1.0  0.77506  0.06699  0.75426  1.0000
  H   H1832     1.0  0.79525  0.05903  0.77696  1.0000
  H   H1833     1.0  0.73560  0.02385  0.77838  1.0000
  S   S625      1.0  0.66046  0.00561  0.96499  1.0000
  S   S626      1.0  0.77924  0.46658  0.82519  1.0000
  C   C1841     1.0  0.78719  0.32890  0.74881  1.0000
  H   H1834     1.0  0.95416  0.46283  0.89213  1.0000
  H   H1835     1.0  0.73529  0.46507  0.82698  1.0000
  Fe  Fe311     1.0  0.83948  0.24934  0.73698  1.0000
  C   C1842     1.0  0.69182  0.16403  0.73159  1.0000
  H   H1836     1.0  0.69924  0.34980  0.72445  1.0000
  C   C1843     1.0  0.92801  0.05122  0.95537  1.0000
  C   C1844     1.0  0.94061  0.06644  0.95154  1.0000
  S   S627      1.0  0.98108  0.28314  0.85714  1.0000
  H   H1837     1.0  0.70153  0.07595  0.73951  1.0000
  H   H1838     1.0  0.94655  0.07112  0.93920  1.0000
  H   H1839     1.0  0.72637  0.30749  0.76088  1.0000
  C   C1845     1.0  0.67416  0.30845  0.72757  1.0000
  C   C1846     1.0  0.86348  0.04052  0.87374  1.0000
  C   C1847     1.0  0.86913  0.02161  0.88273  1.0000
  C   C1848     1.0  0.85856  0.00511  0.88282  1.0000
  C   C1849     1.0  0.84240  0.00731  0.87383  1.0000
  C   C1850     1.0  0.83643  0.02634  0.86513  1.0000
  C   C1851     1.0  0.84690  0.04288  0.86516  1.0000
  H   H1840     1.0  0.88176  0.01963  0.88949  1.0000
  C   C1852     1.0  0.97123  0.12950  0.85930  1.0000
  H   H1841     1.0  0.82399  0.02825  0.85818  1.0000
  H   H1842     1.0  0.84241  0.05749  0.85820  1.0000
  H   H1843     1.0  0.73069  0.47393  0.94765  1.0000
  H   H1844     1.0  0.97812  0.48303  0.85624  1.0000
  S   S628      1.0  0.81677  0.27098  0.75125  1.0000
  H   H1845     1.0  0.94445  0.20936  0.76452  1.0000
  C   C1853     1.0  0.69907  0.08869  0.74679  1.0000
  H   H1846     1.0  0.95299  0.22710  0.78529  1.0000
  C   C1854     1.0  0.94507  0.07606  0.96373  1.0000
  C   C1855     1.0  0.96784  0.46961  0.89160  1.0000
  C   C1856     1.0  0.67962  0.31464  0.75366  1.0000
  N   N155      1.0  0.91034  0.11085  0.94118  1.0000
  C   C1857     1.0  0.68924  0.33171  0.74666  1.0000
  Fe  Fe312     1.0  0.87878  0.21901  0.74001  1.0000
  C   C1858     1.0  0.96363  0.00641  0.92761  1.0000
  H   H1847     1.0  0.71368  0.13761  0.72619  1.0000
  H   H1848     1.0  0.85449  0.01313  0.82738  1.0000
  H   H1849     1.0  0.67758  0.31061  0.76653  1.0000
  C   C1859     1.0  0.74788  0.48057  0.77663  1.0000
  C   C1860     1.0  0.96274  0.17166  0.86113  1.0000
  C   C1861     1.0  0.95129  0.15781  0.87156  1.0000
  C   C1862     1.0  0.95549  0.13664  0.87079  1.0000
  H   H1850     1.0  0.96507  0.34097  0.84144  1.0000
  C   C1863     1.0  0.70206  0.14943  0.72182  1.0000
  H   H1851     1.0  0.95948  0.18782  0.86209  1.0000
  H   H1852     1.0  0.93922  0.16351  0.88044  1.0000
  S   S629      1.0  0.81787  0.18449  0.73355  1.0000
  C   C1864     1.0  0.81251  0.32772  0.72526  1.0000
  N   N156      1.0  0.76383  0.00511  0.90388  1.0000
  H   H1853     1.0  0.88000  0.07792  0.96318  1.0000
  H   H1854     1.0  0.91553  0.03321  0.86079  1.0000
  C   C1865     1.0  0.89196  0.03335  0.83905  1.0000
  C   C1866     1.0  0.97758  0.45144  0.93041  1.0000
  C   C1867     1.0  0.91307  0.22360  0.76617  1.0000
  C   C1868     1.0  0.89819  0.23744  0.77377  1.0000
  C   C1869     1.0  0.90307  0.24747  0.78559  1.0000
  C   C1870     1.0  0.92283  0.24376  0.78990  1.0000
  C   C1871     1.0  0.93775  0.23011  0.78213  1.0000
  C   C1872     1.0  0.93287  0.22008  0.77033  1.0000
  H   H1855     1.0  0.88285  0.24000  0.77079  1.0000
  H   H1856     1.0  0.89142  0.25794  0.79159  1.0000
  H   H1857     1.0  0.69137  0.46527  0.91246  1.0000
  C   C1873     1.0  0.65839  0.13427  0.74794  1.0000
  H   H1858     1.0  0.89498  0.08822  0.93530  1.0000
  H   H1859     1.0  0.97866  0.31406  0.82441  1.0000
  H   H1860     1.0  0.97630  0.31533  0.87656  1.0000
  N   N157      1.0  0.75856  0.31280  0.72614  1.0000
  N   N158      1.0  0.68244  0.10461  0.74216  1.0000
  C   C1874     1.0  0.79958  0.15233  0.72986  1.0000
  H   H1861     1.0  0.81442  0.02805  0.74825  1.0000
  Fe  Fe313     1.0  0.98282  0.26032  0.83935  1.0000
  C   C1875     1.0  0.80467  0.01649  0.75314  1.0000
  H   H1862     1.0  0.81898  0.00686  0.77435  1.0000
  C   C1876     1.0  0.78887  0.01422  0.74513  1.0000
  S   S630      1.0  0.73246  0.37964  0.72648  1.0000
  C   C1877     1.0  0.71879  0.43826  0.94566  1.0000
  C   C1878     1.0  0.97874  0.16447  0.84986  1.0000
  C   C1879     1.0  0.81624  0.16307  0.72437  1.0000
  C   C1880     1.0  0.67603  0.17895  0.72635  1.0000
  H   H1863     1.0  0.81736  0.28572  0.78252  1.0000
  C   C1881     1.0  0.91998  0.11593  0.92467  1.0000
  S   S631      1.0  0.98778  0.43035  0.89340  1.0000
  C   C1882     1.0  0.67651  0.10634  0.72738  1.0000
  H   H1864     1.0  0.80005  0.98773  0.79841  1.0000
  C   C1883     1.0  0.69741  0.47773  0.91579  1.0000
  H   H1865     1.0  0.91818  0.00648  0.86762  1.0000
  C   C1884     1.0  0.71231  0.47679  0.77561  1.0000
  H   H1866     1.0  0.79564  0.99381  0.90429  1.0000
  C   C1885     1.0  0.87555  0.03233  0.83115  1.0000
  H   H1867     1.0  0.72994  0.42406  0.94691  1.0000
  H   H1868     1.0  0.96752  0.44105  0.92878  1.0000
  H   H1869     1.0  0.90865  0.11811  0.91618  1.0000
  S   S632      1.0  0.96857  0.01360  0.87132  1.0000
  S   S633      1.0  0.97801  0.27355  0.81418  1.0000
  C   C1886     1.0  0.67375  0.11843  0.75234  1.0000
  H   H1870     1.0  0.89748  0.04790  0.83811  1.0000
  H   H1871     1.0  0.78592  0.30047  0.76462  1.0000
  C   C1887     1.0  0.85485  0.32307  0.74576  1.0000
  H   H1872     1.0  0.94865  0.00950  0.92310  1.0000
  H   H1873     1.0  0.75742  0.18583  0.72915  1.0000
  C   C1888     1.0  0.79665  0.13616  0.72225  1.0000
  H   H1874     1.0  0.70887  0.02016  0.92445  1.0000
  H   H1875     1.0  0.93203  0.01579  0.84862  1.0000
  C   C1889     1.0  0.98674  0.45703  0.89199  1.0000
  C   C1890     1.0  0.80715  0.00448  0.76788  1.0000
  H   H1876     1.0  0.66436  0.29022  0.74974  1.0000
  H   H1877     1.0  0.97473  0.11328  0.85859  1.0000
  S   S634      1.0  0.78985  0.36523  0.72872  1.0000
  C   C1891     1.0  0.98286  0.14334  0.84898  1.0000
  H   H1878     1.0  0.67900  0.11753  0.76379  1.0000
  C   C1892     1.0  0.91481  0.11992  0.95315  1.0000
  H   H1879     1.0  0.69574  0.08182  0.75949  1.0000
  H   H1880     1.0  0.85408  0.33727  0.73754  1.0000
  C   C1893     1.0  0.72987  0.02300  0.90253  1.0000
  H   H1881     1.0  0.70394  0.46722  0.78557  1.0000
  H   H1882     1.0  0.72407  0.44828  0.93457  1.0000
  H   H1883     1.0  0.93230  0.10340  0.92139  1.0000
  C   C1894     1.0  0.97029  0.47222  0.93081  1.0000
  N   N159      1.0  0.98312  0.48546  0.93227  1.0000
  C   C1895     1.0  0.87091  0.28862  0.75344  1.0000
  C   C1896     1.0  0.76933  0.29349  0.72693  1.0000
  H   H1884     1.0  0.92680  0.13029  0.92283  1.0000
  C   C1897     1.0  0.87045  0.30693  0.74295  1.0000
  C   C1898     1.0  0.74971  0.01707  0.89522  1.0000
  C   C1899     1.0  0.82416  0.29970  0.78281  1.0000
  N   N160      1.0  0.84016  0.30243  0.76909  1.0000
  C   C1900     1.0  0.83980  0.32060  0.75903  1.0000
  C   C1901     1.0  0.85549  0.28659  0.76648  1.0000
  Fe  Fe314     1.0  0.84175  0.20613  0.72888  1.0000
  C   C1902     1.0  0.90642  0.11445  0.96905  1.0000
  H   H1885     1.0  0.81154  0.31277  0.78262  1.0000
  C   C1903     1.0  0.77588  0.99991  0.75185  1.0000
  H   H1886     1.0  0.82749  0.33310  0.76089  1.0000
  C   C1904     1.0  0.76515  0.27872  0.74014  1.0000
  Fe  Fe315     1.0  0.78796  0.00527  0.82678  1.0000
  C   C1905     1.0  0.67208  0.30307  0.74418  1.0000
  H   H1887     1.0  0.88205  0.30851  0.73257  1.0000
  H   H1888     1.0  0.83062  0.29819  0.72262  1.0000
  H   H1889     1.0  0.76946  0.98812  0.92649  1.0000
  H   H1890     1.0  0.75301  0.46957  0.76829  1.0000
  H   H1891     1.0  0.96045  0.00854  0.94045  1.0000
  H   H1892     1.0  0.98770  0.36487  0.84574  1.0000
  H   H1893     1.0  0.75597  0.01568  0.80095  1.0000
  N   N161      1.0  0.92199  0.20076  0.82014  1.0000
  C   C1906     1.0  0.91339  0.19590  0.80808  1.0000
  C   C1907     1.0  0.94105  0.19147  0.82302  1.0000
  C   C1908     1.0  0.92414  0.18174  0.79827  1.0000
  C   C1909     1.0  0.95219  0.17719  0.81349  1.0000
  C   C1910     1.0  0.94368  0.17238  0.80101  1.0000
  C   C1911     1.0  0.91029  0.21516  0.83060  1.0000
  H   H1894     1.0  0.89832  0.20330  0.80572  1.0000
  H   H1895     1.0  0.94778  0.19510  0.83269  1.0000
  H   H1896     1.0  0.91746  0.17842  0.78841  1.0000
  H   H1897     1.0  0.96732  0.16992  0.81585  1.0000
  H   H1898     1.0  0.95221  0.16144  0.79345  1.0000
  H   H1899     1.0  0.92054  0.22399  0.83477  1.0000
  H   H1900     1.0  0.89947  0.22668  0.82409  1.0000
  H   H1901     1.0  0.90173  0.20675  0.84113  1.0000
  H   H1902     1.0  0.97319  0.01790  0.92095  1.0000
  C   C1912     1.0  0.74962  0.28373  0.75244  1.0000
  C   C1913     1.0  0.79685  0.33887  0.73470  1.0000
  C   C1914     1.0  0.89292  0.99833  0.85006  1.0000
  H   H1903     1.0  0.74631  0.27246  0.76280  1.0000
  C   C1915     1.0  0.87644  0.99680  0.84242  1.0000
  S   S635      1.0  0.66135  0.19472  0.73997  1.0000
  C   C1916     1.0  0.72354  0.46669  0.95897  1.0000
  H   H1904     1.0  0.70384  0.43442  0.94403  1.0000
  S   S636      1.0  0.67257  0.47059  0.94431  1.0000
  Fe  Fe316     1.0  0.98772  0.21605  0.83148  1.0000
  C   C1917     1.0  0.73851  0.30335  0.75141  1.0000
  C   C1918     1.0  0.66113  0.12192  0.72263  1.0000
  H   H1905     1.0  0.77860  0.48369  0.77934  1.0000
  H   H1906     1.0  0.69226  0.99703  0.88951  1.0000
  C   C1919     1.0  0.86770  0.01394  0.83294  1.0000
  C   C1920     1.0  0.98842  0.32490  0.82567  1.0000
  C   C1921     1.0  0.69006  0.48431  0.93073  1.0000
  Fe  Fe317     1.0  0.74926  0.06946  0.72476  1.0000
  H   H1907     1.0  0.78364  0.12820  0.72648  1.0000
  C   C1922     1.0  0.70256  0.98719  0.89695  1.0000
  S   S637      1.0  0.73061  0.98901  0.86972  1.0000
  H   H1908     1.0  0.68059  0.98752  0.91850  1.0000
  H   H1909     1.0  0.71851  0.48147  0.89387  1.0000
  N   N162      1.0  0.71639  0.44850  0.95988  1.0000
  Fe  Fe318     1.0  0.65625  0.47894  0.96836  1.0000
  H   H1910     1.0  0.86317  0.99046  0.88967  1.0000
  C   C1923     1.0  0.72443  0.01638  0.91876  1.0000
  N   N163      1.0  0.79430  0.99052  0.77442  1.0000
  H   H1911     1.0  0.76317  0.99857  0.74592  1.0000
  H   H1912     1.0  0.73440  0.99792  0.93990  1.0000
  C   C1924     1.0  0.73882  0.00392  0.92746  1.0000
  C   C1925     1.0  0.75855  0.99832  0.91977  1.0000
  C   C1926     1.0  0.77892  0.98800  0.76654  1.0000
  N   N164      1.0  0.97405  0.98572  0.92568  1.0000
  Fe  Fe319     1.0  0.80734  0.98572  0.85683  1.0000
  H   H1913     1.0  0.76913  0.98299  0.15950  1.0000
  H   H1914     1.0  0.84414  0.53169  0.04080  1.0000
  S   S638      1.0  0.95806  0.70172  0.16102  1.0000
  H   H1915     1.0  0.98181  0.50548  0.06397  1.0000
  C   C1927     1.0  0.89508  0.53328  0.03660  1.0000
  C   C1928     1.0  0.77256  0.56737  0.12188  1.0000
  Fe  Fe320     1.0  0.76442  0.57447  0.20923  1.0000
  S   S639      1.0  0.77785  0.55576  0.18880  1.0000
  C   C1929     1.0  0.69211  0.98118  0.02475  1.0000
  C   C1930     1.0  0.69414  0.49763  0.03168  1.0000
  Fe  Fe321     1.0  0.79365  0.51299  0.08697  1.0000
  S   S640      1.0  0.76047  0.52624  0.08935  1.0000
  S   S641      1.0  0.81471  0.53668  0.07615  1.0000
  Fe  Fe322     1.0  0.75796  0.50970  0.11439  1.0000
  S   S642      1.0  0.73945  0.52757  0.13382  1.0000
  S   S643      1.0  0.73134  0.58296  0.21941  1.0000
  C   C1931     1.0  0.85857  0.53761  0.03728  1.0000
  C   C1932     1.0  0.95424  0.72133  0.21980  1.0000
  C   C1933     1.0  0.94743  0.97205  0.08089  1.0000
  S   S644      1.0  0.76327  0.96796  0.12994  1.0000
  H   H1916     1.0  0.88608  0.58778  0.00705  1.0000
  H   H1917     1.0  0.66236  0.88612  0.20385  1.0000
  Fe  Fe323     1.0  0.71754  0.90076  0.21018  1.0000
  S   S645      1.0  0.66163  0.50126  0.98375  1.0000
  S   S646      1.0  0.70936  0.92905  0.19220  1.0000
  H   H1918     1.0  0.95014  0.75403  0.21382  1.0000
  H   H1919     1.0  0.90924  0.55987  0.02649  1.0000
  S   S647      1.0  0.72601  0.98118  0.06008  1.0000
  H   H1920     1.0  0.93678  0.93200  0.06555  1.0000
  S   S648      1.0  0.72366  0.86876  0.20395  1.0000
  Fe  Fe324     1.0  0.95306  0.58825  0.06563  1.0000
  S   S649      1.0  0.95943  0.55425  0.07394  1.0000
  S   S650      1.0  0.95485  0.60968  0.08380  1.0000
  Fe  Fe325     1.0  0.94163  0.58037  0.03388  1.0000
  S   S651      1.0  0.94756  0.54627  0.04002  1.0000
  S   S652      1.0  0.92886  0.59511  0.01099  1.0000
  Fe  Fe326     1.0  0.93088  0.55158  0.06429  1.0000
  S   S653      1.0  0.91036  0.52833  0.07695  1.0000
  C   C1934     1.0  0.97629  0.65441  0.10104  1.0000
  C   C1935     1.0  0.90330  0.70272  0.16144  1.0000
  S   S654      1.0  0.92308  0.58552  0.05775  1.0000
  S   S655      1.0  0.97089  0.58583  0.04114  1.0000
  C   C1936     1.0  0.93219  0.58190  0.99422  1.0000
  C   C1937     1.0  0.94284  0.56206  0.99450  1.0000
  H   H1921     1.0  0.94965  0.55469  0.00494  1.0000
  H   H1922     1.0  0.96049  0.94015  0.08216  1.0000
  N   N165      1.0  0.87708  0.56575  0.02658  1.0000
  S   S656      1.0  0.65979  0.77049  0.19135  1.0000
  C   C1938     1.0  0.85901  0.55798  0.03032  1.0000
  H   H1923     1.0  0.96242  0.57050  0.10583  1.0000
  C   C1939     1.0  0.72431  0.93796  0.17410  1.0000
  C   C1940     1.0  0.74518  0.93108  0.17079  1.0000
  C   C1941     1.0  0.75676  0.93989  0.15688  1.0000
  C   C1942     1.0  0.74758  0.95548  0.14606  1.0000
  C   C1943     1.0  0.72655  0.96175  0.14906  1.0000
  C   C1944     1.0  0.71501  0.95309  0.16305  1.0000
  H   H1924     1.0  0.75254  0.91942  0.17916  1.0000
  H   H1925     1.0  0.77302  0.93491  0.15466  1.0000
  N   N166      1.0  0.88135  0.72745  0.17625  1.0000
  H   H1926     1.0  0.69885  0.95848  0.16545  1.0000
  C   C1945     1.0  0.84105  0.53432  0.07747  1.0000
  C   C1946     1.0  0.85112  0.55153  0.07229  1.0000
  C   C1947     1.0  0.87230  0.55006  0.07227  1.0000
  C   C1948     1.0  0.88355  0.53136  0.07760  1.0000
  C   C1949     1.0  0.87336  0.51431  0.08322  1.0000
  C   C1950     1.0  0.85221  0.51574  0.08312  1.0000
  H   H1927     1.0  0.84256  0.56601  0.06801  1.0000
  H   H1928     1.0  0.87995  0.56332  0.06802  1.0000
  H   H1929     1.0  0.88194  0.49982  0.08745  1.0000
  H   H1930     1.0  0.84462  0.50241  0.08721  1.0000
  H   H1931     1.0  0.84474  0.56758  0.02823  1.0000
  H   H1932     1.0  0.75301  0.97260  0.17650  1.0000
  H   H1933     1.0  0.69305  0.62519  0.21154  1.0000
  Fe  Fe327     1.0  0.75441  0.49768  0.08126  1.0000
  H   H1934     1.0  0.90273  0.73518  0.15563  1.0000
  C   C1951     1.0  0.71772  0.49358  0.05160  1.0000
  C   C1952     1.0  0.65827  0.66886  0.21142  1.0000
  H   H1935     1.0  0.71497  0.53874  0.08214  1.0000
  H   H1936     1.0  0.87379  0.67943  0.19305  1.0000
  C   C1953     1.0  0.76599  0.54662  0.17477  1.0000
  C   C1954     1.0  0.77775  0.53258  0.16513  1.0000
  C   C1955     1.0  0.76975  0.52631  0.15277  1.0000
  C   C1956     1.0  0.74976  0.53394  0.14995  1.0000
  C   C1957     1.0  0.73780  0.54760  0.15984  1.0000
  C   C1958     1.0  0.74586  0.55396  0.17216  1.0000
  H   H1937     1.0  0.79330  0.52673  0.16708  1.0000
  H   H1938     1.0  0.77910  0.51568  0.14539  1.0000
  H   H1939     1.0  0.72230  0.55355  0.15782  1.0000
  H   H1940     1.0  0.73662  0.56479  0.17944  1.0000
  H   H1941     1.0  0.82158  0.66328  0.20725  1.0000
  S   S657      1.0  0.97736  0.72417  0.11612  1.0000
  H   H1942     1.0  0.83577  0.54909  0.10913  1.0000
  C   C1959     1.0  0.69996  0.65492  0.21328  1.0000
  H   H1943     1.0  0.95833  0.97559  0.08770  1.0000
  C   C1960     1.0  0.91979  0.98276  0.06587  1.0000
  H   H1944     1.0  0.86138  0.71548  0.19640  1.0000
  C   C1961     1.0  0.69208  0.67569  0.21338  1.0000
  H   H1945     1.0  0.69041  0.91604  0.16967  1.0000
  C   C1962     1.0  0.68236  0.79736  0.19907  1.0000
  C   C1963     1.0  0.68536  0.81391  0.20630  1.0000
  C   C1964     1.0  0.69901  0.53540  0.08527  1.0000
  C   C1965     1.0  0.87315  0.71205  0.18652  1.0000
  C   C1966     1.0  0.92072  0.96284  0.06250  1.0000
  H   H1946     1.0  0.69512  0.78929  0.19205  1.0000
  H   H1947     1.0  0.81561  0.82003  0.21459  1.0000
  Fe  Fe328     1.0  0.98220  0.71337  0.14168  1.0000
  S   S658      1.0  0.73240  0.50535  0.06226  1.0000
  H   H1948     1.0  0.86206  0.59584  0.01879  1.0000
  H   H1949     1.0  0.90919  0.52399  0.03955  1.0000
  C   C1967     1.0  0.96915  0.62952  0.08519  1.0000
  C   C1968     1.0  0.96509  0.63907  0.09910  1.0000
  H   H1950     1.0  0.70503  0.50267  0.13628  1.0000
  C   C1969     1.0  0.87382  0.74883  0.17833  1.0000
  H   H1951     1.0  0.95306  0.63468  0.10845  1.0000
  H   H1952     1.0  0.97280  0.66163  0.11177  1.0000
  C   C1970     1.0  0.94485  0.55174  0.98116  1.0000
  C   C1971     1.0  0.70191  0.51864  0.11257  1.0000
  H   H1953     1.0  0.82240  0.52731  0.11188  1.0000
  C   C1972     1.0  0.87674  0.52525  0.04051  1.0000
  C   C1973     1.0  0.94381  0.71730  0.17472  1.0000
  C   C1974     1.0  0.93129  0.70819  0.18771  1.0000
  C   C1975     1.0  0.91819  0.72017  0.19815  1.0000
  C   C1976     1.0  0.91780  0.74133  0.19594  1.0000
  C   C1977     1.0  0.93070  0.75049  0.18316  1.0000
  C   C1978     1.0  0.94367  0.73849  0.17251  1.0000
  H   H1954     1.0  0.93132  0.69181  0.18944  1.0000
  H   H1955     1.0  0.90822  0.71294  0.20774  1.0000
  H   H1956     1.0  0.93046  0.76690  0.18135  1.0000
  H   H1957     1.0  0.95325  0.74563  0.16244  1.0000
  H   H1958     1.0  0.97860  0.58690  0.11034  1.0000
  H   H1959     1.0  0.72679  0.86258  0.15316  1.0000
  H   H1960     1.0  0.86845  0.75036  0.19114  1.0000
  H   H1961     1.0  0.96664  0.96791  0.03955  1.0000
  N   N167      1.0  0.69825  0.51737  0.09753  1.0000
  H   H1962     1.0  0.75902  0.56885  0.11616  1.0000
  C   C1979     1.0  0.68550  0.86665  0.18194  1.0000
  N   N168      1.0  0.80724  0.55224  0.12403  1.0000
  S   S659      1.0  0.77707  0.84593  0.21735  1.0000
  H   H1963     1.0  0.87651  0.50971  0.04656  1.0000
  C   C1980     1.0  0.89497  0.55364  0.02948  1.0000
  H   H1964     1.0  0.66963  0.91496  0.97931  1.0000
  H   H1965     1.0  0.90114  0.67110  0.17062  1.0000
  H   H1966     1.0  0.97925  0.56133  0.12083  1.0000
  S   S660      1.0  0.90136  0.75655  0.20902  1.0000
  H   H1967     1.0  0.70458  0.84082  0.17252  1.0000
  C   C1981     1.0  0.67130  0.68265  0.21247  1.0000
  H   H1968     1.0  0.71496  0.96050  0.03673  1.0000
  C   C1982     1.0  0.80691  0.56176  0.13707  1.0000
  H   H1969     1.0  0.95313  0.53639  0.98152  1.0000
  H   H1970     1.0  0.86107  0.75486  0.17130  1.0000
  S   S661      1.0  0.77266  0.60604  0.20852  1.0000
  C   C1983     1.0  0.82594  0.53951  0.11793  1.0000
  H   H1971     1.0  0.82013  0.55941  0.14328  1.0000
  H   H1972     1.0  0.79077  0.54777  0.10586  1.0000
  C   C1984     1.0  0.70634  0.50600  0.04022  1.0000
  C   C1985     1.0  0.82273  0.65512  0.21914  1.0000
  H   H1973     1.0  0.96267  0.71868  0.20818  1.0000
  C   C1986     1.0  0.79048  0.55517  0.11628  1.0000
  C   C1987     1.0  0.78929  0.57420  0.14292  1.0000
  H   H1974     1.0  0.83459  0.53170  0.12777  1.0000
  H   H1975     1.0  0.70544  0.53278  0.11537  1.0000
  C   C1988     1.0  0.89532  0.68692  0.17205  1.0000
  H   H1976     1.0  0.78876  0.58095  0.15372  1.0000
  C   C1989     1.0  0.92361  0.59131  0.98044  1.0000
  C   C1990     1.0  0.66896  0.82446  0.21540  1.0000
  C   C1991     1.0  0.69355  0.89952  0.17038  1.0000
  C   C1992     1.0  0.69453  0.49931  0.09386  1.0000
  C   C1993     1.0  0.70987  0.89080  0.16010  1.0000
  C   C1994     1.0  0.71398  0.86956  0.16089  1.0000
  H   H1977     1.0  0.68901  0.54888  0.08965  1.0000
  H   H1978     1.0  0.91029  0.95949  0.05519  1.0000
  H   H1979     1.0  0.69094  0.97077  0.01663  1.0000
  H   H1980     1.0  0.69403  0.53291  0.07406  1.0000
  H   H1981     1.0  0.71942  0.90052  0.15177  1.0000
  C   C1995     1.0  0.88009  0.69157  0.18465  1.0000
  H   H1982     1.0  0.66532  0.69863  0.21285  1.0000
  H   H1983     1.0  0.88556  0.59492  0.02650  1.0000
  Fe  Fe329     1.0  0.97534  0.55174  0.04905  1.0000
  C   C1996     1.0  0.70162  0.50164  0.12448  1.0000
  N   N169      1.0  0.68211  0.88743  0.18152  1.0000
  C   C1997     1.0  0.87757  0.58712  0.01937  1.0000
  C   C1998     1.0  0.66627  0.64818  0.21081  1.0000
  H   H1984     1.0  0.70698  0.52227  0.03795  1.0000
  C   C1999     1.0  0.77198  0.57687  0.13532  1.0000
  C   C2000     1.0  0.68706  0.64118  0.21181  1.0000
  H   H1985     1.0  0.75796  0.58575  0.14016  1.0000
  H   H1986     1.0  0.91557  0.69928  0.15187  1.0000
  S   S662      1.0  0.66983  0.95952  0.98496  1.0000
  H   H1987     1.0  0.88619  0.75849  0.17448  1.0000
  H   H1988     1.0  0.70033  0.81849  0.20483  1.0000
  Fe  Fe330     1.0  0.74037  0.61371  0.22026  1.0000
  C   C2001     1.0  0.89603  0.72303  0.16370  1.0000
  H   H1989     1.0  0.68555  0.50745  0.02301  1.0000
  C   C2002     1.0  0.66303  0.79104  0.20100  1.0000
  C   C2003     1.0  0.94868  0.95195  0.07786  1.0000
  C   C2004     1.0  0.97648  0.97384  0.04594  1.0000
  C   C2005     1.0  0.93541  0.94741  0.06844  1.0000
  S   S663      1.0  0.79136  0.49812  0.11251  1.0000
  C   C2006     1.0  0.66574  0.89690  0.19271  1.0000
  H   H1990     1.0  0.91529  0.60664  0.98014  1.0000
  C   C2007     1.0  0.70569  0.97539  0.03618  1.0000
  C   C2008     1.0  0.70157  0.85737  0.17175  1.0000
  H   H1991     1.0  0.71928  0.97373  0.14085  1.0000
  H   H1992     1.0  0.69215  0.49811  0.08183  1.0000
  H   H1993     1.0  0.67604  0.85710  0.19043  1.0000
  H   H1994     1.0  0.98815  0.62841  0.06243  1.0000
  H   H1995     1.0  0.67037  0.91039  0.19649  1.0000
  S   S664      1.0  0.72573  0.64680  0.21585  1.0000
  H   H1996     1.0  0.70201  0.68643  0.21441  1.0000
  C   C2009     1.0  0.97774  0.57081  0.10905  1.0000
  H   H1997     1.0  0.75853  0.67866  0.21312  1.0000
  H   H1998     1.0  0.77688  0.70696  0.21580  1.0000
  H   H1999     1.0  0.80588  0.63156  0.21602  1.0000
  C   C2010     1.0  0.98480  0.63546  0.07324  1.0000
  H   H2000     1.0  0.72631  0.49124  0.97167  1.0000
  H   H2001     1.0  0.65629  0.63752  0.20973  1.0000
  H   H2002     1.0  0.77187  0.98535  0.04895  1.0000
  C   C2011     1.0  0.97408  0.68321  0.38970  1.0000
  S   S665      1.0  0.96780  0.73645  0.36201  1.0000
  H   H2003     1.0  0.75832  0.64835  0.23397  1.0000
  Fe  Fe331     1.0  0.96961  0.74434  0.33515  1.0000
  S   S666      1.0  0.94314  0.75218  0.32038  1.0000
  H   H2004     1.0  0.81336  0.81067  0.26586  1.0000
  Fe  Fe332     1.0  0.87831  0.71680  0.26250  1.0000
  S   S667      1.0  0.87280  0.75034  0.25320  1.0000
  S   S668      1.0  0.89922  0.70284  0.28123  1.0000
  Fe  Fe333     1.0  0.85537  0.70508  0.23746  1.0000
  C   C2012     1.0  0.92172  0.56064  0.46094  1.0000
  C   C2013     1.0  0.93796  0.70851  0.24592  1.0000
  C   C2014     1.0  0.94719  0.74131  0.22308  1.0000
  Fe  Fe334     1.0  0.84097  0.74494  0.25157  1.0000
  S   S669      1.0  0.81076  0.76389  0.25935  1.0000
  S   S670      1.0  0.88833  0.70684  0.23816  1.0000
  S   S671      1.0  0.84568  0.71186  0.26269  1.0000
  H   H2005     1.0  0.94846  0.70854  0.31656  1.0000
  S   S672      1.0  0.96656  0.91432  0.43784  1.0000
  Fe  Fe335     1.0  0.96980  0.62444  0.44973  1.0000
  S   S673      1.0  0.98157  0.85399  0.45269  1.0000
  S   S674      1.0  0.95567  0.64847  0.43126  1.0000
  S   S675      1.0  0.87375  0.93183  0.46848  1.0000
  C   C2015     1.0  0.75638  0.85588  0.27770  1.0000
  S   S676      1.0  0.97227  0.59082  0.44847  1.0000
  C   C2016     1.0  0.81381  0.63713  0.22408  1.0000
  C   C2017     1.0  0.79849  0.51051  0.30580  1.0000
  S   S677      1.0  0.74844  0.60478  0.24502  1.0000
  S   S678      1.0  0.80420  0.60369  0.24606  1.0000
  Fe  Fe336     1.0  0.74254  0.57329  0.24346  1.0000
  S   S679      1.0  0.72431  0.55883  0.26608  1.0000
  H   H2006     1.0  0.79916  0.49754  0.29901  1.0000
  Fe  Fe337     1.0  0.85419  0.96239  0.46315  1.0000
  C   C2018     1.0  0.87559  0.92381  0.42897  1.0000
  S   S680      1.0  0.72121  0.85266  0.24285  1.0000
  S   S681      1.0  0.70815  0.89164  0.27276  1.0000
  H   H2007     1.0  0.93076  0.68989  0.30136  1.0000
  Fe  Fe338     1.0  0.72095  0.96659  0.33455  1.0000
  H   H2008     1.0  0.79380  0.67519  0.26006  1.0000
  S   S682      1.0  0.73337  0.95702  0.30993  1.0000
  Fe  Fe339     1.0  0.72718  0.96867  0.36939  1.0000
  C   C2019     1.0  0.88009  0.95159  0.40747  1.0000
  S   S683      1.0  0.74448  0.95637  0.39093  1.0000
  Fe  Fe340     1.0  0.68421  0.97469  0.35979  1.0000
  H   H2009     1.0  0.72925  0.49260  0.41063  1.0000
  S   S684      1.0  0.71032  0.94884  0.35839  1.0000
  C   C2020     1.0  0.77343  0.54117  0.30022  1.0000
  H   H2010     1.0  0.67982  0.65341  0.24712  1.0000
  N   N170      1.0  0.79195  0.52988  0.29601  1.0000
  H   H2011     1.0  0.66700  0.92955  0.37034  1.0000
  H   H2012     1.0  0.70175  0.50685  0.39428  1.0000
  H   H2013     1.0  0.73526  0.97583  0.44435  1.0000
  C   C2021     1.0  0.77959  0.56612  0.27687  1.0000
  H   H2014     1.0  0.78244  0.87323  0.24194  1.0000
  C   C2022     1.0  0.96185  0.73511  0.40458  1.0000
  C   C2023     1.0  0.79203  0.84565  0.25744  1.0000
  C   C2024     1.0  0.76587  0.66096  0.23529  1.0000
  C   C2025     1.0  0.76393  0.96663  0.39767  1.0000
  C   C2026     1.0  0.77077  0.95771  0.41232  1.0000
  C   C2027     1.0  0.78597  0.96548  0.41822  1.0000
  N   N171      1.0  0.67767  0.62152  0.24978  1.0000
  S   S685      1.0  0.84878  0.73792  0.22649  1.0000
  C   C2028     1.0  0.92791  0.76571  0.24051  1.0000
  H   H2015     1.0  0.76416  0.94475  0.41916  1.0000
  H   H2016     1.0  0.79081  0.95859  0.42957  1.0000
  C   C2029     1.0  0.65828  0.62486  0.24591  1.0000
  H   H2017     1.0  0.72334  0.50887  0.31518  1.0000
  C   C2030     1.0  0.76113  0.86881  0.26354  1.0000
  C   C2031     1.0  0.85893  0.95651  0.40849  1.0000
  C   C2032     1.0  0.71494  0.91037  0.28268  1.0000
  C   C2033     1.0  0.72788  0.92440  0.27494  1.0000
  C   C2034     1.0  0.73326  0.93858  0.28346  1.0000
  C   C2035     1.0  0.72569  0.93904  0.29976  1.0000
  C   C2036     1.0  0.71269  0.92507  0.30749  1.0000
  C   C2037     1.0  0.70741  0.91080  0.29900  1.0000
  H   H2018     1.0  0.73381  0.92428  0.26241  1.0000
  H   H2019     1.0  0.74340  0.94924  0.27737  1.0000
  H   H2020     1.0  0.70714  0.92496  0.32008  1.0000
  H   H2021     1.0  0.69757  0.89987  0.30511  1.0000
  C   C2038     1.0  0.73401  0.53608  0.27796  1.0000
  C   C2039     1.0  0.72363  0.53043  0.29331  1.0000
  H   H2022     1.0  0.83424  0.55585  0.46192  1.0000
  S   S686      1.0  0.82673  0.50407  0.46187  1.0000
  C   C2040     1.0  0.75960  0.50621  0.28255  1.0000
  C   C2041     1.0  0.75202  0.52382  0.27261  1.0000
  H   H2023     1.0  0.70965  0.53976  0.29755  1.0000
  C   C2042     1.0  0.84648  0.94486  0.41984  1.0000
  H   H2024     1.0  0.76011  0.52787  0.26080  1.0000
  C   C2043     1.0  0.78549  0.82200  0.22813  1.0000
  H   H2025     1.0  0.90496  0.93107  0.41707  1.0000
  C   C2044     1.0  0.77658  0.69383  0.22507  1.0000
  H   H2026     1.0  0.74233  0.85978  0.28559  1.0000
  C   C2045     1.0  0.90830  0.55226  0.45362  1.0000
  H   H2027     1.0  0.93015  0.57242  0.45419  1.0000
  H   H2028     1.0  0.90653  0.55770  0.44123  1.0000
  C   C2046     1.0  0.94111  0.91935  0.44708  1.0000
  C   C2047     1.0  0.92917  0.93794  0.44218  1.0000
  C   C2048     1.0  0.90861  0.94213  0.44889  1.0000
  C   C2049     1.0  0.79712  0.70952  0.23956  1.0000
  S   S687      1.0  0.69187  0.89367  0.22978  1.0000
  C   C2050     1.0  0.93240  0.90505  0.45887  1.0000
  H   H2029     1.0  0.93585  0.94903  0.43305  1.0000
  H   H2030     1.0  0.89950  0.95633  0.44485  1.0000
  C   C2051     1.0  0.76697  0.55942  0.29070  1.0000
  C   C2052     1.0  0.91179  0.90918  0.46548  1.0000
  C   C2053     1.0  0.80097  0.78536  0.24645  1.0000
  C   C2054     1.0  0.78061  0.79436  0.25000  1.0000
  C   C2055     1.0  0.77287  0.81259  0.24087  1.0000
  H   H2031     1.0  0.98296  0.81303  0.34672  1.0000
  H   H2032     1.0  0.77086  0.78736  0.26002  1.0000
  H   H2033     1.0  0.75727  0.81952  0.24386  1.0000
  S   S688      1.0  0.86048  0.98459  0.44101  1.0000
  C   C2056     1.0  0.83448  0.65190  0.24479  1.0000
  C   C2057     1.0  0.82582  0.63370  0.24965  1.0000
  C   C2058     1.0  0.81539  0.62628  0.23934  1.0000
  H   H2034     1.0  0.93302  0.72620  0.41604  1.0000
  C   C2059     1.0  0.81347  0.79452  0.23350  1.0000
  H   H2035     1.0  0.84250  0.65744  0.25281  1.0000
  H   H2036     1.0  0.82718  0.62536  0.26146  1.0000
  S   S689      1.0  0.77492  0.56307  0.23342  1.0000
  H   H2037     1.0  0.98128  0.82815  0.36221  1.0000
  C   C2060     1.0  0.88851  0.93504  0.41768  1.0000
  H   H2038     1.0  0.84077  0.90225  0.43726  1.0000
  C   C2061     1.0  0.83305  0.66262  0.22946  1.0000
  S   S690      1.0  0.67144  0.84609  0.22411  1.0000
  C   C2062     1.0  0.97123  0.66016  0.41491  1.0000
  C   C2063     1.0  0.96207  0.67367  0.40291  1.0000
  N   N172      1.0  0.97905  0.70460  0.42667  1.0000
  N   N173      1.0  0.78647  0.69267  0.23803  1.0000
  N   N174      1.0  0.78734  0.83306  0.27141  1.0000
  H   H2039     1.0  0.94561  0.67665  0.40376  1.0000
  H   H2040     1.0  0.96688  0.69320  0.38031  1.0000
  C   C2064     1.0  0.93152  0.73796  0.30947  1.0000
  C   C2065     1.0  0.91624  0.74840  0.30044  1.0000
  C   C2066     1.0  0.90625  0.73790  0.29176  1.0000
  C   C2067     1.0  0.91134  0.71673  0.29207  1.0000
  C   C2068     1.0  0.92671  0.70627  0.30102  1.0000
  C   C2069     1.0  0.93681  0.71681  0.30963  1.0000
  H   H2041     1.0  0.91194  0.76473  0.30031  1.0000
  H   H2042     1.0  0.89436  0.74616  0.28507  1.0000
  C   C2070     1.0  0.77562  0.66009  0.24861  1.0000
  H   H2043     1.0  0.98923  0.69696  0.44939  1.0000
  S   S691      1.0  0.84380  0.68541  0.22256  1.0000
  H   H2044     1.0  0.94858  0.69916  0.43568  1.0000
  H   H2045     1.0  0.93381  0.69588  0.25492  1.0000
  C   C2071     1.0  0.95832  0.70826  0.42699  1.0000
  H   H2046     1.0  0.80964  0.70409  0.24696  1.0000
  H   H2047     1.0  0.75198  0.56796  0.29373  1.0000
  H   H2048     1.0  0.92181  0.73140  0.25996  1.0000
  H   H2049     1.0  0.85213  0.96943  0.40068  1.0000
  C   C2072     1.0  0.80434  0.53627  0.28239  1.0000
  H   H2050     1.0  0.68438  0.63888  0.26634  1.0000
  S   S692      1.0  0.98397  0.77235  0.33519  1.0000
  C   C2073     1.0  0.80141  0.81455  0.27598  1.0000
  S   S693      1.0  0.74062  0.89528  0.22739  1.0000
  C   C2074     1.0  0.68023  0.58580  0.24767  1.0000
  C   C2075     1.0  0.78584  0.67622  0.24984  1.0000
  C   C2076     1.0  0.89701  0.53711  0.46222  1.0000
  Fe  Fe341     1.0  0.71536  0.88586  0.24658  1.0000
  C   C2077     1.0  0.93118  0.72867  0.24876  1.0000
  H   H2051     1.0  0.84779  0.91284  0.45339  1.0000
  H   H2052     1.0  0.75088  0.88275  0.26052  1.0000
  H   H2053     1.0  0.96709  0.61144  0.41460  1.0000
  H   H2054     1.0  0.93815  0.77667  0.23399  1.0000
  H   H2055     1.0  0.96317  0.81812  0.39856  1.0000
  H   H2056     1.0  0.76326  0.53576  0.31069  1.0000
  H   H2057     1.0  0.65765  0.96705  0.33122  1.0000
  H   H2058     1.0  0.77498  0.50071  0.41020  1.0000
  H   H2059     1.0  0.95446  0.68929  0.22878  1.0000
  H   H2060     1.0  0.80570  0.84164  0.24923  1.0000
  C   C2078     1.0  0.89982  0.92768  0.46049  1.0000
  Fe  Fe342     1.0  0.98477  0.76289  0.36149  1.0000
  Fe  Fe343     1.0  0.88099  0.74006  0.22892  1.0000
  C   C2079     1.0  0.68848  0.60224  0.25098  1.0000
  S   S694      1.0  0.87950  0.52790  0.45266  1.0000
  H   H2061     1.0  0.80907  0.81667  0.28602  1.0000
  H   H2062     1.0  0.81886  0.52717  0.27893  1.0000
  H   H2063     1.0  0.80819  0.55964  0.26183  1.0000
  H   H2064     1.0  0.79308  0.80113  0.27965  1.0000
  C   C2080     1.0  0.70303  0.49100  0.39982  1.0000
  H   H2065     1.0  0.77474  0.58015  0.26930  1.0000
  H   H2066     1.0  0.67204  0.91078  0.33119  1.0000
  N   N175      1.0  0.85487  0.92895  0.43006  1.0000
  H   H2067     1.0  0.78631  0.72169  0.24515  1.0000
  H   H2068     1.0  0.98182  0.83169  0.41638  1.0000
  H   H2069     1.0  0.68901  0.57057  0.24850  1.0000
  H   H2070     1.0  0.79882  0.49196  0.43050  1.0000
  Fe  Fe344     1.0  0.85993  0.50321  0.46420  1.0000
  H   H2071     1.0  0.78764  0.50762  0.31696  1.0000
  C   C2081     1.0  0.66072  0.58917  0.24326  1.0000
  C   C2082     1.0  0.84168  0.91665  0.44176  1.0000
  S   S695      1.0  0.74000  0.98404  0.34538  1.0000
  C   C2083     1.0  0.68668  0.63850  0.25326  1.0000
  H   H2072     1.0  0.88226  0.91117  0.43707  1.0000
  H   H2073     1.0  0.97559  0.79032  0.46357  1.0000
  H   H2074     1.0  0.81371  0.51050  0.30926  1.0000
  Fe  Fe345     1.0  0.78014  0.59544  0.23338  1.0000
  C   C2084     1.0  0.94943  0.72349  0.41590  1.0000
  S   S696      1.0  0.82098  0.96403  0.46080  1.0000
  H   H2075     1.0  0.70364  0.59944  0.25442  1.0000
  C   C2085     1.0  0.98759  0.79417  0.39241  1.0000
  H   H2076     1.0  0.82922  0.78780  0.23073  1.0000
  C   C2086     1.0  0.73133  0.51289  0.30332  1.0000
  C   C2087     1.0  0.76976  0.83795  0.28149  1.0000
  H   H2077     1.0  0.82602  0.92506  0.44421  1.0000
  C   C2088     1.0  0.97171  0.61393  0.40143  1.0000
  H   H2078     1.0  0.70329  0.63685  0.24872  1.0000
  H   H2079     1.0  0.92630  0.76698  0.25347  1.0000
  C   C2089     1.0  0.77895  0.86362  0.25326  1.0000
  H   H2080     1.0  0.96233  0.62843  0.39696  1.0000
  S   S697      1.0  0.97383  0.78571  0.37930  1.0000
  H   H2081     1.0  0.83006  0.94882  0.42048  1.0000
  Fe  Fe346     1.0  0.98778  0.88653  0.44741  1.0000
  H   H2082     1.0  0.94149  0.89068  0.46272  1.0000
  H   H2083     1.0  0.96803  0.60115  0.39616  1.0000
  H   H2084     1.0  0.97851  0.67700  0.44327  1.0000
  H   H2085     1.0  0.76599  0.82795  0.29252  1.0000
  C   C2090     1.0  0.79840  0.55453  0.27267  1.0000
  C   C2091     1.0  0.80575  0.81280  0.22441  1.0000
  Fe  Fe347     1.0  0.69948  0.86117  0.22458  1.0000
  N   N176      1.0  0.93598  0.74474  0.23749  1.0000
  C   C2092     1.0  0.76618  0.67796  0.22348  1.0000
  H   H2086     1.0  0.95519  0.74713  0.39599  1.0000
  C   C2093     1.0  0.74943  0.50073  0.29800  1.0000
  C   C2094     1.0  0.97846  0.81093  0.40036  1.0000
  H   H2087     1.0  0.77590  0.64664  0.25763  1.0000
  C   C2095     1.0  0.79478  0.98212  0.40940  1.0000
  H   H2088     1.0  0.91267  0.77025  0.23648  1.0000
  H   H2089     1.0  0.88992  0.96064  0.39882  1.0000
  H   H2090     1.0  0.86302  0.57489  0.46158  1.0000
  H   H2091     1.0  0.80446  0.71619  0.22769  1.0000
  Fe  Fe348     1.0  0.74490  0.86252  0.22263  1.0000
  C   C2096     1.0  0.94951  0.70485  0.23130  1.0000
  C   C2097     1.0  0.75453  0.97721  0.46930  1.0000
  H   H2092     1.0  0.77354  0.49684  0.27826  1.0000
  C   C2098     1.0  0.77264  0.98336  0.38895  1.0000
  C   C2099     1.0  0.98758  0.79920  0.46497  1.0000
  C   C2100     1.0  0.98296  0.73117  0.40427  1.0000
  C   C2101     1.0  0.98799  0.68949  0.43901  1.0000
  C   C2102     1.0  0.98899  0.81865  0.41049  1.0000
  C   C2103     1.0  0.66459  0.95122  0.32921  1.0000
  H   H2093     1.0  0.67636  0.94633  0.33734  1.0000
  H   H2094     1.0  0.90858  0.48907  0.46010  1.0000
  H   H2095     1.0  0.67210  0.95156  0.31661  1.0000
  H   H2096     1.0  0.76993  0.96880  0.47106  1.0000
  H   H2097     1.0  0.74397  0.96581  0.47024  1.0000
  H   H2098     1.0  0.81211  0.53948  0.51762  1.0000
  C   C2104     1.0  0.77800  0.90028  0.65413  1.0000
  Fe  Fe349     1.0  0.97261  0.73711  0.58561  1.0000
  S   S698      1.0  0.94761  0.75909  0.59816  1.0000
  S   S699      1.0  0.97346  0.73800  0.55913  1.0000
  H   H2099     1.0  0.66554  0.90427  0.55719  1.0000
  H   H2100     1.0  0.81847  0.53836  0.48751  1.0000
  S   S700      1.0  0.79732  0.50727  0.50496  1.0000
  H   H2101     1.0  0.84432  0.81695  0.71756  1.0000
  Fe  Fe350     1.0  0.83377  0.76084  0.64721  1.0000
  S   S701      1.0  0.83441  0.78711  0.66039  1.0000
  S   S702      1.0  0.86180  0.73960  0.63755  1.0000
  Fe  Fe351     1.0  0.78671  0.76524  0.65298  1.0000
  S   S703      1.0  0.78418  0.79234  0.66591  1.0000
  S   S704      1.0  0.75504  0.75796  0.65234  1.0000
  Fe  Fe352     1.0  0.80860  0.80292  0.64678  1.0000
  S   S705      1.0  0.80858  0.83518  0.63354  1.0000
  Fe  Fe353     1.0  0.80965  0.77428  0.67838  1.0000
  S   S706      1.0  0.80426  0.76751  0.70541  1.0000
  S   S707      1.0  0.80934  0.77726  0.63263  1.0000
  S   S708      1.0  0.81096  0.74656  0.66643  1.0000
  C   C2105     1.0  0.96429  0.66009  0.53028  1.0000
  S   S709      1.0  0.75026  0.94996  0.61025  1.0000
  Fe  Fe354     1.0  0.70024  0.95880  0.59060  1.0000
  S   S710      1.0  0.72621  0.93416  0.58445  1.0000
  C   C2106     1.0  0.90815  0.96869  0.48022  1.0000
  Fe  Fe355     1.0  0.72803  0.92817  0.61082  1.0000
  S   S711      1.0  0.72688  0.89670  0.62517  1.0000
  Fe  Fe356     1.0  0.74636  0.95805  0.58408  1.0000
  H   H2102     1.0  0.84263  0.74321  0.71962  1.0000
  S   S712      1.0  0.70097  0.95147  0.61707  1.0000
  H   H2103     1.0  0.74923  0.75397  0.61652  1.0000
  Fe  Fe357     1.0  0.70500  0.50765  0.60533  1.0000
  S   S713      1.0  0.71278  0.53825  0.60893  1.0000
  Fe  Fe358     1.0  0.69356  0.67163  0.64490  1.0000
  S   S714      1.0  0.68469  0.64856  0.66613  1.0000
  S   S715      1.0  0.72678  0.67674  0.63954  1.0000
  H   H2104     1.0  0.90509  0.89792  0.47445  1.0000
  H   H2105     1.0  0.83358  0.51947  0.51641  1.0000
  N   N177      1.0  0.96363  0.80563  0.56221  1.0000
  H   H2106     1.0  0.79609  0.77266  0.59326  1.0000
  S   S716      1.0  0.67837  0.65825  0.62814  1.0000
  C   C2107     1.0  0.69774  0.55661  0.62037  1.0000
  C   C2108     1.0  0.67999  0.55246  0.63062  1.0000
  Fe  Fe359     1.0  0.72309  0.97407  0.61432  1.0000
  C   C2109     1.0  0.67561  0.58629  0.63917  1.0000
  C   C2110     1.0  0.69325  0.59050  0.62883  1.0000
  C   C2111     1.0  0.70431  0.57567  0.61956  1.0000
  H   H2107     1.0  0.70778  0.66285  0.71681  1.0000
  S   S717      1.0  0.98074  0.83644  0.49696  1.0000
  H   H2108     1.0  0.69856  0.60506  0.62810  1.0000
  H   H2109     1.0  0.71808  0.57898  0.61172  1.0000
  H   H2110     1.0  0.86188  0.73164  0.67123  1.0000
  C   C2112     1.0  0.66750  0.93099  0.56764  1.0000
  H   H2111     1.0  0.67481  0.53783  0.63140  1.0000
  H   H2112     1.0  0.92396  0.49080  0.47485  1.0000
  C   C2113     1.0  0.67968  0.67157  0.70670  1.0000
  C   C2114     1.0  0.65686  0.94891  0.57310  1.0000
  S   S718      1.0  0.97990  0.70286  0.59043  1.0000
  S   S719      1.0  0.72030  0.98345  0.58815  1.0000
  N   N178      1.0  0.66049  0.90453  0.60321  1.0000
  C   C2115     1.0  0.74780  0.73458  0.64988  1.0000
  C   C2116     1.0  0.72693  0.73331  0.65116  1.0000
  C   C2117     1.0  0.72032  0.71553  0.64837  1.0000
  C   C2118     1.0  0.73455  0.69890  0.64405  1.0000
  C   C2119     1.0  0.75547  0.70010  0.64288  1.0000
  C   C2120     1.0  0.76210  0.71781  0.64591  1.0000
  H   H2113     1.0  0.71574  0.74623  0.65418  1.0000
  H   H2114     1.0  0.70420  0.71485  0.64926  1.0000
  H   H2115     1.0  0.76657  0.68727  0.63957  1.0000
  H   H2116     1.0  0.77823  0.71858  0.64490  1.0000
  C   C2121     1.0  0.66789  0.62385  0.71564  1.0000
  H   H2117     1.0  0.76505  0.75545  0.69580  1.0000
  C   C2122     1.0  0.73309  0.49115  0.51612  1.0000
  C   C2123     1.0  0.92399  0.55395  0.47700  1.0000
  C   C2124     1.0  0.87879  0.76287  0.69147  1.0000
  H   H2118     1.0  0.77333  0.88483  0.65551  1.0000
  H   H2119     1.0  0.82973  0.80014  0.69903  1.0000
  C   C2125     1.0  0.78575  0.85218  0.63153  1.0000
  C   C2126     1.0  0.78646  0.87088  0.62141  1.0000
  C   C2127     1.0  0.76850  0.88462  0.61925  1.0000
  C   C2128     1.0  0.74969  0.87967  0.62718  1.0000
  C   C2129     1.0  0.74896  0.86099  0.63733  1.0000
  C   C2130     1.0  0.76693  0.84730  0.63953  1.0000
  H   H2120     1.0  0.80098  0.87471  0.61513  1.0000
  H   H2121     1.0  0.76923  0.89897  0.61139  1.0000
  H   H2122     1.0  0.73446  0.85711  0.64358  1.0000
  H   H2123     1.0  0.76622  0.83297  0.64739  1.0000
  S   S720      1.0  0.94030  0.56437  0.48688  1.0000
  H   H2124     1.0  0.69399  0.60563  0.70413  1.0000
  C   C2131     1.0  0.77027  0.50546  0.53279  1.0000
  S   S721      1.0  0.66668  0.69558  0.65030  1.0000
  H   H2125     1.0  0.76846  0.52199  0.53066  1.0000
  C   C2132     1.0  0.69174  0.66883  0.71905  1.0000
  C   C2133     1.0  0.92344  0.75345  0.60838  1.0000
  C   C2134     1.0  0.90860  0.76953  0.61333  1.0000
  C   C2135     1.0  0.88943  0.76569  0.62182  1.0000
  C   C2136     1.0  0.88499  0.74563  0.62569  1.0000
  C   C2137     1.0  0.89980  0.72958  0.62069  1.0000
  C   C2138     1.0  0.91885  0.73345  0.61200  1.0000
  H   H2126     1.0  0.91196  0.78507  0.61062  1.0000
  H   H2127     1.0  0.87820  0.77823  0.62550  1.0000
  H   H2128     1.0  0.89656  0.71400  0.62361  1.0000
  H   H2129     1.0  0.93007  0.72091  0.60830  1.0000
  N   N179      1.0  0.83815  0.54735  0.50145  1.0000
  H   H2130     1.0  0.71760  0.51961  0.52358  1.0000
  C   C2139     1.0  0.91277  0.53871  0.48559  1.0000
  H   H2131     1.0  0.89062  0.51886  0.48511  1.0000
  H   H2132     1.0  0.91436  0.53347  0.49803  1.0000
  C   C2140     1.0  0.85429  0.55748  0.50134  1.0000
  H   H2133     1.0  0.96891  0.61662  0.57617  1.0000
  C   C2141     1.0  0.72777  0.51459  0.64920  1.0000
  H   H2134     1.0  0.72047  0.53000  0.64543  1.0000
  C   C2142     1.0  0.82905  0.53622  0.51640  1.0000
  H   H2135     1.0  0.93142  0.81011  0.56101  1.0000
  S   S722      1.0  0.85537  0.49351  0.49057  1.0000
  C   C2143     1.0  0.76126  0.97619  0.53877  1.0000
  C   C2144     1.0  0.66773  0.60874  0.69197  1.0000
  H   H2136     1.0  0.78710  0.90035  0.66384  1.0000
  C   C2145     1.0  0.68039  0.90774  0.60647  1.0000
  C   C2146     1.0  0.70516  0.49356  0.53774  1.0000
  S   S723      1.0  0.68087  0.48977  0.61962  1.0000
  C   C2147     1.0  0.65885  0.67889  0.70958  1.0000
  C   C2148     1.0  0.96656  0.82227  0.55089  1.0000
  C   C2149     1.0  0.66903  0.56722  0.64001  1.0000
  C   C2150     1.0  0.77830  0.96859  0.54656  1.0000
  H   H2137     1.0  0.86055  0.55738  0.51225  1.0000
  C   C2151     1.0  0.89935  0.53033  0.47827  1.0000
  C   C2152     1.0  0.98177  0.80085  0.51773  1.0000
  N   N180      1.0  0.76041  0.91654  0.65476  1.0000
  H   H2138     1.0  0.93387  0.98493  0.49332  1.0000
  C   C2153     1.0  0.74102  0.91195  0.65630  1.0000
  H   H2139     1.0  0.77897  0.94011  0.65235  1.0000
  C   C2154     1.0  0.75869  0.81116  0.61673  1.0000
  C   C2155     1.0  0.72425  0.92748  0.65641  1.0000
  Fe  Fe360     1.0  0.66730  0.63714  0.64986  1.0000
  C   C2156     1.0  0.80047  0.97478  0.52108  1.0000
  C   C2157     1.0  0.74128  0.73627  0.70106  1.0000
  H   H2140     1.0  0.73839  0.89625  0.65708  1.0000
  H   H2141     1.0  0.87629  0.57555  0.48691  1.0000
  C   C2158     1.0  0.76361  0.93641  0.65362  1.0000
  C   C2159     1.0  0.83087  0.54684  0.48752  1.0000
  H   H2142     1.0  0.68445  0.92239  0.59956  1.0000
  H   H2143     1.0  0.81112  0.96192  0.54356  1.0000
  H   H2144     1.0  0.74219  0.51002  0.62544  1.0000
  N   N181      1.0  0.87742  0.75254  0.67923  1.0000
  H   H2145     1.0  0.68644  0.66770  0.69503  1.0000
  C   C2160     1.0  0.97152  0.63036  0.56734  1.0000
  C   C2161     1.0  0.89000  0.75662  0.66370  1.0000
  H   H2146     1.0  0.69282  0.89538  0.60303  1.0000
  C   C2162     1.0  0.72736  0.94776  0.65530  1.0000
  H   H2147     1.0  0.96532  0.80348  0.51849  1.0000
  S   S724      1.0  0.69844  0.50273  0.58130  1.0000
  H   H2148     1.0  0.71565  0.51456  0.67412  1.0000
  S   S725      1.0  0.66148  0.60422  0.65139  1.0000
  C   C2163     1.0  0.71837  0.50310  0.52549  1.0000
  C   C2164     1.0  0.81373  0.78102  0.71798  1.0000
  S   S726      1.0  0.95608  0.62189  0.47572  1.0000
  Fe  Fe361     1.0  0.65702  0.67185  0.67060  1.0000
  H   H2149     1.0  0.67187  0.87658  0.59375  1.0000
  C   C2165     1.0  0.79787  0.96779  0.53762  1.0000
  H   H2150     1.0  0.74774  0.50440  0.55404  1.0000
  S   S727      1.0  0.66856  0.96457  0.58271  1.0000
  C   C2166     1.0  0.97983  0.79384  0.56858  1.0000
  C   C2167     1.0  0.97652  0.67130  0.53630  1.0000
  H   H2151     1.0  0.96285  0.64013  0.51311  1.0000
  H   H2152     1.0  0.90433  0.76213  0.66485  1.0000
  C   C2168     1.0  0.76387  0.98339  0.52224  1.0000
  H   H2153     1.0  0.89443  0.74250  0.65792  1.0000
  H   H2154     1.0  0.83376  0.54053  0.52709  1.0000
  C   C2169     1.0  0.74714  0.95228  0.65399  1.0000
  H   H2155     1.0  0.69397  0.50295  0.54513  1.0000
  H   H2156     1.0  0.90256  0.96978  0.49304  1.0000
  C   C2170     1.0  0.85264  0.74558  0.70836  1.0000
  N   N182      1.0  0.76830  0.77749  0.60915  1.0000
  C   C2171     1.0  0.67806  0.61199  0.70400  1.0000
  C   C2172     1.0  0.78531  0.78353  0.59964  1.0000
  C   C2173     1.0  0.75434  0.74822  0.70505  1.0000
  C   C2174     1.0  0.78937  0.80360  0.59841  1.0000
  C   C2175     1.0  0.77595  0.81747  0.60702  1.0000
  C   C2176     1.0  0.76499  0.75611  0.61079  1.0000
  H   H2157     1.0  0.88123  0.76831  0.65567  1.0000
  H   H2158     1.0  0.74964  0.96804  0.65309  1.0000
  H   H2159     1.0  0.95383  0.83149  0.54560  1.0000
  C   C2177     1.0  0.75511  0.79098  0.61771  1.0000
  H   H2160     1.0  0.78781  0.90252  0.64237  1.0000
  H   H2161     1.0  0.74834  0.82172  0.62369  1.0000
  S   S728      1.0  0.77606  0.96157  0.56757  1.0000
  H   H2162     1.0  0.74176  0.73421  0.68865  1.0000
  S   S729      1.0  0.96647  0.68302  0.55356  1.0000
  H   H2163     1.0  0.77572  0.74632  0.61845  1.0000
  H   H2164     1.0  0.93877  0.80123  0.58059  1.0000
  C   C2178     1.0  0.86655  0.75943  0.70625  1.0000
  H   H2165     1.0  0.68358  0.92685  0.56852  1.0000
  H   H2166     1.0  0.83949  0.72550  0.69702  1.0000
  C   C2179     1.0  0.82626  0.79599  0.71183  1.0000
  C   C2180     1.0  0.97233  0.64891  0.51752  1.0000
  H   H2167     1.0  0.77913  0.83297  0.60638  1.0000
  H   H2168     1.0  0.88925  0.77398  0.68982  1.0000
  C   C2181     1.0  0.85091  0.73559  0.69568  1.0000
  H   H2169     1.0  0.67996  0.90837  0.61941  1.0000
  C   C2182     1.0  0.86349  0.73928  0.68110  1.0000
  C   C2183     1.0  0.86319  0.56791  0.48706  1.0000
  H   H2170     1.0  0.70898  0.92379  0.65707  1.0000
  H   H2171     1.0  0.80311  0.80826  0.59118  1.0000
  C   C2184     1.0  0.94314  0.80012  0.56762  1.0000
  H   H2172     1.0  0.94291  0.78405  0.56590  1.0000
  H   H2173     1.0  0.76737  0.75074  0.59893  1.0000
  H   H2174     1.0  0.74192  0.78607  0.62561  1.0000
  H   H2175     1.0  0.94857  0.65982  0.53566  1.0000
  H   H2176     1.0  0.71450  0.96000  0.65529  1.0000
  H   H2177     1.0  0.98223  0.77358  0.53512  1.0000
  H   H2178     1.0  0.95797  0.64237  0.56870  1.0000
  H   H2179     1.0  0.74397  0.49828  0.50698  1.0000
  Fe  Fe362     1.0  0.82295  0.49156  0.48820  1.0000
  H   H2180     1.0  0.97746  0.78070  0.57756  1.0000
  Fe  Fe363     1.0  0.98288  0.70397  0.56368  1.0000
  C   C2185     1.0  0.83955  0.55691  0.47303  1.0000
  H   H2181     1.0  0.86737  0.76784  0.71591  1.0000
  Fe  Fe364     1.0  0.96107  0.58781  0.47474  1.0000
  H   H2182     1.0  0.67553  0.59976  0.68270  1.0000
  H   H2183     1.0  0.97285  0.62630  0.55509  1.0000
  C   C2186     1.0  0.73990  0.50331  0.63792  1.0000
  C   C2187     1.0  0.78348  0.98279  0.51335  1.0000
  H   H2184     1.0  0.81563  0.97424  0.51437  1.0000
  C   C2188     1.0  0.72769  0.72696  0.71317  1.0000
  H   H2185     1.0  0.97558  0.64842  0.59180  1.0000
  H   H2186     1.0  0.91824  0.95387  0.47914  1.0000
  H   H2187     1.0  0.71777  0.71746  0.71001  1.0000
  C   C2189     1.0  0.65723  0.91825  0.56116  1.0000
  H   H2188     1.0  0.74612  0.97692  0.54552  1.0000
  C   C2190     1.0  0.72508  0.50593  0.66525  1.0000
  C   C2191     1.0  0.85572  0.56761  0.47285  1.0000
  H   H2189     1.0  0.98245  0.77172  0.49091  1.0000
  H   H2190     1.0  0.98167  0.54198  0.47555  1.0000
  C   C2192     1.0  0.78407  0.49413  0.52214  1.0000
  C   C2193     1.0  0.75853  0.49554  0.54606  1.0000
  H   H2191     1.0  0.65824  0.62672  0.61888  1.0000
  C   C2194     1.0  0.98618  0.82730  0.54556  1.0000
  H   H2192     1.0  0.98853  0.84003  0.53613  1.0000
  H   H2193     1.0  0.89451  0.96874  0.47440  1.0000
  H   H2194     1.0  0.98053  0.81170  0.47208  1.0000
  Fe  Fe365     1.0  0.98863  0.61772  0.48051  1.0000
  S   S730      1.0  0.84885  0.98560  0.48025  1.0000
  C   C2195     1.0  0.65864  0.88774  0.59664  1.0000
  C   C2196     1.0  0.73455  0.48599  0.66975  1.0000
  N   N183      1.0  0.91928  0.98570  0.47284  1.0000
  C   C2197     1.0  0.75367  0.75074  0.72100  1.0000
  C   C2198     1.0  0.71305  0.71950  0.74138  1.0000
  C   C2199     1.0  0.66828  0.92423  0.94059  1.0000
  H   H2195     1.0  0.75209  0.83358  0.80391  1.0000
  Fe  Fe366     1.0  0.98345  0.75103  0.83898  1.0000
  Fe  Fe367     1.0  0.74731  0.53623  0.83789  1.0000
  S   S731      1.0  0.77853  0.52306  0.82738  1.0000
  S   S732      1.0  0.72888  0.55786  0.82055  1.0000
  Fe  Fe368     1.0  0.78930  0.52774  0.84991  1.0000
  S   S733      1.0  0.81500  0.54658  0.84935  1.0000
  S   S734      1.0  0.75844  0.54327  0.85923  1.0000
  S   S735      1.0  0.73813  0.50607  0.85009  1.0000
  Fe  Fe369     1.0  0.95423  0.54625  0.89357  1.0000
  S   S736      1.0  0.93125  0.53252  0.91221  1.0000
  H   H2196     1.0  0.76917  0.54600  0.89775  1.0000
  Fe  Fe370     1.0  0.93167  0.58950  0.89528  1.0000
  S   S737      1.0  0.90684  0.57837  0.91448  1.0000
  S   S738      1.0  0.92938  0.62388  0.88635  1.0000
  Fe  Fe371     1.0  0.93269  0.55825  0.92560  1.0000
  S   S739      1.0  0.93953  0.54722  0.95101  1.0000
  Fe  Fe372     1.0  0.90734  0.55351  0.89935  1.0000
  S   S740      1.0  0.88002  0.53753  0.89797  1.0000
  S   S741      1.0  0.95721  0.57095  0.90755  1.0000
  S   S742      1.0  0.93059  0.56574  0.87950  1.0000
  H   H2197     1.0  0.72118  0.70474  0.74668  1.0000
  H   H2198     1.0  0.78390  0.97050  0.79536  1.0000
  S   S743      1.0  0.78884  0.95962  0.86161  1.0000
  H   H2199     1.0  0.78535  0.52700  0.88693  1.0000
  Fe  Fe373     1.0  0.79536  0.95865  0.83500  1.0000
  S   S744      1.0  0.81010  0.93331  0.82020  1.0000
  C   C2200     1.0  0.79741  0.97803  0.78981  1.0000
  Fe  Fe374     1.0  0.83038  0.80447  0.77836  1.0000
  S   S745      1.0  0.83957  0.77379  0.79258  1.0000
  S   S746      1.0  0.84117  0.81175  0.75188  1.0000
  Fe  Fe375     1.0  0.80481  0.82227  0.80680  1.0000
  S   S747      1.0  0.81141  0.79273  0.82284  1.0000
  S   S748      1.0  0.78351  0.84667  0.81933  1.0000
  Fe  Fe376     1.0  0.84399  0.79212  0.81128  1.0000
  S   S749      1.0  0.86548  0.78627  0.83013  1.0000
  Fe  Fe377     1.0  0.80632  0.77710  0.80295  1.0000
  S   S750      1.0  0.78876  0.75012  0.81001  1.0000
  S   S751      1.0  0.83758  0.82271  0.79625  1.0000
  S   S752      1.0  0.79687  0.80667  0.78772  1.0000
  H   H2200     1.0  0.98121  0.50924  0.85465  1.0000
  C   C2201     1.0  0.65666  0.65072  0.84846  1.0000
  H   H2201     1.0  0.72503  0.82547  0.79022  1.0000
  C   C2202     1.0  0.92566  0.58098  0.96704  1.0000
  S   S753      1.0  0.96179  0.76054  0.82029  1.0000
  H   H2202     1.0  0.81078  0.96592  0.78826  1.0000
  Fe  Fe378     1.0  0.69257  0.71662  0.78943  1.0000
  S   S754      1.0  0.71179  0.68670  0.78568  1.0000
  S   S755      1.0  0.70782  0.74521  0.78242  1.0000
  C   C2203     1.0  0.65804  0.62227  0.83410  1.0000
  Fe  Fe379     1.0  0.69317  0.67374  0.80801  1.0000
  S   S756      1.0  0.70786  0.65216  0.82750  1.0000
  S   S757      1.0  0.67560  0.70427  0.81311  1.0000
  N   N184      1.0  0.72692  0.72979  0.72876  1.0000
  C   C2204     1.0  0.74584  0.81932  0.80766  1.0000
  C   C2205     1.0  0.89242  0.78073  0.82687  1.0000
  C   C2206     1.0  0.90322  0.77831  0.83997  1.0000
  C   C2207     1.0  0.92456  0.77263  0.83813  1.0000
  C   C2208     1.0  0.93528  0.76943  0.82311  1.0000
  C   C2209     1.0  0.92453  0.77239  0.80993  1.0000
  C   C2210     1.0  0.90319  0.77795  0.81178  1.0000
  H   H2203     1.0  0.89501  0.78051  0.85168  1.0000
  H   H2204     1.0  0.93267  0.77052  0.84834  1.0000
  H   H2205     1.0  0.93274  0.77010  0.79823  1.0000
  H   H2206     1.0  0.89507  0.77986  0.80159  1.0000
  C   C2211     1.0  0.76738  0.74807  0.80109  1.0000
  C   C2212     1.0  0.75598  0.73210  0.80745  1.0000
  C   C2213     1.0  0.73801  0.73074  0.80149  1.0000
  C   C2214     1.0  0.73127  0.74540  0.78914  1.0000
  C   C2215     1.0  0.74293  0.76109  0.78250  1.0000
  C   C2216     1.0  0.76095  0.76243  0.78844  1.0000
  H   H2207     1.0  0.76092  0.72089  0.81719  1.0000
  H   H2208     1.0  0.72916  0.71857  0.80667  1.0000
  H   H2209     1.0  0.73785  0.77244  0.77289  1.0000
  H   H2210     1.0  0.76968  0.77472  0.78339  1.0000
  C   C2217     1.0  0.80156  0.90984  0.81971  1.0000
  C   C2218     1.0  0.81249  0.89700  0.80881  1.0000
  C   C2219     1.0  0.80714  0.87762  0.80859  1.0000
  C   C2220     1.0  0.79056  0.87104  0.81912  1.0000
  C   C2221     1.0  0.77941  0.88399  0.82987  1.0000
  C   C2222     1.0  0.78494  0.90329  0.83024  1.0000
  H   H2211     1.0  0.82535  0.90196  0.80061  1.0000
  H   H2212     1.0  0.81575  0.86788  0.80018  1.0000
  H   H2213     1.0  0.76651  0.87903  0.83803  1.0000
  H   H2214     1.0  0.77641  0.91303  0.83869  1.0000
  C   C2223     1.0  0.81753  0.78524  0.74507  1.0000
  C   C2224     1.0  0.73573  0.96759  0.89983  1.0000
  H   H2215     1.0  0.81416  0.78095  0.75786  1.0000
  C   C2225     1.0  0.94913  0.63952  0.88208  1.0000
  C   C2226     1.0  0.96887  0.63221  0.88566  1.0000
  S   S758      1.0  0.76767  0.98118  0.82948  1.0000
  C   C2227     1.0  0.96840  0.97504  0.91520  1.0000
  C   C2228     1.0  0.95910  0.67371  0.87360  1.0000
  C   C2229     1.0  0.94439  0.66032  0.87597  1.0000
  H   H2216     1.0  0.97276  0.61629  0.89043  1.0000
  H   H2217     1.0  0.76394  0.75988  0.72418  1.0000
  H   H2218     1.0  0.95511  0.68972  0.86933  1.0000
  H   H2219     1.0  0.92913  0.66618  0.87327  1.0000
  C   C2230     1.0  0.72201  0.58381  0.82318  1.0000
  C   C2231     1.0  0.71246  0.59750  0.81146  1.0000
  C   C2232     1.0  0.70794  0.61850  0.81270  1.0000
  C   C2233     1.0  0.71289  0.62590  0.82571  1.0000
  C   C2234     1.0  0.72202  0.61216  0.83760  1.0000
  C   C2235     1.0  0.72658  0.59117  0.83635  1.0000
  H   H2220     1.0  0.70887  0.59190  0.80124  1.0000
  H   H2221     1.0  0.70089  0.62896  0.80347  1.0000
  H   H2222     1.0  0.72572  0.61778  0.84777  1.0000
  H   H2223     1.0  0.73371  0.58074  0.84553  1.0000
  C   C2236     1.0  0.83422  0.54288  0.86210  1.0000
  C   C2237     1.0  0.83694  0.52558  0.87359  1.0000
  C   C2238     1.0  0.85167  0.52383  0.88397  1.0000
  C   C2239     1.0  0.86390  0.53928  0.88302  1.0000
  C   C2240     1.0  0.86147  0.55636  0.87130  1.0000
  C   C2241     1.0  0.84673  0.55812  0.86092  1.0000
  H   H2224     1.0  0.82762  0.51362  0.87457  1.0000
  H   H2225     1.0  0.85340  0.51052  0.89296  1.0000
  H   H2226     1.0  0.87065  0.56843  0.87044  1.0000
  H   H2227     1.0  0.84488  0.57152  0.85202  1.0000
  Fe  Fe380     1.0  0.75224  0.51188  0.87095  1.0000
  Fe  Fe381     1.0  0.68683  0.68161  0.77291  1.0000
  C   C2242     1.0  0.69794  0.50044  0.93490  1.0000
  H   H2228     1.0  0.77023  0.77286  0.83761  1.0000
  H   H2229     1.0  0.76508  0.80883  0.82590  1.0000
  H   H2230     1.0  0.91880  0.58826  0.95658  1.0000
  C   C2243     1.0  0.78453  0.54216  0.89091  1.0000
  C   C2244     1.0  0.98423  0.49986  0.88913  1.0000
  H   H2231     1.0  0.73941  0.74330  0.74520  1.0000
  C   C2245     1.0  0.76246  0.48853  0.78280  1.0000
  Fe  Fe382     1.0  0.67206  0.97384  0.95906  1.0000
  H   H2232     1.0  0.96649  0.71520  0.81676  1.0000
  S   S759      1.0  0.74211  0.51295  0.89762  1.0000
  H   H2233     1.0  0.78640  0.55343  0.87989  1.0000
  H   H2234     1.0  0.83595  0.56937  0.90616  1.0000
  H   H2235     1.0  0.92880  0.72254  0.86665  1.0000
  C   C2246     1.0  0.72115  0.49879  0.79284  1.0000
  N   N185      1.0  0.96011  0.64650  0.92307  1.0000
  H   H2236     1.0  0.70714  0.72914  0.75104  1.0000
  C   C2247     1.0  0.67852  0.91320  0.96731  1.0000
  S   S760      1.0  0.78376  0.49643  0.86224  1.0000
  C   C2248     1.0  0.66241  0.68146  0.73709  1.0000
  H   H2237     1.0  0.75249  0.75646  0.83643  1.0000
  H   H2238     1.0  0.95574  0.71513  0.84413  1.0000
  C   C2249     1.0  0.73532  0.50704  0.79925  1.0000
  C   C2250     1.0  0.81954  0.52401  0.92170  1.0000
  H   H2239     1.0  0.69960  0.71624  0.73670  1.0000
  C   C2251     1.0  0.66563  0.63122  0.84507  1.0000
  C   C2252     1.0  0.72117  0.50253  0.90962  1.0000
  H   H2240     1.0  0.98855  0.97319  0.86669  1.0000
  H   H2241     1.0  0.97440  0.94722  0.90444  1.0000
  H   H2242     1.0  0.93141  0.64790  0.91491  1.0000
  C   C2253     1.0  0.90446  0.72799  0.85219  1.0000
  H   H2243     1.0  0.76730  0.50731  0.79957  1.0000
  S   S761      1.0  0.70216  0.96324  0.94402  1.0000
  C   C2254     1.0  0.83092  0.54011  0.91959  1.0000
  C   C2255     1.0  0.89957  0.72890  0.83684  1.0000
  H   H2244     1.0  0.75110  0.96209  0.89472  1.0000
  H   H2245     1.0  0.98634  0.49688  0.83685  1.0000
  C   C2256     1.0  0.93994  0.71863  0.84205  1.0000
  C   C2257     1.0  0.95664  0.60577  0.93475  1.0000
  C   C2258     1.0  0.72900  0.96201  0.91621  1.0000
  H   H2246     1.0  0.88393  0.73365  0.83453  1.0000
  H   H2247     1.0  0.84354  0.53913  0.92629  1.0000
  S   S762      1.0  0.66852  0.71244  0.77517  1.0000
  H   H2248     1.0  0.71116  0.79254  0.79911  1.0000
  C   C2259     1.0  0.72278  0.79642  0.80508  1.0000
  H   H2249     1.0  0.72471  0.76816  0.82108  1.0000
  N   N186      1.0  0.84177  0.84979  0.83517  1.0000
  C   C2260     1.0  0.86010  0.84523  0.82588  1.0000
  C   C2261     1.0  0.83532  0.86924  0.83869  1.0000
  C   C2262     1.0  0.87219  0.86050  0.81942  1.0000
  C   C2263     1.0  0.84707  0.88487  0.83250  1.0000
  C   C2264     1.0  0.86555  0.88047  0.82272  1.0000
  C   C2265     1.0  0.82944  0.83357  0.84206  1.0000
  H   H2250     1.0  0.86541  0.82972  0.82331  1.0000
  H   H2251     1.0  0.82074  0.87291  0.84599  1.0000
  H   H2252     1.0  0.88657  0.85683  0.81188  1.0000
  H   H2253     1.0  0.84157  0.90042  0.83494  1.0000
  H   H2254     1.0  0.87462  0.89254  0.81765  1.0000
  H   H2255     1.0  0.83247  0.82105  0.83458  1.0000
  H   H2256     1.0  0.83313  0.82702  0.85420  1.0000
  H   H2257     1.0  0.81288  0.83949  0.84272  1.0000
  N   N187      1.0  0.77143  0.60035  0.81649  1.0000
  C   C2266     1.0  0.76418  0.60048  0.80243  1.0000
  C   C2267     1.0  0.77092  0.61826  0.82239  1.0000
  C   C2268     1.0  0.75571  0.61885  0.79406  1.0000
  C   C2269     1.0  0.76238  0.63688  0.81440  1.0000
  C   C2270     1.0  0.75470  0.63712  0.80017  1.0000
  C   C2271     1.0  0.78012  0.58088  0.82505  1.0000
  H   H2258     1.0  0.76432  0.58623  0.79790  1.0000
  H   H2259     1.0  0.77666  0.61819  0.83352  1.0000
  H   H2260     1.0  0.74935  0.61885  0.78320  1.0000
  H   H2261     1.0  0.76118  0.65099  0.81940  1.0000
  H   H2262     1.0  0.74751  0.65139  0.79413  1.0000
  H   H2263     1.0  0.77095  0.56866  0.82466  1.0000
  H   H2264     1.0  0.79610  0.57627  0.81961  1.0000
  H   H2265     1.0  0.78014  0.58180  0.83790  1.0000
  C   C2272     1.0  0.83021  0.80009  0.73897  1.0000
  C   C2273     1.0  0.70918  0.96935  0.92311  1.0000
  H   H2266     1.0  0.89258  0.73185  0.86189  1.0000
  C   C2274     1.0  0.75323  0.80519  0.82008  1.0000
  H   H2267     1.0  0.94929  0.72780  0.80333  1.0000
  C   C2275     1.0  0.83455  0.80544  0.72232  1.0000
  H   H2268     1.0  0.69235  0.50570  0.94633  1.0000
  H   H2269     1.0  0.68111  0.93273  0.93726  1.0000
  C   C2276     1.0  0.73063  0.81480  0.80005  1.0000
  H   H2270     1.0  0.95755  0.67721  0.92738  1.0000
  H   H2271     1.0  0.74518  0.77613  0.84941  1.0000
  H   H2272     1.0  0.95630  0.98184  0.90815  1.0000
  H   H2273     1.0  0.73935  0.95226  0.92364  1.0000
  H   H2274     1.0  0.95200  0.50058  0.88942  1.0000
  Fe  Fe383     1.0  0.77006  0.49295  0.84034  1.0000
  N   N188      1.0  0.80041  0.54165  0.90088  1.0000
  C   C2277     1.0  0.80414  0.52510  0.91224  1.0000
  C   C2278     1.0  0.81123  0.55770  0.89895  1.0000
  H   H2275     1.0  0.97781  0.51568  0.92004  1.0000
  C   C2279     1.0  0.82662  0.55717  0.90828  1.0000
  C   C2280     1.0  0.98766  0.49471  0.84979  1.0000
  H   H2276     1.0  0.98301  0.51410  0.94030  1.0000
  H   H2277     1.0  0.95190  0.67451  0.90796  1.0000
  C   C2281     1.0  0.94137  0.61808  0.92689  1.0000
  H   H2278     1.0  0.67586  0.62692  0.72486  1.0000
  H   H2279     1.0  0.80858  0.57064  0.88972  1.0000
  H   H2280     1.0  0.95016  0.70046  0.81000  1.0000
  C   C2282     1.0  0.91514  0.72459  0.82433  1.0000
  C   C2283     1.0  0.75610  0.50175  0.79423  1.0000
  S   S763      1.0  0.97734  0.74441  0.86591  1.0000
  C   C2284     1.0  0.92476  0.72281  0.85485  1.0000
  H   H2281     1.0  0.70505  0.50255  0.79709  1.0000
  C   C2285     1.0  0.98350  0.64566  0.88347  1.0000
  H   H2282     1.0  0.79979  0.76406  0.73945  1.0000
  C   C2286     1.0  0.97871  0.66650  0.87747  1.0000
  H   H2283     1.0  0.70134  0.48899  0.76995  1.0000
  C   C2287     1.0  0.94326  0.63858  0.92122  1.0000
  H   H2284     1.0  0.67886  0.62344  0.85048  1.0000
  H   H2285     1.0  0.91130  0.72585  0.81235  1.0000
  C   C2288     1.0  0.72257  0.98036  0.89014  1.0000
  C   C2289     1.0  0.69589  0.98181  0.91337  1.0000
  N   N189      1.0  0.66474  0.91359  0.95561  1.0000
  C   C2290     1.0  0.73054  0.78263  0.81753  1.0000
  H   H2286     1.0  0.71996  0.52147  0.92794  1.0000
  H   H2287     1.0  0.66537  0.60745  0.83098  1.0000
  C   C2291     1.0  0.96184  0.66809  0.91730  1.0000
  S   S764      1.0  0.98361  0.52657  0.88498  1.0000
  C   C2292     1.0  0.68312  0.67364  0.73430  1.0000
  S   S765      1.0  0.69854  0.66897  0.74967  1.0000
  H   H2288     1.0  0.95875  0.50974  0.93688  1.0000
  S   S766      1.0  0.81597  0.98278  0.83090  1.0000
  H   H2289     1.0  0.68901  0.89851  0.96813  1.0000
  C   C2293     1.0  0.75370  0.77245  0.83776  1.0000
  C   C2294     1.0  0.71362  0.50931  0.92447  1.0000
  N   N190      1.0  0.93502  0.71968  0.82702  1.0000
  S   S767      1.0  0.66978  0.66596  0.79504  1.0000
  C   C2295     1.0  0.95101  0.71543  0.81362  1.0000
  H   H2290     1.0  0.98837  0.64092  0.93243  1.0000
  H   H2291     1.0  0.79544  0.51246  0.91375  1.0000
  N   N191      1.0  0.74583  0.78697  0.82465  1.0000
  C   C2296     1.0  0.80938  0.77571  0.73460  1.0000
  C   C2297     1.0  0.97510  0.63458  0.93086  1.0000
  C   C2298     1.0  0.97535  0.50726  0.93234  1.0000
  C   C2299     1.0  0.71279  0.48688  0.90523  1.0000
  H   H2292     1.0  0.73030  0.51708  0.80834  1.0000
  C   C2300     1.0  0.93636  0.56113  0.96736  1.0000
  H   H2293     1.0  0.65779  0.93352  0.91759  1.0000
  H   H2294     1.0  0.92828  0.61174  0.92493  1.0000
  Fe  Fe384     1.0  0.76270  0.98419  0.85589  1.0000
  H   H2295     1.0  0.68780  0.92595  0.96402  1.0000
  C   C2301     1.0  0.96656  0.49097  0.89024  1.0000
  H   H2296     1.0  0.82297  0.51057  0.93032  1.0000
  H   H2297     1.0  0.97772  0.66989  0.91165  1.0000
  C   C2302     1.0  0.97858  0.95547  0.91302  1.0000
  C   C2303     1.0  0.97360  0.61405  0.93682  1.0000
  C   C2304     1.0  0.73981  0.74133  0.73279  1.0000
  H   H2298     1.0  0.76859  0.97711  0.77178  1.0000
  H   H2299     1.0  0.98551  0.60458  0.94296  1.0000
  H   H2300     1.0  0.95542  0.58979  0.93914  1.0000
  H   H2301     1.0  0.66333  0.65792  0.85642  1.0000
  S   S768      1.0  0.83071  0.98570  0.87327  1.0000
  H   H2302     1.0  0.78394  0.98520  0.88958  1.0000
  N   N192      1.0  0.72752  0.48571  0.78170  1.0000
  H   H2303     1.0  0.86996  0.98264  0.84434  1.0000
  H   H2304     1.0  0.89933  0.98504  0.85767  1.0000
