data_image0
_chemical_formula_structural       HFeSCH2NC3HCSFeHFeS2FeS2FeSFeS3FeS2FeS2FeSFeS3C3H3C6H4C2H2CH3CH2C6H4SCHC6H3C4H2C2SHSC4HSCHS2H2C2HCNH2FeHSHCHCSCHCHC2HNC5HCH2CHCH2NC6H8CH3FeSHCH3C3H2NC2HC2H3CFeCHSHCS2HNC6H4CH2SHC3HC3HC3HCHCNFe2H4NHFeH3CHCH2CHCH2FeC3HSH2SCHSHFeSCFe2S2FeS3FeS2FeS2FeSFeHS2FeHC7H3C6H10CHC2HSN2C6H5FeH2CHSH7CSCHCHCH2CSHCFeH2CFeC2SC2NC6H8NC6H5S2H2NSC4SCSC2HC2HCH2C4H3CSHCSNH4NCH4CHSCH2C2SH2SCH2FeC5H2SC5HFeSHNCHS2C2H2N2CHSFeS2FeS2FeHFeHS2FeS2CSFeCFeS3H4SCH3CSFeCFeCHC2HC6H4C6H4CH2FeCHC2HC3FeC2H2SH2C3H2FeCH3C2HC7H6FeHCSHCHCHC2HCHFeH4CHC2HCNHCH3CHCH3C3HSCSHNCSCHC2H2CHNHCH2CHC3HC2H2C2HCH6CNCNC3H2CSC2HCH2CH2SCSC2FeS5CHFeSCSHFeCHCHC2SHSFeS2FeS2FeSFeHS2FeCHSHCFeCHCNHSFeSCHCNC3HC3HC2S2CH3Fe2H2CH3CHC6H4CH3C2FeH4C2H2SHC4HNH5FeCHC3H2CH4C3NCHNCHC5H2SH2CHC3SHSFeHSCHSHCHCH2C3H2NH4SH2NHCH2C2HCHNH2C2NCH3CHSCSC7H4CH2CNC6H4CH2C2SC3SC4H3CH2CH2C2HCHCHCH2CFeHCHC2SC2SHSCSCNCHCSHCHFeCSFeS2CH2C2H3CHC2SFe2HSFeS2HCFeS3CH2CFeC3H2CH3NHC3SCHSHC3SH2C3SHCH2C2HCHFeC3HNC2HCS2Fe2C2H2CSCSC2HCH3C3H2CSCHC2HNCSHCH2CHNC2HCHC3H2CSHCSH4C2HSCS2C2SH3CH2SHC4SCNHCHC2HFeHFeCH3NCHSH2FeHCHCHCHC3H3SCS2HCFeS3HFeS2HSFeSFeCSNSHSCFeHSHFeS2FeS2FeSFeS3C2FeSC2H2FeC2SH2C6H4C5H3SFeC6H4C7H5CHC6H5CHC3HCH2SH4C2HC2H2CSHFeNHC3H2SH2FeH4FeC3HSCHCH3CNHNHFeCH2NHSHCHC4HC3H6C2H3CHCH2C4HNFeHCHC2H2CH2SHC2H2C2HCNCNC2FeCN2HCHCFeCH2SCH3C3H3SCHFeSCHCH5SFeSHSFeS3FeS2FeS2FeSFeCS4HSFeSHSFeSFe2SFeS2FeHC2HC3HC6H3C7SC7H4C6H4CNHCHCH2SHCSNC4HFeHC6H4C6H3SHNHSHSHCFeSHCHCH5CH3CH2N2CH2S2HCHCH3CNC3H6SC2HCH4C3FeSH4CH2CHCHFeSH2FeCSHC2HNH3SCNC7HSH3C2SCH4C2HC2FeC2HSH6CH2C2HCFeCH2C3HCNCHC3SH2SHFeS2FeSC2S2FeHCH2CFeS2FeS2FeSFeS3CNCHFeCSFeH2C3S3HCHC4SCH3CNH3CHCHC3HCHCH4C6H3C6HC2HNH2C6H5CH3C7HC3FeHFe2HCSHCFeCH2CHSHCH4C2NHSCH3C4H2CHCH4C2HNC2H2CH5NHCH4C3H3SH2C2S3HS3FeSHFeSFeSHSFeS2FeS2FeSFeS4C3HCH2C7H5Fe2HC6H4FeHSFeC2HC3HCH4CHC2HSH2C6H4C2HCH2C3NCHCSC4HNC4H8SHCSC2HC2NHNC5SFeHFeH2CHSC2HFeCHCH4C4H3CHNC2SC2H6CSCSH3NC2FeH2SHCH4C2HC2HSC5H2C3H2CHC2HFeS2NH2CHCHCH3C3HFeCSFeS2FeS2HCSHCH2CHCFeS2FeS2FeSFeS3FeHCHSFeSCSHSCH2FeHSC2HC5H3SH3CNCHC4H3C6H9C6H4C6H5CH4CHCH2C4H3FeH2C2HCH3C3HC3H2CH2CH2SFeHC2HCH2CH2C2SHCHCNHCSC2HCH2FeH2NSH2CHCSFeH2SHCHCNSH3CSH2C2SCHS2NFeCNC4H2CHCHCSC8HC2HNHSHC2H2C2HCNHSHFeS3FeS3HFeCHCFeNHCSH3C2HFeS2FeS2FeSFeS3C4H2C2HC2HCH2SH2C2HCH2CH2C6H4SCH2CH2CS2HCHCNC3HC3FeC3H3CH4NH2S2NC6H3CH4CH2C2HCHCHFeC2H3CFeH2C2HCH2FeH2CHC2HC2HCNHSCFeC2HCHCH4C2H2C2HCHS2C2H4C2SC2N2C3HCHCHCHCSHC2SHC4HCH2FeHCSH2SHC2H2SCFeS2FeS2FeSFeS3FeHCFeS2HFeSHSHCH3CHCSCSH3SFeSFeSHFeSFeHS2C2HSCSCNSHFeSFeSH2CH4SCFeH2SCH2C3H3C2Fe2C2H5C3HSC3HC2H2CNC6H5C2HCH2C7H4C6H4C6H4NHCSCHCH3C3HC2HCH2SH3FeHFeCHC4H2CSCH3C2SFeHCNC6H8SCHCNHNCHCH2NHFeSC4HCHCH2CH5CHCHC2HC3FeSFeSFeCHCNC2HNSCS2FeCSH2CHC2NHC2S2HFeS2FeSFeS3FeSHFeS2FeSFeS3CHCSHC2FeH2C6H7NC6H4C5H3SH2SHCHC2H3C5H5CSC2HCH2C5H3CFeC4H5CH2C2H2SH2C2HCHCH2CNC4HCH2C3H3CHC3SCHNCHCHCHCH3CH2C2H4CHC2HC2HCH5NH2SHCFeSHSHCH2FeHCFeCHNSCSH2FeSFeS2FeS2HC2SC2HCHSCHC3FeSCS4FeS2H2CFeSHCS2FeH2C2FeH2CSNCH2CHC7H4C6H5C6H4C6H5SCH2C2H2CS2CH2FeHFeHNHC2HC2H3C4HSHC2SC3NCHNHCFeH2FeCSHC5H3NCHNC6H9FeH3C2HC2SH2CH3CSHCFeHCHS2NH3SH2CH4CH3NH5SC6SFeS2FeS2FeSFeS3CH2C4HC2HC2H2CHCSH3FeSFeS3FeSFeSFeS3HCHC2HCH2C2H2CHCSHC2HC4HCH2SFeHCSFeHCH3CFeSC8H4C2SCHCH2C8H4C6H2SHC3H2C3HC6H2FeH2SCSH2C3SCNH2C2H2C2H3C3H5CHCHCS2H4CNCHCHCH2C2H2SNHCSH2SCH7CS2HFeCHC2HCSCNC4H2NH3SHCHSC2FeHCHFeH3C2SCFeS2FeS2FeSFeS3H2SNSFeS2FeS2FeSFeS3HFeCHSCS2C3H3FeHSHC2NCFeHS3C4HC2HCHC2H3CFeC5NHSC7H3C7H3C5FeH4C2H2C6H4C3H2C2H2SHC6H7C2HC7H5C2HSHC4FeCH8FeHC4SNCFeHNHCNC5H7C2HNH2SC3H3C2FeCSHC4SHSC2SCHNCH2FeH2FeS2HS2CH5CHCHCHC2H2CHCFeHC3NH2CN2FeHCHC2H2CH2CH5CHC3HCH5CH5CHNH3FeS2FeCFeHSCHSFeS2CFeSHCSFeHFeSHFe2S3C2H2SHNHC2HCFeHC5HS2C2HCHCH2CH3CSCHCFeH5CH2FeHC3FeSH2CHC2NC2H2C2SHSFeHC3S2HC6H3FeH4CSCHC2HCHC2H5CSH2NC7HCSH3C3S2CH2SNHC2NH4CFeHN2H2C3H3CSH3CFeHCH2FeH5S2C2H2NHCH3C2H5SFeS2FeSHFeSFeS5FeS2FeS2FeSFe2S2FeS2FeSHFe2S3CHCNC4H3SCFeC6H6C7H4SCNC7H4C2HCHCHFeH2C8H3CFeH2NH2NHCHC2HCNC6H8C2H2S2HC2H3SC3N2H4NHCH4CHCH2SNHC2H2CHCHCHC2FeCHCHSCS2HCH2FeCH2CSCH3C2HC2SH2CHCHC5HCHC2HC2H2SCFeHC4H3C2H3C2SH2CHC2HSHCH2CH2CHC2H2C3HFeC2H2CH2Fe2S2FeS2FeSFeS5FeSFeSFeS2H2C3HFeSH2SC4SCH3C6H3C4HC2H4C6H4CSFeH3C2H2C3HC4H2CH5FeCNC6HC2SH2NHCH3FeC3HFeSHSHCHCSHSH2CH2SHFeNC2H2C2HSHC2H3CH2CFeSNSCH2SHNC6H8CHC2SCH2C2SH2CH2CHCHC2HNC2FeH3CHC2HNFeSHFeS2FeSFeS4H3CHFeSCFeS2FeHFeS3NC3SH2SHCSHSCHSHCHFeHC2HCHCHCHCH2CHSH2CHC2H2CSH2C6H4C6HCHN2HFeH6C2HSCNH2C4H2SC2HC3NC6H9NC5SCNCHFeCHCH3C2HSCSCFeH4CHCHCH4CHCH2CHSHS2CFeSFeHSFeHC2FeSHFeS2FeSFeHS2FeSCFeS2FeSFeS3FeS3C6H2C8H5C7H2C4HC2HCHFeC2HSHC2H4CSHCH2CSCHC6H7CH2CFeH2SCH2CHC2FeH4CH4SCHCHC3H2FeC3HCHSHC3HNSNCHCH2CNCNCHCHCNCH4NCH4CSC4H3C3SH2NC2H2SH2SC2HC2HFeC2H5CH5C3NCH2CHCHCHCH3CHCHC3HC2HSHC2HCFeS2FeSHFeSFeHSC3H2CH3C4H2SFeS2FeS2Fe2S3C2HC2HNFeSHFeS2FeSFeS3NHC2HSHCH2C6H4C3HCH4C6H4CH3CHSC6H3SC6H5SH2C2SH3CHC2NC5SH2CSCHCHCHC2HCSNC6H8CH2CH2C2HNC2HC4FeSNC6H9NCSH2NCHC3H2CH2CHSC2HSHC2HCH2NH2FeCFeH3FeCHC2H2FeCHCSH2FeC4FeS2FeSHFeSFeS3CFeSH3FeCHSHCSH2CHNCNSHCH2C7H2C6H4CHSH2C2H6NC2HCSHC2HSCHNH2CS2C5H4CH4CHS2H2C2HC3H2C7HCHCSCFeHC2NC3SFeCH3C3H9C3H2NCHN2H2C2HSFeCH3CH3C2H2CHCHCSHSCH2C2SFeS2FeS2FeSFeS3CFeS2FeS2Fe2HS2CHC2HFeS2HSFeHCSHC2H2CH2CNHC2SHFe2CH3C6H3NFeHCH2C2NC4H2CHC2HFeH2C2H2C7H4C6H8CH2CHCFeCHCH2NSCHCHSCSH2CHCFeNCNC6H8CHC3HCH3CHCNH2NCHC3SCHSHC2H2C2SHC2SC4HSHC2HS2CHCH3CSCSC2HCH4C4HCHCHC4NHS2HC
_chemical_formula_sum              "H2304 Fe384 S768 C2304 N192"
_cell_length_a       56.5571
_cell_length_b       56.8457
_cell_length_c       96.7289
_cell_angle_alpha    76.4031
_cell_angle_beta     76.387
_cell_angle_gamma    76.2597

_space_group_name_H-M_alt    "P 1"
_space_group_IT_number       1

loop_
  _space_group_symop_operation_xyz
  'x, y, z'

loop_
  _atom_site_type_symbol
  _atom_site_label
  _atom_site_symmetry_multiplicity
  _atom_site_fract_x
  _atom_site_fract_y
  _atom_site_fract_z
  _atom_site_occupancy
  H   H1        1.0  0.04544  0.99129  0.21019  1.0000
  Fe  Fe1       1.0  0.17580  0.08243  0.00627  1.0000
  S   S1        1.0  0.17871  0.07743  0.02977  1.0000
  C   C1        1.0  0.40399  0.24226  0.14397  1.0000
  H   H2        1.0  0.25334  0.13326  0.17302  1.0000
  H   H3        1.0  0.35863  0.28011  0.12703  1.0000
  N   N1        1.0  0.23263  0.14102  0.19348  1.0000
  C   C2        1.0  0.26410  0.15287  0.21957  1.0000
  C   C3        1.0  0.35387  0.24699  0.14280  1.0000
  C   C4        1.0  0.48209  0.29158  0.04729  1.0000
  H   H4        1.0  0.24842  0.10258  0.19589  1.0000
  C   C5        1.0  0.37376  0.28449  0.17881  1.0000
  S   S2        1.0  0.02938  0.29253  0.09835  1.0000
  Fe  Fe2       1.0  0.45631  0.26583  0.12843  1.0000
  H   H5        1.0  0.08427  0.10268  0.99180  1.0000
  Fe  Fe3       1.0  0.27183  0.24417  0.18985  1.0000
  S   S3        1.0  0.30966  0.22254  0.18278  1.0000
  S   S4        1.0  0.26457  0.27174  0.20459  1.0000
  Fe  Fe4       1.0  0.24760  0.22084  0.17226  1.0000
  S   S5        1.0  0.28388  0.19795  0.16379  1.0000
  S   S6        1.0  0.21135  0.21540  0.16853  1.0000
  Fe  Fe5       1.0  0.29016  0.19077  0.18661  1.0000
  S   S7        1.0  0.30470  0.15199  0.19743  1.0000
  Fe  Fe6       1.0  0.29924  0.23214  0.16089  1.0000
  S   S8        1.0  0.32334  0.24926  0.14090  1.0000
  S   S9        1.0  0.25294  0.21172  0.19531  1.0000
  S   S10       1.0  0.26232  0.25585  0.16765  1.0000
  Fe  Fe7       1.0  0.15157  0.16224  0.08483  1.0000
  S   S11       1.0  0.12415  0.14273  0.10154  1.0000
  S   S12       1.0  0.15192  0.16955  0.06080  1.0000
  Fe  Fe8       1.0  0.17768  0.16952  0.10750  1.0000
  S   S13       1.0  0.15273  0.15021  0.12592  1.0000
  S   S14       1.0  0.20955  0.18485  0.10994  1.0000
  Fe  Fe9       1.0  0.15719  0.12308  0.11156  1.0000
  S   S15       1.0  0.16738  0.08199  0.11857  1.0000
  Fe  Fe10      1.0  0.12214  0.17199  0.11416  1.0000
  S   S16       1.0  0.08746  0.19013  0.12776  1.0000
  S   S17       1.0  0.18483  0.14056  0.09395  1.0000
  S   S18       1.0  0.14695  0.19330  0.09662  1.0000
  C   C6        1.0  0.14609  0.06898  0.13277  1.0000
  C   C7        1.0  0.12392  0.08339  0.13856  1.0000
  C   C8        1.0  0.10782  0.07266  0.15049  1.0000
  H   H6        1.0  0.17240  0.08095  0.05955  1.0000
  H   H7        1.0  0.11941  0.10286  0.13404  1.0000
  H   H8        1.0  0.09091  0.08394  0.15518  1.0000
  C   C9        1.0  0.21213  0.20445  0.15279  1.0000
  C   C10       1.0  0.23237  0.20530  0.14128  1.0000
  C   C11       1.0  0.23167  0.19841  0.12836  1.0000
  C   C12       1.0  0.21086  0.19046  0.12690  1.0000
  C   C13       1.0  0.19092  0.18890  0.13859  1.0000
  C   C14       1.0  0.19155  0.19592  0.15149  1.0000
  H   H9        1.0  0.24824  0.21200  0.14212  1.0000
  H   H10       1.0  0.24712  0.19974  0.11934  1.0000
  H   H11       1.0  0.17473  0.18300  0.13754  1.0000
  H   H12       1.0  0.17582  0.19527  0.16036  1.0000
  C   C15       1.0  0.36520  0.22722  0.15222  1.0000
  C   C16       1.0  0.20002  0.15335  0.21284  1.0000
  H   H13       1.0  0.35494  0.21330  0.15870  1.0000
  H   H14       1.0  0.09388  0.05952  0.12254  1.0000
  C   C17       1.0  0.28427  0.29632  0.21904  1.0000
  H   H15       1.0  0.21487  0.17839  0.19429  1.0000
  H   H16       1.0  0.13427  0.04909  0.10647  1.0000
  H   H17       1.0  0.29816  0.31115  0.16699  1.0000
  C   C18       1.0  0.28881  0.27697  0.21145  1.0000
  H   H18       1.0  0.14015  0.01373  0.15475  1.0000
  H   H19       1.0  0.14692  0.02718  0.21546  1.0000
  C   C19       1.0  0.04499  0.26398  0.10674  1.0000
  C   C20       1.0  0.06542  0.25085  0.09847  1.0000
  C   C21       1.0  0.07833  0.22805  0.10478  1.0000
  C   C22       1.0  0.07100  0.21830  0.11945  1.0000
  C   C23       1.0  0.05056  0.23142  0.12774  1.0000
  C   C24       1.0  0.03753  0.25420  0.12140  1.0000
  H   H20       1.0  0.07123  0.25827  0.08712  1.0000
  H   H21       1.0  0.09383  0.21796  0.09824  1.0000
  H   H22       1.0  0.04478  0.22396  0.13909  1.0000
  H   H23       1.0  0.02179  0.26420  0.12786  1.0000
  S   S19       1.0  0.45685  0.30650  0.98257  1.0000
  C   C25       1.0  0.12837  0.99178  0.12575  1.0000
  H   H24       1.0  0.39917  0.20924  0.15983  1.0000
  C   C26       1.0  0.16839  0.10304  0.03853  1.0000
  C   C27       1.0  0.16245  0.12702  0.03075  1.0000
  C   C28       1.0  0.15682  0.14728  0.03776  1.0000
  C   C29       1.0  0.15687  0.14369  0.05262  1.0000
  C   C30       1.0  0.16211  0.11969  0.06050  1.0000
  C   C31       1.0  0.16789  0.09945  0.05346  1.0000
  H   H25       1.0  0.16259  0.13003  0.01928  1.0000
  H   H26       1.0  0.15260  0.16580  0.03164  1.0000
  H   H27       1.0  0.16210  0.11674  0.07197  1.0000
  C   C32       1.0  0.12614  0.03458  0.11423  1.0000
  C   C33       1.0  0.40081  0.21977  0.11436  1.0000
  C   C34       1.0  0.30449  0.19458  0.22357  1.0000
  C   C35       1.0  0.28742  0.11256  0.21594  1.0000
  H   H28       1.0  0.40418  0.20317  0.12247  1.0000
  H   H29       1.0  0.36925  0.28989  0.08070  1.0000
  C   C36       1.0  0.15180  0.04382  0.13861  1.0000
  C   C37       1.0  0.23446  0.11690  0.20041  1.0000
  S   S20       1.0  0.20165  0.05670  0.99219  1.0000
  H   H30       1.0  0.25879  0.14351  0.99115  1.0000
  S   S21       1.0  0.14142  0.07874  0.99973  1.0000
  C   C38       1.0  0.39025  0.22487  0.15279  1.0000
  C   C39       1.0  0.06942  0.02878  0.14302  1.0000
  C   C40       1.0  0.16814  0.99328  0.98272  1.0000
  C   C41       1.0  0.46896  0.30267  0.03603  1.0000
  H   H31       1.0  0.15664  0.00543  0.10858  1.0000
  S   S22       1.0  0.18088  0.11705  0.98998  1.0000
  C   C42       1.0  0.35455  0.28238  0.17261  1.0000
  H   H32       1.0  0.20601  0.26061  0.12958  1.0000
  S   S23       1.0  0.49166  0.31439  0.10182  1.0000
  S   S24       1.0  0.47445  0.26101  0.10574  1.0000
  H   H33       1.0  0.22033  0.09131  0.21920  1.0000
  H   H34       1.0  0.10340  0.06095  0.98676  1.0000
  C   C43       1.0  0.13555  0.03309  0.15037  1.0000
  C   C44       1.0  0.28374  0.13831  0.21178  1.0000
  H   H35       1.0  0.12388  0.05846  0.18858  1.0000
  C   C45       1.0  0.38683  0.28717  0.08462  1.0000
  N   N2        1.0  0.09348  0.02235  0.13363  1.0000
  H   H36       1.0  0.31629  0.24738  0.20361  1.0000
  H   H37       1.0  0.06667  0.04765  0.14529  1.0000
  Fe  Fe11      1.0  0.45868  0.30124  0.09942  1.0000
  H   H38       1.0  0.23765  0.11397  0.98579  1.0000
  S   S25       1.0  0.43593  0.31689  0.08187  1.0000
  H   H39       1.0  0.02916  0.28258  0.06907  1.0000
  C   C46       1.0  0.37718  0.22885  0.11110  1.0000
  H   H40       1.0  0.26166  0.17263  0.21689  1.0000
  C   C47       1.0  0.47205  0.29562  0.06147  1.0000
  S   S26       1.0  0.09439  0.03498  0.17210  1.0000
  C   C48       1.0  0.21589  0.15920  0.19959  1.0000
  H   H41       1.0  0.24188  0.16529  0.17331  1.0000
  C   C49       1.0  0.02920  0.98664  0.21784  1.0000
  H   H42       1.0  0.36201  0.21940  0.11670  1.0000
  C   C50       1.0  0.34564  0.31597  0.19075  1.0000
  C   C51       1.0  0.24968  0.14746  0.17983  1.0000
  H   H43       1.0  0.18700  0.16784  0.21774  1.0000
  N   N3        1.0  0.15731  0.05555  0.17276  1.0000
  C   C52       1.0  0.13572  0.06815  0.17963  1.0000
  C   C53       1.0  0.17205  0.06767  0.16133  1.0000
  C   C54       1.0  0.12803  0.09346  0.17481  1.0000
  C   C55       1.0  0.16492  0.09296  0.15621  1.0000
  C   C56       1.0  0.14271  0.10588  0.16298  1.0000
  H   H44       1.0  0.26754  0.14901  0.18212  1.0000
  C   C57       1.0  0.26126  0.14092  0.98013  1.0000
  H   H45       1.0  0.18904  0.05770  0.15575  1.0000
  H   H46       1.0  0.11048  0.10319  0.17998  1.0000
  C   C58       1.0  0.21868  0.11038  0.21359  1.0000
  H   H47       1.0  0.13662  0.12535  0.15887  1.0000
  C   C59       1.0  0.32698  0.28624  0.22249  1.0000
  H   H48       1.0  0.43797  0.22633  0.11058  1.0000
  H   H49       1.0  0.30087  0.28014  0.17733  1.0000
  N   N4        1.0  0.21876  0.14292  0.04504  1.0000
  C   C60       1.0  0.22025  0.14148  0.03093  1.0000
  C   C61       1.0  0.22259  0.12191  0.05526  1.0000
  C   C62       1.0  0.22507  0.11855  0.02679  1.0000
  C   C63       1.0  0.22746  0.09867  0.05150  1.0000
  C   C64       1.0  0.22857  0.09704  0.03718  1.0000
  C   C65       1.0  0.21396  0.16715  0.04908  1.0000
  H   H50       1.0  0.21707  0.15813  0.02285  1.0000
  H   H51       1.0  0.22127  0.12302  0.06647  1.0000
  H   H52       1.0  0.22524  0.11740  0.01573  1.0000
  H   H53       1.0  0.22957  0.08205  0.05972  1.0000
  H   H54       1.0  0.23124  0.07918  0.03423  1.0000
  H   H55       1.0  0.23144  0.17425  0.04667  1.0000
  H   H56       1.0  0.20018  0.18047  0.04313  1.0000
  H   H57       1.0  0.20568  0.16623  0.06078  1.0000
  C   C66       1.0  0.31247  0.26219  0.20947  1.0000
  H   H58       1.0  0.34971  0.25527  0.21342  1.0000
  H   H59       1.0  0.35816  0.26897  0.16569  1.0000
  H   H60       1.0  0.39194  0.27284  0.17665  1.0000
  Fe  Fe12      1.0  0.14862  0.11135  0.98220  1.0000
  S   S27       1.0  0.15617  0.02510  0.97753  1.0000
  H   H61       1.0  0.17507  0.02586  0.18697  1.0000
  C   C67       1.0  0.11379  0.04756  0.15652  1.0000
  H   H62       1.0  0.17614  0.10225  0.14673  1.0000
  H   H63       1.0  0.30274  0.10115  0.21002  1.0000
  H   H64       1.0  0.40277  0.27572  0.12793  1.0000
  C   C68       1.0  0.36917  0.30132  0.18802  1.0000
  C   C69       1.0  0.10549  0.99823  0.13471  1.0000
  C   C70       1.0  0.36736  0.26476  0.13431  1.0000
  H   H65       1.0  0.99956  0.27866  0.08027  1.0000
  H   H66       1.0  0.26599  0.30781  0.22065  1.0000
  N   N5        1.0  0.39165  0.26355  0.09460  1.0000
  C   C71       1.0  0.37283  0.25103  0.10123  1.0000
  C   C72       1.0  0.41486  0.25482  0.09777  1.0000
  H   H67       1.0  0.12218  0.23640  0.11378  1.0000
  C   C73       1.0  0.41979  0.23281  0.10769  1.0000
  C   C74       1.0  0.39237  0.26238  0.13488  1.0000
  H   H68       1.0  0.27834  0.22816  0.22686  1.0000
  H   H69       1.0  0.35418  0.25837  0.09920  1.0000
  H   H70       1.0  0.42955  0.26516  0.09278  1.0000
  C   C75       1.0  0.20145  0.12875  0.21986  1.0000
  Fe  Fe13      1.0  0.16753  0.05579  0.98434  1.0000
  C   C76       1.0  0.01330  0.00443  0.22537  1.0000
  H   H71       1.0  0.48661  0.29893  0.16112  1.0000
  S   S28       1.0  0.43580  0.23780  0.14399  1.0000
  H   H72       1.0  0.17701  0.01976  0.16915  1.0000
  C   C77       1.0  0.10333  0.04039  0.12341  1.0000
  S   S29       1.0  0.43811  0.30499  0.12185  1.0000
  S   S30       1.0  0.48291  0.29861  0.01826  1.0000
  H   H73       1.0  0.16888  0.03262  0.13406  1.0000
  N   N6        1.0  0.14740  0.24053  0.12598  1.0000
  C   C78       1.0  0.16725  0.24078  0.11473  1.0000
  C   C79       1.0  0.14821  0.24723  0.13854  1.0000
  C   C80       1.0  0.18840  0.24852  0.11572  1.0000
  C   C81       1.0  0.16913  0.25494  0.13993  1.0000
  C   C82       1.0  0.18932  0.25559  0.12842  1.0000
  C   C83       1.0  0.12598  0.23115  0.12498  1.0000
  H   H74       1.0  0.16718  0.23423  0.10506  1.0000
  H   H75       1.0  0.13286  0.24614  0.14766  1.0000
  H   H76       1.0  0.20443  0.24780  0.10696  1.0000
  H   H77       1.0  0.17014  0.25944  0.15006  1.0000
  C   C84       1.0  0.32682  0.31322  0.18445  1.0000
  H   H78       1.0  0.12958  0.21071  0.12811  1.0000
  H   H79       1.0  0.10877  0.23867  0.13216  1.0000
  S   S31       1.0  0.48930  0.27542  0.13343  1.0000
  H   H80       1.0  0.00901  0.26785  0.06341  1.0000
  C   C85       1.0  0.00951  0.28284  0.06886  1.0000
  C   C86       1.0  0.16492  0.02901  0.17795  1.0000
  C   C87       1.0  0.17548  0.00525  0.22696  1.0000
  H   H81       1.0  0.38354  0.30258  0.19338  1.0000
  C   C88       1.0  0.33140  0.26668  0.21508  1.0000
  C   C89       1.0  0.13877  0.01012  0.11549  1.0000
  C   C90       1.0  0.30334  0.30107  0.22447  1.0000
  H   H82       1.0  0.14848  0.02002  0.18183  1.0000
  C   C91       1.0  0.44869  0.31056  0.06443  1.0000
  C   C92       1.0  0.07341  0.10452  0.98359  1.0000
  C   C93       1.0  0.31126  0.29343  0.16939  1.0000
  H   H83       1.0  0.31570  0.20330  0.21390  1.0000
  C   C94       1.0  0.05324  0.12417  0.98241  1.0000
  H   H84       1.0  0.40204  0.28812  0.07494  1.0000
  C   C95       1.0  0.15798  0.00899  0.21815  1.0000
  N   N7        1.0  0.99815  0.30719  0.06165  1.0000
  Fe  Fe14      1.0  0.10313  0.99378  0.17950  1.0000
  Fe  Fe15      1.0  0.99500  0.31314  0.11093  1.0000
  H   H85       1.0  0.04859  0.13726  0.98964  1.0000
  H   H86       1.0  0.05421  0.02773  0.13786  1.0000
  H   H87       1.0  0.19007  0.99776  0.99699  1.0000
  H   H88       1.0  0.01751  0.02264  0.22356  1.0000
  N   N8        1.0  0.33150  0.29679  0.17538  1.0000
  H   H89       1.0  0.06825  0.01619  0.15375  1.0000
  Fe  Fe16      1.0  0.47240  0.31457  0.12494  1.0000
  H   H90       1.0  0.48247  0.28735  0.07004  1.0000
  H   H91       1.0  0.31834  0.28634  0.15911  1.0000
  H   H92       1.0  0.14117  0.99246  0.20603  1.0000
  C   C96       1.0  0.15466  0.98933  0.21282  1.0000
  H   H93       1.0  0.38592  0.30258  0.09012  1.0000
  C   C97       1.0  0.48251  0.31146  0.16865  1.0000
  H   H94       1.0  0.32677  0.15849  0.22279  1.0000
  H   H95       1.0  0.41863  0.28680  0.97734  1.0000
  C   C98       1.0  0.18483  0.98479  0.99223  1.0000
  H   H96       1.0  0.26426  0.00096  0.97760  1.0000
  C   C99       1.0  0.44548  0.31738  0.03906  1.0000
  H   H97       1.0  0.44300  0.31685  0.17054  1.0000
  H   H98       1.0  0.29903  0.01512  0.28659  1.0000
  Fe  Fe17      1.0  0.26179  0.01123  0.25041  1.0000
  C   C100      1.0  0.27960  0.29421  0.45370  1.0000
  C   C101      1.0  0.30347  0.13139  0.24613  1.0000
  C   C102      1.0  0.37595  0.08717  0.47436  1.0000
  H   H99       1.0  0.30562  0.06352  0.44915  1.0000
  S   S32       1.0  0.44467  0.30337  0.34961  1.0000
  H   H100      1.0  0.35779  0.12891  0.42641  1.0000
  H   H101      1.0  0.20036  0.01192  0.42083  1.0000
  S   S33       1.0  0.21057  0.00239  0.30033  1.0000
  C   C103      1.0  0.24624  0.05643  0.41543  1.0000
  H   H102      1.0  0.01236  0.04310  0.38428  1.0000
  S   S34       1.0  0.44390  0.29585  0.38451  1.0000
  H   H103      1.0  0.39415  0.23797  0.32076  1.0000
  Fe  Fe18      1.0  0.42156  0.28758  0.37045  1.0000
  S   S35       1.0  0.40840  0.25242  0.37163  1.0000
  C   C104      1.0  0.20666  0.28362  0.46613  1.0000
  Fe  Fe19      1.0  0.17519  0.06155  0.36763  1.0000
  Fe  Fe20      1.0  0.16913  0.07170  0.39787  1.0000
  S   S36       1.0  0.15468  0.03674  0.40830  1.0000
  S   S37       1.0  0.17340  0.09340  0.41378  1.0000
  Fe  Fe21      1.0  0.13218  0.04628  0.39071  1.0000
  S   S38       1.0  0.09445  0.03557  0.39522  1.0000
  S   S39       1.0  0.20157  0.05363  0.38306  1.0000
  S   S40       1.0  0.14368  0.08292  0.38163  1.0000
  Fe  Fe22      1.0  0.29950  0.19872  0.42781  1.0000
  S   S41       1.0  0.29199  0.18120  0.45135  1.0000
  S   S42       1.0  0.32142  0.22867  0.42453  1.0000
  Fe  Fe23      1.0  0.26744  0.16881  0.42016  1.0000
  S   S43       1.0  0.25756  0.14962  0.44313  1.0000
  S   S44       1.0  0.25390  0.16024  0.40197  1.0000
  Fe  Fe24      1.0  0.25270  0.18700  0.44862  1.0000
  S   S45       1.0  0.22102  0.20100  0.46564  1.0000
  Fe  Fe25      1.0  0.29780  0.14588  0.44350  1.0000
  H   H104      1.0  0.28686  0.12324  0.25173  1.0000
  S   S46       1.0  0.25957  0.20675  0.42552  1.0000
  S   S47       1.0  0.30833  0.16279  0.42007  1.0000
  Fe  Fe26      1.0  0.23294  0.06267  0.25377  1.0000
  H   H105      1.0  0.11786  0.99911  0.41667  1.0000
  C   C105      1.0  0.22158  0.27426  0.45409  1.0000
  C   C106      1.0  0.06935  0.05117  0.38641  1.0000
  C   C107      1.0  0.04853  0.04022  0.38898  1.0000
  C   C108      1.0  0.02817  0.05184  0.38221  1.0000
  C   C109      1.0  0.02837  0.07463  0.37279  1.0000
  C   C110      1.0  0.04917  0.08566  0.37023  1.0000
  C   C111      1.0  0.06959  0.07401  0.37701  1.0000
  H   H106      1.0  0.39040  0.07110  0.47619  1.0000
  H   H107      1.0  0.04938  0.10341  0.36308  1.0000
  H   H108      1.0  0.08529  0.08286  0.37516  1.0000
  C   C112      1.0  0.19772  0.10971  0.41037  1.0000
  C   C113      1.0  0.20318  0.11694  0.42199  1.0000
  C   C114      1.0  0.22103  0.13167  0.41961  1.0000
  C   C115      1.0  0.23344  0.13947  0.40555  1.0000
  C   C116      1.0  0.22852  0.13161  0.39397  1.0000
  C   C117      1.0  0.21081  0.11665  0.39636  1.0000
  H   H109      1.0  0.19319  0.11151  0.43286  1.0000
  H   H110      1.0  0.22448  0.13766  0.42862  1.0000
  H   H111      1.0  0.23808  0.13753  0.38304  1.0000
  H   H112      1.0  0.20674  0.11116  0.38733  1.0000
  H   H113      1.0  0.04816  0.02257  0.39623  1.0000
  H   H114      1.0  0.19400  0.02319  0.34838  1.0000
  H   H115      1.0  0.23786  0.24206  0.44461  1.0000
  H   H116      1.0  0.32485  0.14511  0.46708  1.0000
  H   H117      1.0  0.10110  0.09595  0.34369  1.0000
  H   H118      1.0  0.39039  0.12424  0.41810  1.0000
  C   C118      1.0  0.35889  0.08746  0.46583  1.0000
  H   H119      1.0  0.26523  0.09573  0.41470  1.0000
  C   C119      1.0  0.21493  0.23294  0.46552  1.0000
  C   C120      1.0  0.19813  0.06472  0.31669  1.0000
  H   H120      1.0  0.37913  0.10515  0.43509  1.0000
  S   S48       1.0  0.18433  0.07686  0.34364  1.0000
  N   N9        1.0  0.27009  0.24991  0.47134  1.0000
  N   N10       1.0  0.37037  0.28813  0.33630  1.0000
  C   C121      1.0  0.38420  0.24571  0.38629  1.0000
  C   C122      1.0  0.37594  0.26026  0.39693  1.0000
  C   C123      1.0  0.35664  0.25476  0.40855  1.0000
  C   C124      1.0  0.34531  0.23481  0.40957  1.0000
  C   C125      1.0  0.35349  0.22022  0.39893  1.0000
  C   C126      1.0  0.37296  0.22565  0.38732  1.0000
  H   H121      1.0  0.38456  0.27565  0.39630  1.0000
  H   H122      1.0  0.35048  0.26607  0.41677  1.0000
  H   H123      1.0  0.34483  0.20484  0.39961  1.0000
  H   H124      1.0  0.37930  0.21433  0.37910  1.0000
  H   H125      1.0  0.12369  0.00406  0.35623  1.0000
  Fe  Fe27      1.0  0.20810  0.02650  0.24653  1.0000
  H   H126      1.0  0.19640  0.08436  0.31259  1.0000
  H   H127      1.0  0.25294  0.20763  0.24892  1.0000
  C   C127      1.0  0.12095  0.08786  0.34389  1.0000
  H   H128      1.0  0.41621  0.29943  0.30433  1.0000
  S   S49       1.0  0.17860  0.03050  0.23347  1.0000
  H   H129      1.0  0.13279  0.10025  0.33623  1.0000
  H   H130      1.0  0.24771  0.07004  0.40507  1.0000
  H   H131      1.0  0.36718  0.26253  0.30330  1.0000
  H   H132      1.0  0.40530  0.11451  0.44852  1.0000
  H   H133      1.0  0.36020  0.07148  0.46122  1.0000
  H   H134      1.0  0.29220  0.09946  0.43055  1.0000
  H   H135      1.0  0.25038  0.03779  0.41262  1.0000
  C   C128      1.0  0.21611  0.99720  0.42247  1.0000
  S   S50       1.0  0.16213  0.02568  0.37582  1.0000
  C   C129      1.0  0.12179  0.04342  0.35088  1.0000
  H   H136      1.0  0.18981  0.12391  0.23036  1.0000
  C   C130      1.0  0.20394  0.04842  0.30693  1.0000
  H   H137      1.0  0.12465  0.08700  0.35480  1.0000
  C   C131      1.0  0.37700  0.12417  0.42853  1.0000
  H   H138      1.0  0.26153  0.00336  0.30342  1.0000
  H   H139      1.0  0.32794  0.00469  0.26275  1.0000
  C   C132      1.0  0.20223  0.01406  0.32714  1.0000
  S   S51       1.0  0.24209  0.04223  0.23549  1.0000
  H   H140      1.0  0.23022  0.28657  0.44501  1.0000
  C   C133      1.0  0.20561  0.02307  0.31217  1.0000
  Fe  Fe28      1.0  0.18564  0.01947  0.39253  1.0000
  H   H141      1.0  0.20662  0.05553  0.29538  1.0000
  H   H142      1.0  0.39234  0.29534  0.34917  1.0000
  C   C134      1.0  0.12747  0.01970  0.34772  1.0000
  Fe  Fe29      1.0  0.22091  0.01789  0.27645  1.0000
  C   C135      1.0  0.19657  0.03035  0.33688  1.0000
  C   C136      1.0  0.19408  0.05577  0.33170  1.0000
  S   S52       1.0  0.30121  0.99294  0.24258  1.0000
  C   C137      1.0  0.22591  0.24901  0.45383  1.0000
  C   C138      1.0  0.25195  0.11621  0.23566  1.0000
  N   N11       1.0  0.18269  0.18359  0.41696  1.0000
  C   C139      1.0  0.16788  0.17022  0.42765  1.0000
  C   C140      1.0  0.19631  0.19759  0.42039  1.0000
  C   C141      1.0  0.16697  0.17014  0.44226  1.0000
  C   C142      1.0  0.19543  0.19831  0.43487  1.0000
  C   C143      1.0  0.18086  0.18431  0.44585  1.0000
  C   C144      1.0  0.18306  0.18388  0.40171  1.0000
  H   H143      1.0  0.15713  0.15904  0.42494  1.0000
  H   H144      1.0  0.20815  0.20811  0.41192  1.0000
  H   H145      1.0  0.15563  0.15911  0.45072  1.0000
  H   H146      1.0  0.20601  0.20959  0.43762  1.0000
  H   H147      1.0  0.18042  0.18451  0.45712  1.0000
  H   H148      1.0  0.17929  0.16630  0.40034  1.0000
  H   H149      1.0  0.16893  0.19945  0.39757  1.0000
  H   H150      1.0  0.20166  0.18577  0.39497  1.0000
  N   N12       1.0  0.38104  0.14169  0.43629  1.0000
  C   C145      1.0  0.37011  0.16606  0.43323  1.0000
  C   C146      1.0  0.39662  0.13382  0.44605  1.0000
  C   C147      1.0  0.37410  0.18312  0.44035  1.0000
  C   C148      1.0  0.40092  0.15036  0.45342  1.0000
  C   C149      1.0  0.38948  0.17513  0.45058  1.0000
  C   C150      1.0  0.26927  0.19693  0.24322  1.0000
  H   H151      1.0  0.35812  0.17248  0.42530  1.0000
  H   H152      1.0  0.20368  0.99445  0.33125  1.0000
  H   H153      1.0  0.36523  0.20239  0.43794  1.0000
  H   H154      1.0  0.41254  0.14376  0.46157  1.0000
  H   H155      1.0  0.22678  0.05994  0.42144  1.0000
  S   S53       1.0  0.23194  0.10335  0.25079  1.0000
  S   S54       1.0  0.25559  0.03333  0.26781  1.0000
  H   H156      1.0  0.26481  0.16261  0.25771  1.0000
  H   H157      1.0  0.39248  0.18806  0.45634  1.0000
  N   N13       1.0  0.26327  0.05821  0.42432  1.0000
  S   S55       1.0  0.00275  0.09017  0.36437  1.0000
  C   C151      1.0  0.36761  0.26934  0.31281  1.0000
  C   C152      1.0  0.37250  0.29808  0.34850  1.0000
  C   C153      1.0  0.27612  0.17152  0.24814  1.0000
  C   C154      1.0  0.28995  0.27200  0.44893  1.0000
  S   S56       1.0  0.35201  0.29244  0.22810  1.0000
  C   C155      1.0  0.13830  0.01636  0.33361  1.0000
  S   S57       1.0  0.19750  0.04920  0.26395  1.0000
  C   C156      1.0  0.27090  0.07996  0.42282  1.0000
  C   C157      1.0  0.27046  0.03838  0.43461  1.0000
  H   H158      1.0  0.39598  0.25486  0.34184  1.0000
  C   C158      1.0  0.28590  0.03988  0.44363  1.0000
  C   C159      1.0  0.35326  0.29215  0.31518  1.0000
  H   H159      1.0  0.26433  0.02122  0.43588  1.0000
  C   C160      1.0  0.33902  0.12897  0.46904  1.0000
  H   H160      1.0  0.14334  0.99803  0.33102  1.0000
  H   H161      1.0  0.14164  0.07576  0.31804  1.0000
  C   C161      1.0  0.26479  0.29404  0.46746  1.0000
  C   C162      1.0  0.13724  0.06015  0.32640  1.0000
  C   C163      1.0  0.28622  0.08218  0.43171  1.0000
  C   C164      1.0  0.14300  0.03671  0.32283  1.0000
  H   H162      1.0  0.12203  0.98621  0.24387  1.0000
  H   H163      1.0  0.15183  0.03424  0.31187  1.0000
  H   H164      1.0  0.11347  0.04585  0.36190  1.0000
  C   C165      1.0  0.29376  0.06198  0.44217  1.0000
  S   S58       1.0  0.45428  0.06211  0.47423  1.0000
  H   H165      1.0  0.29161  0.02398  0.45171  1.0000
  C   C166      1.0  0.34058  0.10847  0.46300  1.0000
  S   S59       1.0  0.32070  0.10901  0.45134  1.0000
  N   N14       1.0  0.12712  0.06318  0.34033  1.0000
  H   H166      1.0  0.23339  0.15334  0.23761  1.0000
  H   H167      1.0  0.25600  0.31125  0.47112  1.0000
  H   H168      1.0  0.31258  0.12154  0.23701  1.0000
  H   H169      1.0  0.27443  0.08160  0.23106  1.0000
  N   N15       1.0  0.29647  0.15797  0.24079  1.0000
  C   C167      1.0  0.38291  0.25572  0.32250  1.0000
  H   H170      1.0  0.04471  0.98758  0.24622  1.0000
  H   H171      1.0  0.31635  0.12796  0.25376  1.0000
  H   H172      1.0  0.30142  0.27186  0.43822  1.0000
  H   H173      1.0  0.07797  0.00820  0.24786  1.0000
  C   C168      1.0  0.28509  0.24987  0.45798  1.0000
  H   H174      1.0  0.42092  0.31702  0.32442  1.0000
  S   S60       1.0  0.22854  0.99350  0.25997  1.0000
  C   C169      1.0  0.22766  0.99467  0.43423  1.0000
  H   H175      1.0  0.28277  0.31156  0.44669  1.0000
  H   H176      1.0  0.22059  0.00738  0.44166  1.0000
  C   C170      1.0  0.38394  0.26540  0.33433  1.0000
  C   C171      1.0  0.26026  0.27158  0.47622  1.0000
  S   S61       1.0  0.20391  0.31506  0.46635  1.0000
  H   H177      1.0  0.29306  0.23274  0.45412  1.0000
  H   H178      1.0  0.34183  0.30313  0.30747  1.0000
  S   S62       1.0  0.43981  0.00229  0.46816  1.0000
  C   C172      1.0  0.35488  0.30136  0.32705  1.0000
  H   H179      1.0  0.36271  0.28834  0.35883  1.0000
  H   H180      1.0  0.26441  0.21315  0.47414  1.0000
  Fe  Fe30      1.0  0.46462  0.31509  0.36373  1.0000
  C   C173      1.0  0.08265  0.98982  0.24536  1.0000
  C   C174      1.0  0.24836  0.14189  0.23152  1.0000
  C   C175      1.0  0.27480  0.98992  0.29773  1.0000
  C   C176      1.0  0.29600  0.99645  0.28819  1.0000
  C   C177      1.0  0.28355  0.20848  0.23083  1.0000
  H   H181      1.0  0.34714  0.99055  0.27631  1.0000
  H   H182      1.0  0.29978  0.31624  0.23014  1.0000
  S   S63       1.0  0.38626  0.31685  0.28272  1.0000
  C   C178      1.0  0.31077  0.16922  0.22874  1.0000
  C   C179      1.0  0.41499  0.98621  0.47404  1.0000
  C   C180      1.0  0.27144  0.10148  0.22783  1.0000
  C   C181      1.0  0.33391  0.98746  0.27039  1.0000
  C   C182      1.0  0.40591  0.31761  0.30579  1.0000
  H   H183      1.0  0.07164  0.20996  0.72208  1.0000
  Fe  Fe31      1.0  0.44452  0.02887  0.51397  1.0000
  S   S64       1.0  0.43892  0.00907  0.53716  1.0000
  H   H184      1.0  0.40144  0.99541  0.52666  1.0000
  N   N16       1.0  0.43925  0.03031  0.58527  1.0000
  C   C183      1.0  0.19238  0.99242  0.59554  1.0000
  H   H185      1.0  0.28012  0.21837  0.48711  1.0000
  S   S65       1.0  0.41459  0.03669  0.50096  1.0000
  S   S66       1.0  0.45250  0.06715  0.50760  1.0000
  C   C184      1.0  0.06055  0.30501  0.52675  1.0000
  C   C185      1.0  0.35175  0.17338  0.63804  1.0000
  H   H186      1.0  0.41633  0.99653  0.56692  1.0000
  H   H187      1.0  0.44007  0.21440  0.72276  1.0000
  N   N17       1.0  0.42138  0.11954  0.69127  1.0000
  N   N18       1.0  0.36478  0.00103  0.53872  1.0000
  C   C186      1.0  0.40216  0.13806  0.69505  1.0000
  H   H188      1.0  0.36842  0.99799  0.66220  1.0000
  S   S67       1.0  0.47499  0.01330  0.49705  1.0000
  Fe  Fe32      1.0  0.34052  0.04892  0.59956  1.0000
  S   S68       1.0  0.35256  0.00930  0.60943  1.0000
  S   S69       1.0  0.34568  0.06403  0.57560  1.0000
  Fe  Fe33      1.0  0.32115  0.06439  0.62880  1.0000
  S   S70       1.0  0.33197  0.02608  0.64119  1.0000
  S   S71       1.0  0.29980  0.09620  0.63959  1.0000
  Fe  Fe34      1.0  0.36696  0.02469  0.62440  1.0000
  H   H189      1.0  0.33292  0.14625  0.62579  1.0000
  Fe  Fe35      1.0  0.31655  0.01432  0.62507  1.0000
  H   H190      1.0  0.24804  0.27175  0.48670  1.0000
  S   S72       1.0  0.35759  0.06418  0.61335  1.0000
  S   S73       1.0  0.30293  0.05274  0.61391  1.0000
  Fe  Fe36      1.0  0.34178  0.21812  0.69265  1.0000
  S   S74       1.0  0.33361  0.18147  0.70499  1.0000
  S   S75       1.0  0.37401  0.23275  0.69507  1.0000
  C   C187      1.0  0.19582  0.00053  0.61831  1.0000
  S   S76       1.0  0.29002  0.19050  0.68603  1.0000
  Fe  Fe37      1.0  0.29361  0.20049  0.70642  1.0000
  C   C188      1.0  0.33131  0.01889  0.56171  1.0000
  Fe  Fe38      1.0  0.33083  0.17503  0.68345  1.0000
  S   S77       1.0  0.35254  0.14024  0.67560  1.0000
  S   S78       1.0  0.30201  0.23794  0.69578  1.0000
  S   S79       1.0  0.34177  0.21058  0.67086  1.0000
  H   H191      1.0  0.26925  0.21025  0.64752  1.0000
  H   H192      1.0  0.24965  0.01969  0.61481  1.0000
  H   H193      1.0  0.40118  0.27487  0.71692  1.0000
  H   H194      1.0  0.31417  0.31627  0.65847  1.0000
  S   S80       1.0  0.40482  0.00599  0.62897  1.0000
  C   C189      1.0  0.42154  0.07203  0.56613  1.0000
  H   H195      1.0  0.23178  0.28408  0.67174  1.0000
  H   H196      1.0  0.39470  0.08201  0.58472  1.0000
  H   H197      1.0  0.37727  0.03370  0.66945  1.0000
  C   C190      1.0  0.04249  0.05796  0.68855  1.0000
  S   S81       1.0  0.46276  0.02803  0.68794  1.0000
  Fe  Fe39      1.0  0.30118  0.22674  0.67515  1.0000
  C   C191      1.0  0.30811  0.19374  0.64317  1.0000
  Fe  Fe40      1.0  0.48097  0.05240  0.48965  1.0000
  C   C192      1.0  0.41661  0.09772  0.68759  1.0000
  H   H198      1.0  0.45114  0.99545  0.63852  1.0000
  C   C193      1.0  0.43090  0.16029  0.69872  1.0000
  C   C194      1.0  0.44139  0.05432  0.56111  1.0000
  H   H199      1.0  0.43320  0.99640  0.59896  1.0000
  C   C195      1.0  0.41961  0.02448  0.63497  1.0000
  C   C196      1.0  0.21541  0.99885  0.58939  1.0000
  C   C197      1.0  0.45424  0.02873  0.64443  1.0000
  C   C198      1.0  0.44325  0.05330  0.64519  1.0000
  C   C199      1.0  0.42049  0.06345  0.64079  1.0000
  C   C200      1.0  0.40854  0.04897  0.63585  1.0000
  H   H200      1.0  0.25684  0.18197  0.63556  1.0000
  H   H201      1.0  0.02891  0.27722  0.51147  1.0000
  H   H202      1.0  0.41190  0.08241  0.64146  1.0000
  H   H203      1.0  0.39070  0.05675  0.63287  1.0000
  C   C201      1.0  0.31429  0.10572  0.65095  1.0000
  C   C202      1.0  0.33977  0.09809  0.65073  1.0000
  C   C203      1.0  0.35128  0.10819  0.65873  1.0000
  C   C204      1.0  0.33739  0.12606  0.66685  1.0000
  C   C205      1.0  0.31185  0.13315  0.66734  1.0000
  C   C206      1.0  0.30032  0.12287  0.65949  1.0000
  H   H204      1.0  0.35065  0.08487  0.64415  1.0000
  H   H205      1.0  0.37106  0.10260  0.65835  1.0000
  H   H206      1.0  0.30095  0.14660  0.67372  1.0000
  H   H207      1.0  0.28058  0.12866  0.65978  1.0000
  C   C207      1.0  0.44518  0.12076  0.69140  1.0000
  H   H208      1.0  0.35463  0.20570  0.72341  1.0000
  H   H209      1.0  0.46522  0.99681  0.59052  1.0000
  Fe  Fe41      1.0  0.99873  0.01014  0.67079  1.0000
  C   C208      1.0  0.27621  0.18053  0.63583  1.0000
  H   H210      1.0  0.35273  0.03587  0.52572  1.0000
  C   C209      1.0  0.32021  0.29285  0.62938  1.0000
  C   C210      1.0  0.43850  0.27461  0.71849  1.0000
  H   H211      1.0  0.06739  0.01670  0.66671  1.0000
  C   C211      1.0  0.38694  0.21946  0.71063  1.0000
  C   C212      1.0  0.28776  0.27199  0.64468  1.0000
  C   C213      1.0  0.23341  0.23481  0.71477  1.0000
  Fe  Fe42      1.0  0.44549  0.02431  0.48339  1.0000
  C   C214      1.0  0.22810  0.00638  0.59787  1.0000
  C   C215      1.0  0.37339  0.20736  0.72319  1.0000
  H   H212      1.0  0.04121  0.05109  0.71161  1.0000
  H   H213      1.0  0.41664  0.02949  0.67778  1.0000
  S   S82       1.0  0.46523  0.06521  0.71653  1.0000
  H   H214      1.0  0.24600  0.01130  0.59296  1.0000
  H   H215      1.0  0.42983  0.09303  0.67767  1.0000
  C   C216      1.0  0.04382  0.06361  0.66244  1.0000
  C   C217      1.0  0.27046  0.28856  0.63705  1.0000
  C   C218      1.0  0.40664  0.15878  0.69872  1.0000
  H   H216      1.0  0.22051  0.03066  0.62573  1.0000
  H   H217      1.0  0.47450  0.27171  0.72345  1.0000
  Fe  Fe43      1.0  0.48418  0.04489  0.69844  1.0000
  C   C219      1.0  0.41239  0.01383  0.67492  1.0000
  H   H218      1.0  0.37758  0.00086  0.51610  1.0000
  H   H219      1.0  0.32619  0.26134  0.64664  1.0000
  H   H220      1.0  0.20922  0.26803  0.70653  1.0000
  C   C220      1.0  0.35584  0.12857  0.47774  1.0000
  C   C221      1.0  0.44255  0.01442  0.63915  1.0000
  H   H221      1.0  0.22366  0.99753  0.57819  1.0000
  C   C222      1.0  0.41267  0.02411  0.54763  1.0000
  C   C223      1.0  0.40577  0.01389  0.56227  1.0000
  C   C224      1.0  0.38550  0.02629  0.57097  1.0000
  C   C225      1.0  0.37178  0.04873  0.56502  1.0000
  C   C226      1.0  0.37858  0.05885  0.55033  1.0000
  C   C227      1.0  0.39906  0.04658  0.54164  1.0000
  C   C228      1.0  0.23185  0.01451  0.62110  1.0000
  H   H222      1.0  0.38053  0.01839  0.58224  1.0000
  H   H223      1.0  0.36804  0.07622  0.54566  1.0000
  H   H224      1.0  0.40438  0.05466  0.53034  1.0000
  H   H225      1.0  0.46467  0.01921  0.56671  1.0000
  H   H226      1.0  0.24865  0.23731  0.70579  1.0000
  H   H227      1.0  0.39138  0.17353  0.70156  1.0000
  Fe  Fe44      1.0  0.42536  0.07366  0.49282  1.0000
  H   H228      1.0  0.46925  0.14198  0.69518  1.0000
  C   C229      1.0  0.27786  0.30757  0.62585  1.0000
  S   S83       1.0  0.27700  0.25000  0.65948  1.0000
  H   H229      1.0  0.38321  0.13691  0.69528  1.0000
  C   C230      1.0  0.21111  0.25217  0.71520  1.0000
  H   H230      1.0  0.07924  0.30779  0.52588  1.0000
  C   C231      1.0  0.06733  0.00946  0.68951  1.0000
  H   H231      1.0  0.03883  0.05259  0.65583  1.0000
  C   C232      1.0  0.45034  0.14120  0.69501  1.0000
  C   C233      1.0  0.42169  0.21200  0.72292  1.0000
  H   H232      1.0  0.41120  0.04498  0.60168  1.0000
  C   C234      1.0  0.01745  0.31348  0.53659  1.0000
  H   H233      1.0  0.25114  0.28697  0.63998  1.0000
  Fe  Fe45      1.0  0.48190  0.04837  0.66724  1.0000
  H   H234      1.0  0.35342  0.17763  0.64838  1.0000
  H   H235      1.0  0.23654  0.99903  0.63008  1.0000
  H   H236      1.0  0.06354  0.00749  0.71245  1.0000
  H   H237      1.0  0.18408  0.27465  0.48719  1.0000
  C   C235      1.0  0.31912  0.16067  0.63033  1.0000
  H   H238      1.0  0.43460  0.17612  0.70169  1.0000
  C   C236      1.0  0.27893  0.30569  0.66866  1.0000
  C   C237      1.0  0.33350  0.03339  0.54783  1.0000
  H   H239      1.0  0.44385  0.28251  0.70713  1.0000
  C   C238      1.0  0.06181  0.02442  0.67651  1.0000
  N   N19       1.0  0.04919  0.04821  0.67621  1.0000
  H   H240      1.0  0.31328  0.20609  0.64845  1.0000
  C   C239      1.0  0.35058  0.02419  0.53640  1.0000
  H   H241      1.0  0.18814  0.00084  0.62967  1.0000
  H   H242      1.0  0.32273  0.05201  0.54608  1.0000
  H   H243      1.0  0.36066  0.18611  0.62882  1.0000
  C   C240      1.0  0.47204  0.10676  0.72342  1.0000
  H   H244      1.0  0.47184  0.02084  0.64779  1.0000
  C   C241      1.0  0.41986  0.04765  0.59029  1.0000
  H   H245      1.0  0.36204  0.15413  0.63787  1.0000
  H   H246      1.0  0.41891  0.08177  0.69669  1.0000
  H   H247      1.0  0.33951  0.29452  0.62641  1.0000
  C   C242      1.0  0.29430  0.16272  0.62954  1.0000
  C   C243      1.0  0.31272  0.27405  0.64080  1.0000
  C   C244      1.0  0.30274  0.30986  0.62201  1.0000
  H   H248      1.0  0.46029  0.10571  0.68887  1.0000
  S   S84       1.0  0.39686  0.10875  0.48995  1.0000
  C   C245      1.0  0.39027  0.01621  0.67024  1.0000
  S   S85       1.0  0.02613  0.99941  0.65128  1.0000
  H   H249      1.0  0.24701  0.22915  0.48814  1.0000
  N   N20       1.0  0.21833  0.00700  0.61217  1.0000
  C   C246      1.0  0.44993  0.03332  0.57086  1.0000
  S   S86       1.0  0.45738  0.07135  0.65193  1.0000
  C   C247      1.0  0.01284  0.29893  0.52809  1.0000
  H   H250      1.0  0.42168  0.23102  0.70082  1.0000
  C   C248      1.0  0.41111  0.22169  0.71052  1.0000
  C   C249      1.0  0.37453  0.10780  0.48027  1.0000
  H   H251      1.0  0.28911  0.14993  0.62456  1.0000
  H   H252      1.0  0.41408  0.08788  0.55858  1.0000
  C   C250      1.0  0.04748  0.04347  0.70177  1.0000
  H   H253      1.0  0.45092  0.01293  0.60519  1.0000
  N   N21       1.0  0.32567  0.17578  0.63732  1.0000
  H   H254      1.0  0.02750  0.07873  0.66425  1.0000
  C   C251      1.0  0.44767  0.00798  0.59541  1.0000
  H   H255      1.0  0.22180  0.30436  0.68483  1.0000
  H   H256      1.0  0.44939  0.05624  0.54962  1.0000
  C   C252      1.0  0.41065  0.06871  0.58081  1.0000
  H   H257      1.0  0.39760  0.10089  0.68529  1.0000
  C   C253      1.0  0.28313  0.19627  0.64261  1.0000
  C   C254      1.0  0.48618  0.12388  0.72354  1.0000
  C   C255      1.0  0.18242  0.99339  0.61006  1.0000
  H   H258      1.0  0.24833  0.27968  0.68607  1.0000
  C   C256      1.0  0.05987  0.01902  0.70223  1.0000
  C   C257      1.0  0.05652  0.29053  0.51797  1.0000
  H   H259      1.0  0.31878  0.02619  0.57075  1.0000
  H   H260      1.0  0.19102  0.22995  0.48656  1.0000
  C   C258      1.0  0.26528  0.22651  0.48068  1.0000
  C   C259      1.0  0.03245  0.28768  0.51857  1.0000
  H   H261      1.0  0.28734  0.28925  0.67544  1.0000
  C   C260      1.0  0.41442  0.27027  0.72411  1.0000
  H   H262      1.0  0.03255  0.07685  0.68835  1.0000
  H   H263      1.0  0.06014  0.07168  0.65628  1.0000
  H   H264      1.0  0.07940  0.31070  0.71782  1.0000
  H   H265      1.0  0.35466  0.14454  0.48231  1.0000
  H   H266      1.0  0.07184  0.28235  0.51037  1.0000
  H   H267      1.0  0.29643  0.98624  0.58085  1.0000
  C   C261      1.0  0.23816  0.29398  0.67840  1.0000
  N   N22       1.0  0.25394  0.31073  0.66892  1.0000
  C   C262      1.0  0.38531  0.99619  0.66617  1.0000
  N   N23       1.0  0.04104  0.31679  0.53561  1.0000
  C   C263      1.0  0.29633  0.98523  0.60331  1.0000
  C   C264      1.0  0.42936  0.99139  0.67537  1.0000
  C   C265      1.0  0.48301  0.08639  0.71679  1.0000
  H   H268      1.0  0.30704  0.99960  0.60098  1.0000
  H   H269      1.0  0.07693  0.99044  0.68969  1.0000
  C   C266      1.0  0.38295  0.99180  0.52672  1.0000
  S   S87       1.0  0.03061  0.18708  0.72332  1.0000
  C   C267      1.0  0.34621  0.99550  0.56402  1.0000
  C   C268      1.0  0.23608  0.21456  0.72612  1.0000
  H   H270      1.0  0.44669  0.98968  0.67884  1.0000
  C   C269      1.0  0.19560  0.26759  0.47785  1.0000
  H   H271      1.0  0.99409  0.29673  0.52872  1.0000
  H   H272      1.0  0.16451  0.98842  0.61489  1.0000
  C   C270      1.0  0.36307  0.98686  0.55234  1.0000
  H   H273      1.0  0.41203  0.98552  0.49667  1.0000
  H   H274      1.0  0.18235  0.98645  0.58910  1.0000
  S   S88       1.0  0.29269  0.98555  0.63208  1.0000
  C   C271      1.0  0.19142  0.24942  0.72697  1.0000
  S   S89       1.0  0.26509  0.19495  0.72698  1.0000
  C   C272      1.0  0.19956  0.24231  0.47747  1.0000
  C   C273      1.0  0.13070  0.30976  0.80268  1.0000
  Fe  Fe46      1.0  0.03422  0.18009  0.92129  1.0000
  S   S90       1.0  0.02499  0.19511  0.89906  1.0000
  S   S91       1.0  0.06533  0.14775  0.92549  1.0000
  S   S92       1.0  0.46993  0.10469  0.87566  1.0000
  S   S93       1.0  0.23760  0.10001  0.95888  1.0000
  S   S94       1.0  0.47702  0.20131  0.76534  1.0000
  C   C274      1.0  0.08460  0.16470  0.95929  1.0000
  H   H275      1.0  0.19138  0.29561  0.74896  1.0000
  Fe  Fe47      1.0  0.02167  0.23219  0.90454  1.0000
  S   S95       1.0  0.03499  0.26431  0.88826  1.0000
  C   C275      1.0  0.06965  0.16141  0.77358  1.0000
  S   S96       1.0  0.03401  0.21701  0.92579  1.0000
  H   H276      1.0  0.48344  0.28168  0.93569  1.0000
  Fe  Fe48      1.0  0.20388  0.09137  0.97541  1.0000
  C   C276      1.0  0.22919  0.29521  0.91283  1.0000
  H   H277      1.0  0.46688  0.11167  0.92284  1.0000
  C   C277      1.0  0.48674  0.10606  0.82575  1.0000
  H   H278      1.0  0.21519  0.20474  0.93118  1.0000
  C   C278      1.0  0.39972  0.26788  0.96775  1.0000
  C   C279      1.0  0.41187  0.20132  0.92569  1.0000
  S   S97       1.0  0.43671  0.06270  0.87965  1.0000
  H   H279      1.0  0.01113  0.26935  0.92808  1.0000
  S   S98       1.0  0.42606  0.09155  0.91396  1.0000
  Fe  Fe49      1.0  0.33849  0.21249  0.92425  1.0000
  S   S99       1.0  0.34914  0.19810  0.94598  1.0000
  S   S100      1.0  0.35974  0.19800  0.90422  1.0000
  Fe  Fe50      1.0  0.29663  0.25183  0.93510  1.0000
  S   S101      1.0  0.30462  0.24114  0.95773  1.0000
  S   S102      1.0  0.26186  0.27975  0.93136  1.0000
  Fe  Fe51      1.0  0.34483  0.23808  0.94700  1.0000
  S   S103      1.0  0.37851  0.24501  0.95330  1.0000
  Fe  Fe52      1.0  0.30825  0.20241  0.95466  1.0000
  H   H280      1.0  0.37084  0.27208  0.74841  1.0000
  S   S104      1.0  0.33651  0.25227  0.92456  1.0000
  S   S105      1.0  0.29790  0.21325  0.93274  1.0000
  Fe  Fe53      1.0  0.46058  0.18722  0.75054  1.0000
  C   C280      1.0  0.04134  0.25713  0.94716  1.0000
  H   H281      1.0  0.28006  0.29296  0.87820  1.0000
  S   S106      1.0  0.13138  0.29928  0.76172  1.0000
  H   H282      1.0  0.04521  0.26122  0.95700  1.0000
  C   C281      1.0  0.38241  0.25570  0.74413  1.0000
  Fe  Fe54      1.0  0.09085  0.30479  0.76171  1.0000
  C   C282      1.0  0.45309  0.13311  0.81501  1.0000
  H   H283      1.0  0.00723  0.19200  0.75292  1.0000
  C   C283      1.0  0.03136  0.13931  0.77287  1.0000
  N   N24       1.0  0.40786  0.25963  0.73834  1.0000
  H   H284      1.0  0.01982  0.20795  0.77121  1.0000
  S   S107      1.0  0.13173  0.23951  0.76718  1.0000
  Fe  Fe55      1.0  0.09087  0.25025  0.76669  1.0000
  S   S108      1.0  0.48353  0.14912  0.75455  1.0000
  C   C284      1.0  0.04003  0.12757  0.97136  1.0000
  H   H285      1.0  0.17853  0.22626  0.74708  1.0000
  C   C285      1.0  0.15605  0.28249  0.81914  1.0000
  N   N25       1.0  0.42749  0.17683  0.92510  1.0000
  C   C286      1.0  0.19390  0.26423  0.76644  1.0000
  C   C287      1.0  0.10254  0.13033  0.94105  1.0000
  C   C288      1.0  0.40795  0.20057  0.73564  1.0000
  H   H286      1.0  0.17640  0.27115  0.77301  1.0000
  C   C289      1.0  0.44870  0.25814  0.74217  1.0000
  C   C290      1.0  0.07172  0.29928  0.84216  1.0000
  C   C291      1.0  0.08907  0.26371  0.85846  1.0000
  H   H287      1.0  0.47011  0.15109  0.84958  1.0000
  C   C292      1.0  0.46149  0.11629  0.82681  1.0000
  C   C293      1.0  0.11443  0.12917  0.95247  1.0000
  S   S109      1.0  0.16494  0.27304  0.72785  1.0000
  S   S110      1.0  0.06363  0.22461  0.77135  1.0000
  C   C294      1.0  0.23731  0.22649  0.95440  1.0000
  H   H288      1.0  0.47505  0.06444  0.74851  1.0000
  H   H289      1.0  0.05120  0.13341  0.75163  1.0000
  H   H290      1.0  0.38204  0.23914  0.75296  1.0000
  Fe  Fe56      1.0  0.13564  0.27086  0.74821  1.0000
  Fe  Fe57      1.0  0.45868  0.08540  0.86129  1.0000
  H   H291      1.0  0.40515  0.20430  0.93705  1.0000
  H   H292      1.0  0.10206  0.26182  0.91316  1.0000
  C   C295      1.0  0.02387  0.19963  0.75008  1.0000
  H   H293      1.0  0.05382  0.30857  0.87536  1.0000
  H   H294      1.0  0.46199  0.25343  0.74932  1.0000
  H   H295      1.0  0.38671  0.08266  0.89435  1.0000
  C   C296      1.0  0.40685  0.30088  0.93282  1.0000
  H   H296      1.0  0.25628  0.20891  0.77484  1.0000
  C   C297      1.0  0.40851  0.12158  0.91133  1.0000
  C   C298      1.0  0.39058  0.12961  0.92283  1.0000
  C   C299      1.0  0.37597  0.15337  0.92087  1.0000
  C   C300      1.0  0.37921  0.16910  0.90737  1.0000
  C   C301      1.0  0.39735  0.16121  0.89594  1.0000
  C   C302      1.0  0.41193  0.13746  0.89791  1.0000
  H   H297      1.0  0.38781  0.11731  0.93323  1.0000
  H   H298      1.0  0.36169  0.15914  0.92966  1.0000
  H   H299      1.0  0.39979  0.17330  0.88546  1.0000
  H   H300      1.0  0.42547  0.13136  0.88895  1.0000
  C   C303      1.0  0.10745  0.29921  0.85174  1.0000
  H   H301      1.0  0.43358  0.26704  0.93372  1.0000
  H   H302      1.0  0.42232  0.21613  0.91984  1.0000
  H   H303      1.0  0.04101  0.16148  0.80752  1.0000
  C   C304      1.0  0.06738  0.09190  0.96315  1.0000
  C   C305      1.0  0.20773  0.24108  0.77123  1.0000
  Fe  Fe58      1.0  0.47191  0.03431  0.87969  1.0000
  H   H304      1.0  0.06668  0.17583  0.79761  1.0000
  H   H305      1.0  0.14224  0.25367  0.86105  1.0000
  H   H306      1.0  0.49338  0.09312  0.83475  1.0000
  H   H307      1.0  0.23109  0.19481  0.77414  1.0000
  C   C306      1.0  0.27955  0.15093  0.95472  1.0000
  C   C307      1.0  0.27628  0.15443  0.96894  1.0000
  H   H308      1.0  0.30781  0.14169  0.90929  1.0000
  H   H309      1.0  0.46570  0.08446  0.79001  1.0000
  S   S111      1.0  0.16684  0.31310  0.86484  1.0000
  H   H310      1.0  0.29121  0.16116  0.94607  1.0000
  C   C308      1.0  0.08348  0.30777  0.88609  1.0000
  C   C309      1.0  0.14348  0.28616  0.80765  1.0000
  C   C310      1.0  0.08143  0.14846  0.93885  1.0000
  C   C311      1.0  0.07261  0.16578  0.94793  1.0000
  H   H311      1.0  0.41450  0.25183  0.96754  1.0000
  N   N26       1.0  0.22967  0.23205  0.76289  1.0000
  H   H312      1.0  0.23194  0.27955  0.73430  1.0000
  H   H313      1.0  0.41048  0.16075  0.94624  1.0000
  H   H314      1.0  0.05605  0.17944  0.94656  1.0000
  H   H315      1.0  0.20052  0.23030  0.78156  1.0000
  H   H316      1.0  0.25502  0.19900  0.75858  1.0000
  Fe  Fe59      1.0  0.45100  0.07942  0.89399  1.0000
  C   C312      1.0  0.23104  0.22512  0.94154  1.0000
  H   H317      1.0  0.05659  0.24265  0.94306  1.0000
  C   C313      1.0  0.35952  0.28962  0.96268  1.0000
  C   C314      1.0  0.37863  0.26886  0.96219  1.0000
  C   C315      1.0  0.05317  0.21772  0.75719  1.0000
  H   H318      1.0  0.07735  0.17780  0.96648  1.0000
  H   H319      1.0  0.44968  0.06808  0.77299  1.0000
  C   C316      1.0  0.22068  0.18989  0.96616  1.0000
  H   H320      1.0  0.43354  0.14100  0.81576  1.0000
  H   H321      1.0  0.08546  0.15339  0.75219  1.0000
  H   H322      1.0  0.07333  0.08000  0.95520  1.0000
  H   H323      1.0  0.46355  0.15366  0.79342  1.0000
  C   C317      1.0  0.27231  0.28468  0.90160  1.0000
  C   C318      1.0  0.25406  0.28625  0.91411  1.0000
  C   C319      1.0  0.25045  0.00661  0.97075  1.0000
  N   N27       1.0  0.04997  0.16052  0.78495  1.0000
  C   C320      1.0  0.47003  0.14024  0.80237  1.0000
  H   H324      1.0  0.29156  0.27781  0.90249  1.0000
  N   N28       1.0  0.21498  0.18840  0.95345  1.0000
  C   C321      1.0  0.09687  0.29475  0.89688  1.0000
  H   H325      1.0  0.45253  0.10949  0.72830  1.0000
  C   C322      1.0  0.06451  0.29823  0.88352  1.0000
  C   C323      1.0  0.05920  0.27548  0.89153  1.0000
  C   C324      1.0  0.07302  0.26224  0.90207  1.0000
  C   C325      1.0  0.09162  0.27199  0.90486  1.0000
  C   C326      1.0  0.21598  0.21118  0.73757  1.0000
  H   H326      1.0  0.18407  0.17568  0.95094  1.0000
  H   H327      1.0  0.06947  0.24447  0.90806  1.0000
  S   S112      1.0  0.46564  0.99473  0.88563  1.0000
  H   H328      1.0  0.24643  0.24109  0.95472  1.0000
  H   H329      1.0  0.13044  0.11497  0.95416  1.0000
  C   C327      1.0  0.23213  0.20880  0.96679  1.0000
  H   H330      1.0  0.01607  0.13100  0.77271  1.0000
  C   C328      1.0  0.07047  0.15153  0.76148  1.0000
  C   C329      1.0  0.06756  0.21860  0.74323  1.0000
  C   C330      1.0  0.25263  0.12065  0.96291  1.0000
  S   S113      1.0  0.09545  0.27907  0.74654  1.0000
  H   H331      1.0  0.12151  0.30878  0.85238  1.0000
  S   S114      1.0  0.08335  0.27674  0.78193  1.0000
  Fe  Fe60      1.0  0.12453  0.26870  0.78070  1.0000
  H   H332      1.0  0.34318  0.29059  0.95843  1.0000
  S   S115      1.0  0.14402  0.26099  0.79973  1.0000
  C   C331      1.0  0.24097  0.30312  0.88658  1.0000
  H   H333      1.0  0.21425  0.15847  0.94396  1.0000
  S   S116      1.0  0.41932  0.19187  0.75196  1.0000
  H   H334      1.0  0.25624  0.23886  0.74341  1.0000
  C   C332      1.0  0.10528  0.14614  0.96174  1.0000
  H   H335      1.0  0.32399  0.16611  0.90834  1.0000
  C   C333      1.0  0.21985  0.20579  0.94124  1.0000
  H   H336      1.0  0.08424  0.17092  0.77348  1.0000
  H   H337      1.0  0.16606  0.26428  0.82299  1.0000
  C   C334      1.0  0.02237  0.28292  0.92693  1.0000
  C   C335      1.0  0.12585  0.26306  0.86797  1.0000
  C   C336      1.0  0.42437  0.15781  0.93662  1.0000
  H   H338      1.0  0.23512  0.23885  0.93184  1.0000
  H   H339      1.0  0.37412  0.25222  0.73562  1.0000
  N   N29       1.0  0.44470  0.29388  0.94170  1.0000
  H   H340      1.0  0.37401  0.15077  0.86396  1.0000
  H   H341      1.0  0.46863  0.17899  0.82565  1.0000
  H   H342      1.0  0.37300  0.18942  0.74553  1.0000
  H   H343      1.0  0.20254  0.15425  0.96298  1.0000
  S   S117      1.0  0.17205  0.08843  0.96631  1.0000
  H   H344      1.0  0.05674  0.26596  0.84964  1.0000
  H   H345      1.0  0.02496  0.14329  0.96995  1.0000
  N   N30       1.0  0.21422  0.02130  0.95374  1.0000
  H   H346      1.0  0.18376  0.04730  0.94637  1.0000
  C   C337      1.0  0.04829  0.17273  0.79701  1.0000
  H   H347      1.0  0.08826  0.24522  0.86462  1.0000
  H   H348      1.0  0.22113  0.05770  0.95077  1.0000
  C   C338      1.0  0.20253  0.27813  0.75306  1.0000
  C   C339      1.0  0.44425  0.17284  0.91272  1.0000
  H   H349      1.0  0.39688  0.10772  0.86962  1.0000
  C   C340      1.0  0.19531  0.02908  0.94464  1.0000
  H   H350      1.0  0.20424  0.03022  0.93305  1.0000
  N   N31       1.0  0.03894  0.27935  0.93585  1.0000
  H   H351      1.0  0.46690  0.25795  0.94678  1.0000
  H   H352      1.0  0.11884  0.07569  0.96953  1.0000
  C   C341      1.0  0.20334  0.16830  0.95280  1.0000
  C   C342      1.0  0.22265  0.30335  0.89912  1.0000
  N   N32       1.0  0.10682  0.27573  0.85932  1.0000
  C   C343      1.0  0.46797  0.27775  0.94484  1.0000
  H   H353      1.0  0.32971  0.13798  0.92097  1.0000
  H   H354      1.0  0.13176  0.27632  0.87265  1.0000
  H   H355      1.0  0.39401  0.29385  0.92883  1.0000
  C   C344      1.0  0.47649  0.08286  0.77927  1.0000
  H   H356      1.0  0.00737  0.30616  0.90869  1.0000
  S   S118      1.0  0.99479  0.17908  0.93243  1.0000
  C   C345      1.0  0.22530  0.26914  0.74486  1.0000
  S   S119      1.0  0.28984  0.17612  0.97309  1.0000
  C   C346      1.0  0.26792  0.13389  0.95174  1.0000
  C   C347      1.0  0.05438  0.29565  0.93370  1.0000
  C   C348      1.0  0.38381  0.19813  0.73570  1.0000
  C   C349      1.0  0.26578  0.29333  0.88786  1.0000
  C   C350      1.0  0.23888  0.24606  0.75006  1.0000
  C   C351      1.0  0.24420  0.03133  0.96424  1.0000
  C   C352      1.0  0.15579  0.30229  0.82564  1.0000
  H   H357      1.0  0.12090  0.31277  0.79388  1.0000
  H   H358      1.0  0.27062  0.13110  0.94075  1.0000
  H   H359      1.0  0.39552  0.20339  0.92069  1.0000
  H   H360      1.0  0.44619  0.18772  0.90343  1.0000
  C   C353      1.0  0.42462  0.25363  0.74737  1.0000
  H   H361      1.0  0.11861  0.24930  0.87727  1.0000
  H   H362      1.0  0.08472  0.22538  0.74061  1.0000
  C   C354      1.0  0.03110  0.20863  0.76046  1.0000
  N   N33       1.0  0.34559  0.13549  0.89889  1.0000
  C   C355      1.0  0.35795  0.11167  0.90206  1.0000
  C   C356      1.0  0.35093  0.14940  0.88534  1.0000
  C   C357      1.0  0.37650  0.10131  0.89161  1.0000
  C   C358      1.0  0.36939  0.13960  0.87461  1.0000
  C   C359      1.0  0.38225  0.11540  0.87779  1.0000
  C   C360      1.0  0.32573  0.14578  0.90990  1.0000
  H   H363      1.0  0.35399  0.10068  0.91283  1.0000
  H   H364      1.0  0.34139  0.16841  0.88289  1.0000
  H   H365      1.0  0.16556  0.29932  0.83445  1.0000
  H   H366      1.0  0.04565  0.30852  0.73957  1.0000
  C   C361      1.0  0.42923  0.28571  0.93572  1.0000
  H   H367      1.0  0.21783  0.19533  0.74626  1.0000
  H   H368      1.0  0.10943  0.11692  0.93404  1.0000
  C   C362      1.0  0.43871  0.13418  0.93605  1.0000
  C   C363      1.0  0.08995  0.31134  0.84306  1.0000
  S   S120      1.0  0.44049  0.10922  0.84304  1.0000
  C   C364      1.0  0.05116  0.14044  0.76115  1.0000
  C   C365      1.0  0.03089  0.14978  0.78467  1.0000
  C   C366      1.0  0.45613  0.13006  0.92357  1.0000
  S   S121      1.0  0.11933  0.30705  0.90112  1.0000
  C   C367      1.0  0.45570  0.26853  0.72762  1.0000
  C   C368      1.0  0.06021  0.20970  0.73278  1.0000
  C   C369      1.0  0.03852  0.19987  0.73623  1.0000
  C   C370      1.0  0.19372  0.22867  0.73805  1.0000
  H   H369      1.0  0.25314  0.04508  0.96594  1.0000
  H   H370      1.0  0.03582  0.19111  0.79542  1.0000
  H   H371      1.0  0.43591  0.11898  0.94505  1.0000
  C   C371      1.0  0.40219  0.28779  0.97325  1.0000
  H   H372      1.0  0.21690  0.17614  0.97585  1.0000
  H   H373      1.0  0.41956  0.24492  0.75862  1.0000
  C   C372      1.0  0.24375  0.20753  0.76791  1.0000
  H   H374      1.0  0.06840  0.29223  0.94027  1.0000
  H   H375      1.0  0.02389  0.24969  0.95059  1.0000
  C   C373      1.0  0.38354  0.30893  0.97330  1.0000
  C   C374      1.0  0.45896  0.14947  0.91181  1.0000
  H   H376      1.0  0.01487  0.14967  0.79344  1.0000
  C   C375      1.0  0.07113  0.27537  0.84998  1.0000
  H   H377      1.0  0.47238  0.28093  0.95480  1.0000
  C   C376      1.0  0.04716  0.11140  0.96162  1.0000
  H   H378      1.0  0.20346  0.31028  0.89831  1.0000
  C   C377      1.0  0.46755  0.07368  0.76974  1.0000
  H   H379      1.0  0.18228  0.01600  0.94754  1.0000
  H   H380      1.0  0.03783  0.11466  0.95253  1.0000
  C   C378      1.0  0.02014  0.30379  0.91593  1.0000
  Fe  Fe61      1.0  0.99699  0.16905  0.73089  1.0000
  H   H381      1.0  0.05806  0.30847  0.83545  1.0000
  C   C379      1.0  0.22597  0.03839  0.95570  1.0000
  H   H382      1.0  0.21497  0.29638  0.92247  1.0000
  C   C380      1.0  0.36197  0.30955  0.96826  1.0000
  C   C381      1.0  0.22072  0.99692  0.95974  1.0000
  S   S122      1.0  0.23372  0.31684  0.86934  1.0000
  C   C382      1.0  0.48175  0.07166  0.75601  1.0000
  C   C383      1.0  0.05283  0.31663  0.92271  1.0000
  S   S123      1.0  0.99991  0.13236  0.74579  1.0000
  H   H383      1.0  0.47220  0.14626  0.90199  1.0000
  S   S124      1.0  0.48493  0.04973  0.89548  1.0000
  C   C384      1.0  0.23875  0.98924  0.96844  1.0000
  S   S125      1.0  0.48630  0.20060  0.73030  1.0000
  C   C385      1.0  0.48701  0.15248  0.84159  1.0000
  N   N34       1.0  0.07998  0.08847  0.97416  1.0000
  C   C386      1.0  0.48618  0.16813  0.82816  1.0000
  H   H384      1.0  0.10076  0.05296  0.97049  1.0000
  C   C387      1.0  0.10176  0.06859  0.97526  1.0000
  S   S126      1.0  0.49310  0.05586  0.86000  1.0000
  H   H385      1.0  0.47744  0.13990  0.72833  1.0000
  C   C388      1.0  0.43890  0.31732  0.94443  1.0000
  H   H386      1.0  0.23759  0.20936  0.97673  1.0000
  Fe  Fe62      1.0  0.99379  0.21744  0.93523  1.0000
  C   C389      1.0  0.24922  0.12429  0.97711  1.0000
  S   S127      1.0  0.11807  0.14366  0.97707  1.0000
  Fe  Fe63      1.0  0.40702  0.60131  0.99628  1.0000
  S   S128      1.0  0.38020  0.63689  0.99914  1.0000
  S   S129      1.0  0.41516  0.56994  0.01464  1.0000
  C   C390      1.0  0.07344  0.64017  0.10414  1.0000
  H   H387      1.0  0.30826  0.32379  0.18723  1.0000
  H   H388      1.0  0.46297  0.50481  0.12556  1.0000
  C   C391      1.0  0.49043  0.35526  0.13968  1.0000
  C   C392      1.0  0.05650  0.41394  0.13339  1.0000
  H   H389      1.0  0.03320  0.41270  0.11894  1.0000
  H   H390      1.0  0.41106  0.64402  0.16866  1.0000
  H   H391      1.0  0.45566  0.36606  0.05944  1.0000
  C   C393      1.0  0.16512  0.50320  0.19107  1.0000
  H   H392      1.0  0.03226  0.48473  0.22417  1.0000
  C   C394      1.0  0.47340  0.58228  0.03454  1.0000
  C   C395      1.0  0.44534  0.48002  0.99350  1.0000
  S   S130      1.0  0.01698  0.47886  0.16913  1.0000
  Fe  Fe64      1.0  0.47030  0.61150  0.09193  1.0000
  Fe  Fe65      1.0  0.03858  0.44359  0.17949  1.0000
  H   H393      1.0  0.48807  0.46733  0.14825  1.0000
  S   S131      1.0  0.03584  0.40600  0.17658  1.0000
  Fe  Fe66      1.0  0.06216  0.47022  0.19548  1.0000
  S   S132      1.0  0.04210  0.50768  0.18635  1.0000
  S   S133      1.0  0.08633  0.46315  0.21233  1.0000
  H   H394      1.0  0.02995  0.63025  0.11953  1.0000
  C   C396      1.0  0.23428  0.64461  0.18500  1.0000
  Fe  Fe67      1.0  0.05163  0.49369  0.16547  1.0000
  S   S134      1.0  0.06272  0.51641  0.14351  1.0000
  S   S135      1.0  0.02822  0.45299  0.20168  1.0000
  S   S136      1.0  0.07445  0.45739  0.17411  1.0000
  C   C397      1.0  0.45691  0.59836  0.06131  1.0000
  H   H395      1.0  0.42165  0.59088  0.06063  1.0000
  H   H396      1.0  0.43383  0.34668  0.18725  1.0000
  C   C398      1.0  0.03442  0.64170  0.99764  1.0000
  Fe  Fe68      1.0  0.41896  0.54496  0.99886  1.0000
  C   C399      1.0  0.43529  0.32115  0.05326  1.0000
  C   C400      1.0  0.01797  0.40252  0.16470  1.0000
  C   C401      1.0  0.45795  0.32159  0.17395  1.0000
  H   H397      1.0  0.07643  0.42101  0.14795  1.0000
  H   H398      1.0  0.01873  0.45786  0.11397  1.0000
  C   C402      1.0  0.46607  0.39887  0.20949  1.0000
  H   H399      1.0  0.46693  0.63072  0.00896  1.0000
  H   H400      1.0  0.06228  0.46628  0.14229  1.0000
  H   H401      1.0  0.38532  0.62538  0.03140  1.0000
  N   N35       1.0  0.06006  0.64811  0.11771  1.0000
  H   H402      1.0  0.41718  0.33270  0.05552  1.0000
  C   C403      1.0  0.01942  0.54817  0.15136  1.0000
  C   C404      1.0  0.03967  0.54283  0.14034  1.0000
  C   C405      1.0  0.04128  0.55849  0.12672  1.0000
  S   S137      1.0  0.13926  0.54506  0.21970  1.0000
  C   C406      1.0  0.48162  0.59751  0.05422  1.0000
  H   H403      1.0  0.01786  0.53613  0.16185  1.0000
  S   S138      1.0  0.44661  0.60437  0.98754  1.0000
  H   H404      1.0  0.19472  0.51808  0.20360  1.0000
  C   C407      1.0  0.19246  0.49918  0.20807  1.0000
  C   C408      1.0  0.44719  0.38565  0.03864  1.0000
  C   C409      1.0  0.44893  0.58244  0.04186  1.0000
  S   S139      1.0  0.40205  0.51070  0.00369  1.0000
  H   H405      1.0  0.38829  0.46496  0.00384  1.0000
  H   H406      1.0  0.03132  0.36322  0.16718  1.0000
  C   C410      1.0  0.03109  0.49155  0.12499  1.0000
  C   C411      1.0  0.04025  0.42443  0.12377  1.0000
  C   C412      1.0  0.42156  0.44112  0.99507  1.0000
  S   S140      1.0  0.46478  0.34499  0.13761  1.0000
  H   H407      1.0  0.17798  0.50119  0.18063  1.0000
  C   C413      1.0  0.48675  0.37198  0.14892  1.0000
  H   H408      1.0  0.08571  0.62191  0.10647  1.0000
  H   H409      1.0  0.37895  0.64043  0.05448  1.0000
  C   C414      1.0  0.48983  0.58949  0.04087  1.0000
  C   C415      1.0  0.20529  0.48546  0.21899  1.0000
  H   H410      1.0  0.47707  0.41251  0.20365  1.0000
  C   C416      1.0  0.44035  0.40429  0.21013  1.0000
  H   H411      1.0  0.04702  0.50107  0.12013  1.0000
  Fe  Fe69      1.0  0.46591  0.61783  0.12296  1.0000
  C   C417      1.0  0.18636  0.45115  0.22002  1.0000
  C   C418      1.0  0.43689  0.36454  0.22549  1.0000
  C   C419      1.0  0.09975  0.48647  0.21494  1.0000
  H   H412      1.0  0.44397  0.40157  0.01643  1.0000
  N   N36       1.0  0.49111  0.35690  0.02697  1.0000
  C   C420      1.0  0.05606  0.45461  0.13702  1.0000
  C   C421      1.0  0.26965  0.61453  0.21205  1.0000
  H   H413      1.0  0.00130  0.44095  0.15983  1.0000
  C   C422      1.0  0.46309  0.64476  0.01590  1.0000
  S   S141      1.0  0.46698  0.58520  0.11335  1.0000
  S   S142      1.0  0.01071  0.63593  0.09123  1.0000
  Fe  Fe70      1.0  0.00928  0.48950  0.19082  1.0000
  Fe  Fe71      1.0  0.45501  0.57171  0.00498  1.0000
  C   C423      1.0  0.03194  0.45002  0.12112  1.0000
  C   C424      1.0  0.99498  0.32710  0.06800  1.0000
  H   H414      1.0  0.38415  0.60726  0.15663  1.0000
  H   H415      1.0  0.04334  0.51338  0.21811  1.0000
  C   C425      1.0  0.38552  0.62348  0.13414  1.0000
  S   S143      1.0  0.43190  0.35265  0.00049  1.0000
  C   C426      1.0  0.42563  0.38730  0.21830  1.0000
  S   S144      1.0  0.46491  0.41269  0.98245  1.0000
  C   C427      1.0  0.00726  0.37595  0.15150  1.0000
  C   C428      1.0  0.23155  0.65045  0.22304  1.0000
  H   H416      1.0  0.08584  0.51432  0.19792  1.0000
  C   C429      1.0  0.24681  0.60830  0.21959  1.0000
  H   H417      1.0  0.36335  0.63084  0.17567  1.0000
  H   H418      1.0  0.42469  0.62681  0.01399  1.0000
  H   H419      1.0  0.42986  0.39659  0.04318  1.0000
  C   C430      1.0  0.00288  0.42280  0.15769  1.0000
  C   C431      1.0  0.02506  0.64825  0.13742  1.0000
  C   C432      1.0  0.37615  0.62252  0.14896  1.0000
  H   H420      1.0  0.45471  0.49481  0.99284  1.0000
  H   H421      1.0  0.16167  0.45730  0.20515  1.0000
  C   C433      1.0  0.21063  0.64711  0.19362  1.0000
  S   S145      1.0  0.45953  0.54476  0.99031  1.0000
  C   C434      1.0  0.10816  0.52801  0.20838  1.0000
  H   H422      1.0  0.47922  0.64108  0.02133  1.0000
  C   C435      1.0  0.48025  0.50763  0.12794  1.0000
  C   C436      1.0  0.09669  0.51003  0.20633  1.0000
  H   H423      1.0  0.00737  0.64287  0.14250  1.0000
  N   N37       1.0  0.17711  0.48903  0.20317  1.0000
  C   C437      1.0  0.44703  0.43870  0.98956  1.0000
  S   S146      1.0  0.44194  0.62432  0.14445  1.0000
  H   H424      1.0  0.43622  0.57650  0.03728  1.0000
  C   C438      1.0  0.41983  0.48272  0.99878  1.0000
  H   H425      1.0  0.18368  0.43243  0.22469  1.0000
  H   H426      1.0  0.06216  0.39404  0.13606  1.0000
  C   C439      1.0  0.39599  0.64148  0.04659  1.0000
  H   H427      1.0  0.47858  0.45634  0.98480  1.0000
  N   N38       1.0  0.03989  0.46475  0.12772  1.0000
  C   C440      1.0  0.47722  0.37630  0.21690  1.0000
  C   C441      1.0  0.22761  0.62639  0.22490  1.0000
  H   H428      1.0  0.41224  0.42630  0.99554  1.0000
  C   C442      1.0  0.41464  0.65099  0.04935  1.0000
  H   H429      1.0  0.10603  0.54610  0.20150  1.0000
  C   C443      1.0  0.47250  0.34536  0.18670  1.0000
  C   C444      1.0  0.06446  0.42908  0.14009  1.0000
  C   C445      1.0  0.40803  0.46306  0.99971  1.0000
  H   H430      1.0  0.02390  0.59136  0.11363  1.0000
  H   H431      1.0  0.46818  0.37881  0.15434  1.0000
  C   C446      1.0  0.27330  0.63883  0.20978  1.0000
  S   S147      1.0  0.39325  0.39567  0.21994  1.0000
  H   H432      1.0  0.38368  0.64476  0.11269  1.0000
  C   C447      1.0  0.34852  0.63979  0.16930  1.0000
  S   S148      1.0  0.40588  0.57647  0.98167  1.0000
  H   H433      1.0  0.28433  0.60062  0.20772  1.0000
  H   H434      1.0  0.15964  0.52310  0.19177  1.0000
  H   H435      1.0  0.40066  0.60922  0.13045  1.0000
  H   H436      1.0  0.00079  0.32481  0.07822  1.0000
  C   C448      1.0  0.01976  0.37903  0.16176  1.0000
  C   C449      1.0  0.02272  0.57953  0.12419  1.0000
  H   H437      1.0  0.14786  0.49690  0.19125  1.0000
  S   S149      1.0  0.38718  0.33528  0.97883  1.0000
  C   C450      1.0  0.99579  0.53217  0.22335  1.0000
  S   S150      1.0  0.48365  0.57425  0.01721  1.0000
  S   S151      1.0  0.20147  0.55440  0.22316  1.0000
  C   C451      1.0  0.17402  0.46530  0.20895  1.0000
  C   C452      1.0  0.45502  0.38838  0.02365  1.0000
  S   S152      1.0  0.44490  0.61135  0.07703  1.0000
  H   H438      1.0  0.05682  0.55430  0.11812  1.0000
  H   H439      1.0  0.24389  0.62678  0.18245  1.0000
  H   H440      1.0  0.21758  0.49352  0.22276  1.0000
  C   C453      1.0  0.45284  0.33852  0.18313  1.0000
  H   H441      1.0  0.48096  0.64805  0.15159  1.0000
  H   H442      1.0  0.43172  0.42197  0.20460  1.0000
  S   S153      1.0  0.46579  0.64464  0.10191  1.0000
  H   H443      1.0  0.46837  0.35872  0.19371  1.0000
  C   C454      1.0  0.00113  0.56932  0.14891  1.0000
  C   C455      1.0  0.46174  0.36869  0.04775  1.0000
  C   C456      1.0  0.12301  0.52257  0.21893  1.0000
  C   C457      1.0  0.44073  0.59050  0.05516  1.0000
  S   S154      1.0  0.49022  0.34586  0.98331  1.0000
  C   C458      1.0  0.11411  0.48116  0.22575  1.0000
  N   N39       1.0  0.35807  0.64115  0.15373  1.0000
  H   H444      1.0  0.48325  0.37628  0.00630  1.0000
  C   C459      1.0  0.45886  0.45810  0.98899  1.0000
  H   H445      1.0  0.48593  0.52422  0.12034  1.0000
  C   C460      1.0  0.42196  0.63379  0.02385  1.0000
  C   C461      1.0  0.20220  0.46131  0.22500  1.0000
  H   H446      1.0  0.33326  0.62921  0.17293  1.0000
  Fe  Fe72      1.0  0.42476  0.33849  0.98208  1.0000
  H   H447      1.0  0.24387  0.58969  0.22097  1.0000
  Fe  Fe73      1.0  0.46576  0.32240  0.99952  1.0000
  C   C462      1.0  0.47724  0.37390  0.01797  1.0000
  H   H448      1.0  0.01763  0.49753  0.11756  1.0000
  H   H449      1.0  0.02183  0.49784  0.13535  1.0000
  H   H450      1.0  0.00931  0.35790  0.14901  1.0000
  N   N40       1.0  0.44016  0.64312  0.02663  1.0000
  C   C463      1.0  0.01308  0.64585  0.00823  1.0000
  H   H451      1.0  0.20177  0.63123  0.19791  1.0000
  S   S155      1.0  0.30120  0.64668  0.19916  1.0000
  H   H452      1.0  0.47651  0.51174  0.13902  1.0000
  H   H453      1.0  0.43518  0.32584  0.03048  1.0000
  Fe  Fe74      1.0  0.45582  0.37544  0.98314  1.0000
  H   H454      1.0  0.00401  0.53622  0.21193  1.0000
  C   C464      1.0  0.03794  0.64116  0.12436  1.0000
  H   H455      1.0  0.34171  0.32846  0.19831  1.0000
  C   C465      1.0  0.48385  0.35448  0.04168  1.0000
  H   H456      1.0  0.04102  0.62372  0.99461  1.0000
  C   C466      1.0  0.37607  0.64350  0.12419  1.0000
  H   H457      1.0  0.00354  0.63073  0.01351  1.0000
  C   C467      1.0  0.46264  0.35903  0.22477  1.0000
  C   C468      1.0  0.39962  0.63285  0.03374  1.0000
  C   C469      1.0  0.00273  0.58508  0.13536  1.0000
  H   H458      1.0  0.42229  0.65127  0.97756  1.0000
  H   H459      1.0  0.06030  0.63891  0.09752  1.0000
  H   H460      1.0  0.40195  0.44627  0.35489  1.0000
  S   S156      1.0  0.18197  0.51296  0.25116  1.0000
  C   C470      1.0  0.28240  0.52716  0.25539  1.0000
  S   S157      1.0  0.39747  0.36342  0.33395  1.0000
  S   S158      1.0  0.21343  0.55289  0.25492  1.0000
  H   H461      1.0  0.26392  0.55761  0.27416  1.0000
  C   C471      1.0  0.41152  0.39844  0.25298  1.0000
  Fe  Fe75      1.0  0.17643  0.54243  0.26442  1.0000
  S   S159      1.0  0.16363  0.53611  0.28877  1.0000
  S   S160      1.0  0.15626  0.57191  0.24909  1.0000
  S   S161      1.0  0.27997  0.38823  0.26075  1.0000
  H   H462      1.0  0.00101  0.61051  0.35898  1.0000
  Fe  Fe76      1.0  0.17130  0.60923  0.34539  1.0000
  S   S162      1.0  0.14509  0.58444  0.35830  1.0000
  S   S163      1.0  0.19029  0.60719  0.32219  1.0000
  H   H463      1.0  0.05679  0.61808  0.39213  1.0000
  S   S164      1.0  0.13299  0.61889  0.38305  1.0000
  Fe  Fe77      1.0  0.16148  0.58611  0.37709  1.0000
  S   S165      1.0  0.17129  0.55553  0.39560  1.0000
  Fe  Fe78      1.0  0.11939  0.61957  0.36292  1.0000
  C   C472      1.0  0.33004  0.64519  0.43542  1.0000
  S   S166      1.0  0.19003  0.60807  0.36380  1.0000
  N   N41       1.0  0.01770  0.62113  0.39448  1.0000
  S   S167      1.0  0.45420  0.61110  0.45686  1.0000
  H   H464      1.0  0.20734  0.49436  0.43194  1.0000
  S   S168      1.0  0.39327  0.32233  0.37141  1.0000
  C   C473      1.0  0.22252  0.44621  0.46817  1.0000
  Fe  Fe79      1.0  0.36977  0.37010  0.23549  1.0000
  H   H465      1.0  0.46528  0.49947  0.45017  1.0000
  S   S169      1.0  0.43020  0.55466  0.45325  1.0000
  H   H466      1.0  0.34436  0.31952  0.32849  1.0000
  Fe  Fe80      1.0  0.30386  0.50937  0.41253  1.0000
  S   S170      1.0  0.28684  0.50126  0.43618  1.0000
  S   S171      1.0  0.28646  0.53463  0.39433  1.0000
  Fe  Fe81      1.0  0.35278  0.47457  0.41654  1.0000
  S   S172      1.0  0.34004  0.46362  0.44042  1.0000
  S   S173      1.0  0.39067  0.45864  0.40517  1.0000
  Fe  Fe82      1.0  0.30437  0.46177  0.43478  1.0000
  S   S174      1.0  0.28936  0.42665  0.44274  1.0000
  Fe  Fe83      1.0  0.32426  0.50397  0.43963  1.0000
  S   S175      1.0  0.32850  0.52282  0.45684  1.0000
  S   S176      1.0  0.31843  0.46971  0.41080  1.0000
  S   S177      1.0  0.33979  0.51515  0.41605  1.0000
  C   C474      1.0  0.22722  0.51713  0.29338  1.0000
  C   C475      1.0  0.24716  0.44500  0.42037  1.0000
  Fe  Fe84      1.0  0.19389  0.58031  0.23856  1.0000
  S   S178      1.0  0.32920  0.32676  0.26254  1.0000
  C   C476      1.0  0.26062  0.42607  0.45454  1.0000
  C   C477      1.0  0.25159  0.40404  0.45845  1.0000
  H   H467      1.0  0.12915  0.61138  0.29551  1.0000
  H   H468      1.0  0.00716  0.49429  0.25441  1.0000
  Fe  Fe85      1.0  0.16506  0.54367  0.23481  1.0000
  C   C478      1.0  0.24612  0.44718  0.45946  1.0000
  C   C479      1.0  0.33941  0.62349  0.44431  1.0000
  S   S179      1.0  0.25535  0.50245  0.23426  1.0000
  H   H469      1.0  0.47120  0.34151  0.23050  1.0000
  H   H470      1.0  0.25301  0.46424  0.45646  1.0000
  C   C480      1.0  0.39372  0.42701  0.40558  1.0000
  C   C481      1.0  0.41270  0.41514  0.39589  1.0000
  C   C482      1.0  0.41382  0.39043  0.39525  1.0000
  C   C483      1.0  0.39636  0.37738  0.40462  1.0000
  C   C484      1.0  0.37797  0.38902  0.41466  1.0000
  C   C485      1.0  0.37642  0.41386  0.41501  1.0000
  H   H471      1.0  0.42615  0.42525  0.38859  1.0000
  H   H472      1.0  0.42823  0.38149  0.38760  1.0000
  H   H473      1.0  0.36454  0.37894  0.42201  1.0000
  H   H474      1.0  0.36173  0.42282  0.42255  1.0000
  C   C486      1.0  0.40077  0.54878  0.45361  1.0000
  C   C487      1.0  0.39653  0.54123  0.44174  1.0000
  C   C488      1.0  0.37419  0.53379  0.44245  1.0000
  C   C489      1.0  0.35587  0.53403  0.45501  1.0000
  C   C490      1.0  0.22487  0.60419  0.39335  1.0000
  H   H475      1.0  0.45344  0.51564  0.43419  1.0000
  H   H476      1.0  0.41072  0.54063  0.43207  1.0000
  H   H477      1.0  0.37135  0.52741  0.43339  1.0000
  S   S180      1.0  0.39619  0.34690  0.40372  1.0000
  Fe  Fe86      1.0  0.41721  0.33229  0.38369  1.0000
  C   C491      1.0  0.20336  0.54733  0.39529  1.0000
  C   C492      1.0  0.21222  0.53999  0.40834  1.0000
  C   C493      1.0  0.23784  0.53521  0.40821  1.0000
  C   C494      1.0  0.25460  0.53764  0.39500  1.0000
  C   C495      1.0  0.24573  0.54437  0.38199  1.0000
  C   C496      1.0  0.22018  0.54910  0.38212  1.0000
  H   H478      1.0  0.19920  0.53894  0.41853  1.0000
  H   H479      1.0  0.24456  0.53049  0.41828  1.0000
  H   H480      1.0  0.25864  0.54627  0.37175  1.0000
  H   H481      1.0  0.21350  0.55438  0.37202  1.0000
  C   C497      1.0  0.05987  0.61080  0.36219  1.0000
  C   C498      1.0  0.03682  0.61898  0.35784  1.0000
  C   C499      1.0  0.01905  0.60378  0.36195  1.0000
  C   C500      1.0  0.02430  0.58035  0.37046  1.0000
  C   C501      1.0  0.04780  0.57176  0.37421  1.0000
  C   C502      1.0  0.06564  0.58688  0.37001  1.0000
  C   C503      1.0  0.25385  0.50252  0.27245  1.0000
  H   H482      1.0  0.37263  0.45701  0.37712  1.0000
  H   H483      1.0  0.05197  0.55357  0.38076  1.0000
  H   H484      1.0  0.08341  0.58037  0.37335  1.0000
  H   H485      1.0  0.03236  0.63744  0.35167  1.0000
  H   H486      1.0  0.23154  0.55222  0.29627  1.0000
  C   C504      1.0  0.37932  0.36433  0.30977  1.0000
  H   H487      1.0  0.34562  0.54284  0.47638  1.0000
  C   C505      1.0  0.17096  0.55607  0.29793  1.0000
  C   C506      1.0  0.16608  0.55151  0.31314  1.0000
  C   C507      1.0  0.17172  0.56716  0.32070  1.0000
  C   C508      1.0  0.18248  0.58739  0.31310  1.0000
  C   C509      1.0  0.18736  0.59193  0.29790  1.0000
  C   C510      1.0  0.18146  0.57645  0.29033  1.0000
  H   H488      1.0  0.15795  0.53578  0.31910  1.0000
  H   H489      1.0  0.16822  0.56324  0.33240  1.0000
  H   H490      1.0  0.19563  0.60758  0.29193  1.0000
  H   H491      1.0  0.18505  0.58034  0.27861  1.0000
  H   H492      1.0  0.00484  0.35194  0.45508  1.0000
  C   C511      1.0  0.37660  0.35437  0.29832  1.0000
  H   H493      1.0  0.47139  0.48450  0.43492  1.0000
  C   C512      1.0  0.27307  0.41981  0.25305  1.0000
  C   C513      1.0  0.24933  0.43363  0.25717  1.0000
  C   C514      1.0  0.24351  0.45895  0.25132  1.0000
  H   H494      1.0  0.08591  0.55745  0.33660  1.0000
  C   C515      1.0  0.23972  0.62755  0.40566  1.0000
  H   H495      1.0  0.23549  0.42471  0.26499  1.0000
  H   H496      1.0  0.22529  0.46948  0.25471  1.0000
  S   S181      1.0  0.38401  0.33001  0.24275  1.0000
  H   H497      1.0  0.40425  0.40609  0.34790  1.0000
  H   H498      1.0  0.17776  0.47557  0.45411  1.0000
  H   H499      1.0  0.22829  0.59194  0.38579  1.0000
  H   H500      1.0  0.32791  0.38643  0.38373  1.0000
  C   C516      1.0  0.46019  0.37638  0.25498  1.0000
  C   C517      1.0  0.99906  0.60792  0.39834  1.0000
  H   H501      1.0  0.26268  0.38774  0.45456  1.0000
  C   C518      1.0  0.39016  0.43363  0.36143  1.0000
  C   C519      1.0  0.21336  0.42421  0.47187  1.0000
  H   H502      1.0  0.99601  0.37594  0.47467  1.0000
  H   H503      1.0  0.41298  0.60645  0.44051  1.0000
  C   C520      1.0  0.38214  0.54980  0.46598  1.0000
  S   S182      1.0  0.33504  0.36416  0.23045  1.0000
  H   H504      1.0  0.36402  0.36471  0.29118  1.0000
  Fe  Fe87      1.0  0.34792  0.32418  0.23955  1.0000
  N   N42       1.0  0.26419  0.52313  0.26886  1.0000
  H   H505      1.0  0.41790  0.63405  0.42795  1.0000
  C   C521      1.0  0.25633  0.54088  0.27724  1.0000
  C   C522      1.0  0.04097  0.61082  0.39980  1.0000
  C   C523      1.0  0.23793  0.53803  0.28970  1.0000
  H   H506      1.0  0.42627  0.42929  0.23909  1.0000
  H   H507      1.0  0.37218  0.59800  0.44940  1.0000
  S   S183      1.0  0.08010  0.63166  0.35867  1.0000
  H   H508      1.0  0.27067  0.59269  0.38075  1.0000
  H   H509      1.0  0.44270  0.33941  0.28194  1.0000
  Fe  Fe88      1.0  0.43072  0.58218  0.46670  1.0000
  H   H510      1.0  0.37101  0.46698  0.46010  1.0000
  H   H511      1.0  0.43561  0.32686  0.26823  1.0000
  H   H512      1.0  0.13232  0.63606  0.31098  1.0000
  H   H513      1.0  0.47000  0.40970  0.24099  1.0000
  Fe  Fe89      1.0  0.41892  0.63747  0.46334  1.0000
  C   C524      1.0  0.23293  0.42702  0.42707  1.0000
  C   C525      1.0  0.34548  0.38328  0.38770  1.0000
  C   C526      1.0  0.45501  0.40023  0.24688  1.0000
  H   H514      1.0  0.25977  0.48865  0.26571  1.0000
  S   S184      1.0  0.35239  0.37697  0.25795  1.0000
  C   C527      1.0  0.37187  0.64884  0.42336  1.0000
  H   H515      1.0  0.16930  0.44782  0.45322  1.0000
  C   C528      1.0  0.39513  0.35085  0.31934  1.0000
  H   H516      1.0  0.09449  0.54841  0.31167  1.0000
  H   H517      1.0  0.37791  0.37735  0.36323  1.0000
  H   H518      1.0  0.39515  0.46278  0.43532  1.0000
  C   C529      1.0  0.20961  0.43366  0.43557  1.0000
  N   N43       1.0  0.44147  0.36380  0.26175  1.0000
  H   H519      1.0  0.04508  0.49648  0.23598  1.0000
  N   N44       1.0  0.24414  0.61162  0.39631  1.0000
  H   H520      1.0  0.16286  0.47500  0.43953  1.0000
  Fe  Fe90      1.0  0.31874  0.36749  0.25363  1.0000
  C   C530      1.0  0.37360  0.43974  0.37382  1.0000
  H   H521      1.0  0.34129  0.38527  0.39924  1.0000
  H   H522      1.0  0.13717  0.49475  0.23589  1.0000
  N   N45       1.0  0.20078  0.45755  0.43738  1.0000
  H   H523      1.0  0.43499  0.47693  0.42684  1.0000
  S   S185      1.0  0.43914  0.35220  0.36379  1.0000
  H   H524      1.0  0.13651  0.61816  0.32836  1.0000
  C   C531      1.0  0.17644  0.46434  0.44644  1.0000
  H   H525      1.0  0.19899  0.41941  0.44109  1.0000
  C   C532      1.0  0.35897  0.42296  0.38233  1.0000
  C   C533      1.0  0.43051  0.41122  0.24581  1.0000
  C   C534      1.0  0.03343  0.50175  0.22753  1.0000
  C   C535      1.0  0.40776  0.61855  0.43045  1.0000
  H   H526      1.0  0.11645  0.46298  0.23251  1.0000
  C   C536      1.0  0.44700  0.33880  0.27020  1.0000
  C   C537      1.0  0.09514  0.56934  0.32749  1.0000
  C   C538      1.0  0.20041  0.61266  0.39980  1.0000
  H   H527      1.0  0.24894  0.48338  0.41697  1.0000
  H   H528      1.0  0.27891  0.58803  0.39811  1.0000
  H   H529      1.0  0.47937  0.36777  0.25538  1.0000
  H   H530      1.0  0.00180  0.58932  0.40466  1.0000
  H   H531      1.0  0.34656  0.42765  0.39213  1.0000
  H   H532      1.0  0.22084  0.38635  0.46939  1.0000
  C   C539      1.0  0.23784  0.46938  0.42205  1.0000
  C   C540      1.0  0.38981  0.33088  0.29637  1.0000
  H   H533      1.0  0.27288  0.53902  0.24663  1.0000
  H   H534      1.0  0.41402  0.60780  0.42160  1.0000
  H   H535      1.0  0.11604  0.57576  0.29111  1.0000
  C   C541      1.0  0.36506  0.61488  0.44248  1.0000
  H   H536      1.0  0.35533  0.36388  0.38755  1.0000
  C   C542      1.0  0.28511  0.45670  0.23714  1.0000
  H   H537      1.0  0.36890  0.38244  0.31131  1.0000
  H   H538      1.0  0.22657  0.48319  0.28730  1.0000
  C   C543      1.0  0.37668  0.39479  0.36634  1.0000
  C   C544      1.0  0.40852  0.32750  0.31724  1.0000
  C   C545      1.0  0.45726  0.49719  0.44122  1.0000
  C   C546      1.0  0.39159  0.41109  0.35757  1.0000
  H   H539      1.0  0.32697  0.61350  0.45267  1.0000
  N   N46       1.0  0.43421  0.48764  0.44673  1.0000
  Fe  Fe91      1.0  0.36431  0.33615  0.26498  1.0000
  H   H540      1.0  0.39250  0.40664  0.25188  1.0000
  C   C547      1.0  0.42119  0.48978  0.46037  1.0000
  H   H541      1.0  0.38761  0.48482  0.47599  1.0000
  C   C548      1.0  0.42504  0.47809  0.43780  1.0000
  C   C549      1.0  0.09976  0.56441  0.31352  1.0000
  H   H542      1.0  0.40255  0.36466  0.26644  1.0000
  H   H543      1.0  0.18521  0.60672  0.39735  1.0000
  C   C550      1.0  0.40242  0.47010  0.44253  1.0000
  H   H544      1.0  0.24033  0.40791  0.42615  1.0000
  H   H545      1.0  0.21240  0.51504  0.30276  1.0000
  S   S186      1.0  0.00139  0.56224  0.37788  1.0000
  H   H546      1.0  0.42783  0.49846  0.46720  1.0000
  C   C551      1.0  0.41735  0.37465  0.26103  1.0000
  C   C552      1.0  0.21440  0.47540  0.43059  1.0000
  H   H547      1.0  0.26571  0.43995  0.41425  1.0000
  H   H548      1.0  0.30926  0.42089  0.23973  1.0000
  C   C553      1.0  0.26976  0.60197  0.38984  1.0000
  C   C554      1.0  0.39840  0.48215  0.46541  1.0000
  H   H549      1.0  0.42579  0.35134  0.23182  1.0000
  C   C555      1.0  0.19569  0.62911  0.40922  1.0000
  N   N47       1.0  0.38093  0.62781  0.43230  1.0000
  C   C556      1.0  0.22796  0.40316  0.46698  1.0000
  N   N48       1.0  0.36100  0.40062  0.37869  1.0000
  C   C557      1.0  0.99746  0.50867  0.24702  1.0000
  C   C558      1.0  0.23516  0.49926  0.28470  1.0000
  Fe  Fe92      1.0  0.41752  0.33875  0.35142  1.0000
  C   C559      1.0  0.29093  0.43141  0.24298  1.0000
  N   N49       1.0  0.00851  0.51491  0.23283  1.0000
  N   N50       1.0  0.11464  0.60460  0.31826  1.0000
  H   H550      1.0  0.29186  0.50948  0.25179  1.0000
  C   C560      1.0  0.11912  0.59999  0.30452  1.0000
  H   H551      1.0  0.38524  0.55547  0.47523  1.0000
  C   C561      1.0  0.11168  0.57988  0.30194  1.0000
  Fe  Fe93      1.0  0.21770  0.52585  0.24054  1.0000
  C   C562      1.0  0.10284  0.58961  0.32966  1.0000
  H   H552      1.0  0.09960  0.59315  0.34056  1.0000
  H   H553      1.0  0.29689  0.53615  0.25678  1.0000
  S   S187      1.0  0.39535  0.60881  0.47209  1.0000
  C   C563      1.0  0.38900  0.47227  0.45642  1.0000
  H   H554      1.0  0.46675  0.32996  0.26717  1.0000
  H   H555      1.0  0.28036  0.61715  0.38551  1.0000
  H   H556      1.0  0.25497  0.63380  0.40781  1.0000
  C   C564      1.0  0.35975  0.54252  0.46664  1.0000
  C   C565      1.0  0.26144  0.47053  0.24130  1.0000
  C   C566      1.0  0.12576  0.49913  0.22774  1.0000
  H   H557      1.0  0.04557  0.59042  0.40082  1.0000
  H   H558      1.0  0.21210  0.45051  0.23348  1.0000
  H   H559      1.0  0.10693  0.63787  0.32631  1.0000
  S   S188      1.0  0.19781  0.62018  0.23265  1.0000
  C   C567      1.0  0.12293  0.62529  0.32104  1.0000
  H   H560      1.0  0.03940  0.61552  0.41052  1.0000
  Fe  Fe94      1.0  0.16079  0.64088  0.36880  1.0000
  S   S189      1.0  0.14482  0.64448  0.34908  1.0000
  C   C568      1.0  0.21544  0.63664  0.41220  1.0000
  H   H561      1.0  0.21129  0.46256  0.47194  1.0000
  C   C569      1.0  0.01433  0.64435  0.38621  1.0000
  H   H562      1.0  0.36503  0.31825  0.34724  1.0000
  H   H563      1.0  0.17673  0.63639  0.41393  1.0000
  H   H564      1.0  0.07238  0.31871  0.47545  1.0000
  H   H565      1.0  0.29909  0.46556  0.22941  1.0000
  H   H566      1.0  0.21197  0.64983  0.41926  1.0000
  S   S190      1.0  0.38014  0.60509  0.51445  1.0000
  Fe  Fe95      1.0  0.18061  0.34157  0.51556  1.0000
  S   S191      1.0  0.15174  0.37602  0.51300  1.0000
  H   H567      1.0  0.36149  0.52700  0.57109  1.0000
  S   S192      1.0  0.48360  0.54633  0.68114  1.0000
  Fe  Fe96      1.0  0.13338  0.35491  0.50289  1.0000
  S   S193      1.0  0.09151  0.35896  0.51031  1.0000
  S   S194      1.0  0.20437  0.35228  0.49399  1.0000
  S   S195      1.0  0.18346  0.42350  0.48230  1.0000
  Fe  Fe97      1.0  0.24639  0.39628  0.58284  1.0000
  S   S196      1.0  0.28706  0.39472  0.58141  1.0000
  S   S197      1.0  0.22634  0.40452  0.56397  1.0000
  Fe  Fe98      1.0  0.23441  0.39695  0.61509  1.0000
  S   S198      1.0  0.27368  0.39561  0.61643  1.0000
  S   S199      1.0  0.20617  0.39586  0.63574  1.0000
  Fe  Fe99      1.0  0.27493  0.42315  0.59565  1.0000
  S   S200      1.0  0.28918  0.45884  0.59056  1.0000
  Fe  Fe100     1.0  0.28261  0.36713  0.60243  1.0000
  C   C570      1.0  0.28388  0.34126  0.64966  1.0000
  S   S201      1.0  0.23466  0.42694  0.59550  1.0000
  S   S202      1.0  0.24291  0.36634  0.60266  1.0000
  S   S203      1.0  0.09704  0.46858  0.67660  1.0000
  S   S204      1.0  0.42758  0.63657  0.48490  1.0000
  H   H568      1.0  0.26879  0.35759  0.50652  1.0000
  S   S205      1.0  0.41728  0.53429  0.56920  1.0000
  Fe  Fe101     1.0  0.08173  0.46748  0.65746  1.0000
  S   S206      1.0  0.10555  0.47308  0.63527  1.0000
  H   H569      1.0  0.08363  0.61331  0.71623  1.0000
  S   S207      1.0  0.38164  0.54020  0.63352  1.0000
  Fe  Fe102     1.0  0.40109  0.54086  0.59193  1.0000
  S   S208      1.0  0.41121  0.50771  0.60873  1.0000
  Fe  Fe103     1.0  0.05860  0.48741  0.68510  1.0000
  Fe  Fe104     1.0  0.37194  0.51714  0.62028  1.0000
  S   S209      1.0  0.35142  0.48537  0.62947  1.0000
  Fe  Fe105     1.0  0.42000  0.53376  0.62005  1.0000
  S   S210      1.0  0.45823  0.52596  0.62537  1.0000
  S   S211      1.0  0.36114  0.54882  0.60268  1.0000
  Fe  Fe106     1.0  0.17425  0.38541  0.49074  1.0000
  H   H570      1.0  0.48548  0.46471  0.69818  1.0000
  C   C571      1.0  0.25837  0.34638  0.65011  1.0000
  C   C572      1.0  0.43857  0.60068  0.63943  1.0000
  H   H571      1.0  0.22800  0.32079  0.55715  1.0000
  C   C573      1.0  0.43060  0.60138  0.55230  1.0000
  C   C574      1.0  0.11828  0.40305  0.62794  1.0000
  C   C575      1.0  0.22900  0.40133  0.50780  1.0000
  H   H572      1.0  0.47340  0.57022  0.51337  1.0000
  C   C576      1.0  0.06108  0.34579  0.70711  1.0000
  C   C577      1.0  0.46393  0.53388  0.64059  1.0000
  C   C578      1.0  0.44558  0.53636  0.65297  1.0000
  C   C579      1.0  0.45161  0.54080  0.66532  1.0000
  C   C580      1.0  0.47591  0.54283  0.66526  1.0000
  C   C581      1.0  0.99372  0.42770  0.66300  1.0000
  H   H573      1.0  0.17916  0.64842  0.68866  1.0000
  H   H574      1.0  0.42698  0.53425  0.65314  1.0000
  H   H575      1.0  0.43756  0.54216  0.67502  1.0000
  C   C582      1.0  0.06496  0.32949  0.48389  1.0000
  C   C583      1.0  0.07256  0.39364  0.72099  1.0000
  C   C584      1.0  0.07352  0.52765  0.70334  1.0000
  C   C585      1.0  0.09808  0.51493  0.70112  1.0000
  C   C586      1.0  0.17686  0.39643  0.59159  1.0000
  C   C587      1.0  0.45063  0.58589  0.54533  1.0000
  C   C588      1.0  0.08514  0.55368  0.71654  1.0000
  S   S212      1.0  0.49336  0.61103  0.48881  1.0000
  C   C589      1.0  0.29425  0.32089  0.65906  1.0000
  C   C590      1.0  0.30423  0.46663  0.60242  1.0000
  C   C591      1.0  0.31093  0.44981  0.61460  1.0000
  C   C592      1.0  0.32479  0.45604  0.62308  1.0000
  C   C593      1.0  0.33222  0.47898  0.61935  1.0000
  C   C594      1.0  0.32488  0.49600  0.60740  1.0000
  C   C595      1.0  0.31083  0.48989  0.59902  1.0000
  H   H576      1.0  0.30604  0.43180  0.61729  1.0000
  H   H577      1.0  0.33035  0.44282  0.63235  1.0000
  H   H578      1.0  0.33013  0.51383  0.60454  1.0000
  H   H579      1.0  0.30556  0.50307  0.58967  1.0000
  C   C596      1.0  0.17840  0.41749  0.63529  1.0000
  C   C597      1.0  0.17424  0.43464  0.62269  1.0000
  C   C598      1.0  0.15181  0.45174  0.62267  1.0000
  C   C599      1.0  0.13350  0.45165  0.63525  1.0000
  C   C600      1.0  0.13768  0.43443  0.64781  1.0000
  C   C601      1.0  0.16008  0.41741  0.64783  1.0000
  H   H580      1.0  0.18815  0.43475  0.61295  1.0000
  H   H581      1.0  0.14862  0.46503  0.61294  1.0000
  H   H582      1.0  0.12369  0.43411  0.65756  1.0000
  H   H583      1.0  0.16314  0.40416  0.65761  1.0000
  C   C602      1.0  0.30499  0.63988  0.69968  1.0000
  N   N51       1.0  0.15635  0.39814  0.60403  1.0000
  H   H584      1.0  0.12974  0.41365  0.72249  1.0000
  C   C603      1.0  0.09577  0.45486  0.71912  1.0000
  H   H585      1.0  0.02629  0.40230  0.69960  1.0000
  C   C604      1.0  0.30485  0.62344  0.69105  1.0000
  H   H586      1.0  0.25318  0.42828  0.53365  1.0000
  H   H587      1.0  0.41253  0.61683  0.60941  1.0000
  S   S213      1.0  0.04396  0.48936  0.66495  1.0000
  H   H588      1.0  0.00575  0.37799  0.72044  1.0000
  C   C605      1.0  0.10924  0.36153  0.71876  1.0000
  S   S214      1.0  0.07085  0.43070  0.66644  1.0000
  N   N52       1.0  0.24490  0.38641  0.51637  1.0000
  C   C606      1.0  0.07185  0.35124  0.50099  1.0000
  C   C607      1.0  0.44397  0.60954  0.52236  1.0000
  C   C608      1.0  0.02979  0.34874  0.49984  1.0000
  C   C609      1.0  0.04604  0.35717  0.50571  1.0000
  H   H589      1.0  0.07616  0.34692  0.69782  1.0000
  Fe  Fe107     1.0  0.46118  0.60747  0.47934  1.0000
  H   H590      1.0  0.03862  0.36782  0.51421  1.0000
  C   C610      1.0  0.20516  0.34863  0.54399  1.0000
  C   C611      1.0  0.22046  0.34029  0.55440  1.0000
  C   C612      1.0  0.22656  0.35709  0.56101  1.0000
  C   C613      1.0  0.21727  0.38234  0.55727  1.0000
  C   C614      1.0  0.20140  0.39057  0.54720  1.0000
  C   C615      1.0  0.19549  0.37384  0.54053  1.0000
  H   H591      1.0  0.28903  0.59343  0.68948  1.0000
  H   H592      1.0  0.23887  0.35053  0.56873  1.0000
  H   H593      1.0  0.19408  0.41008  0.54427  1.0000
  H   H594      1.0  0.18365  0.38050  0.53258  1.0000
  C   C616      1.0  0.38900  0.58405  0.52971  1.0000
  C   C617      1.0  0.37628  0.58741  0.54365  1.0000
  C   C618      1.0  0.38444  0.57198  0.55598  1.0000
  C   C619      1.0  0.40514  0.55299  0.55432  1.0000
  C   C620      1.0  0.41714  0.54900  0.54042  1.0000
  C   C621      1.0  0.40918  0.56455  0.52816  1.0000
  H   H595      1.0  0.36053  0.60240  0.54490  1.0000
  H   H596      1.0  0.37501  0.57508  0.56670  1.0000
  H   H597      1.0  0.41870  0.56146  0.51752  1.0000
  S   S215      1.0  0.05026  0.51923  0.69709  1.0000
  H   H598      1.0  0.22188  0.39384  0.50064  1.0000
  N   N53       1.0  0.45685  0.58992  0.53053  1.0000
  H   H599      1.0  0.18865  0.37766  0.59239  1.0000
  S   S216      1.0  0.35351  0.61007  0.61704  1.0000
  H   H600      1.0  0.25065  0.47787  0.62258  1.0000
  S   S217      1.0  0.44099  0.57580  0.48864  1.0000
  H   H601      1.0  0.38923  0.49859  0.58642  1.0000
  C   C622      1.0  0.23840  0.46779  0.61974  1.0000
  Fe  Fe108     1.0  0.37372  0.57132  0.61497  1.0000
  S   S218      1.0  0.41273  0.56638  0.60232  1.0000
  H   H602      1.0  0.26640  0.38418  0.53223  1.0000
  C   C623      1.0  0.43364  0.59902  0.62622  1.0000
  H   H603      1.0  0.02918  0.34736  0.54654  1.0000
  C   C624      1.0  0.15888  0.38320  0.61715  1.0000
  H   H604      1.0  0.08000  0.56822  0.72274  1.0000
  H   H605      1.0  0.10108  0.33293  0.48621  1.0000
  H   H606      1.0  0.18868  0.40988  0.59090  1.0000
  H   H607      1.0  0.13485  0.51109  0.70518  1.0000
  H   H608      1.0  0.43299  0.53413  0.53912  1.0000
  C   C625      1.0  0.21742  0.64820  0.70997  1.0000
  H   H609      1.0  0.25806  0.34903  0.52590  1.0000
  H   H610      1.0  0.16997  0.40040  0.58126  1.0000
  H   H611      1.0  0.04999  0.32122  0.55481  1.0000
  C   C626      1.0  0.08125  0.33762  0.48992  1.0000
  H   H612      1.0  0.10330  0.50013  0.69512  1.0000
  H   H613      1.0  0.37401  0.42566  0.60224  1.0000
  N   N54       1.0  0.36638  0.48782  0.57533  1.0000
  N   N55       1.0  0.27429  0.62206  0.71823  1.0000
  C   C627      1.0  0.38063  0.48402  0.58557  1.0000
  H   H614      1.0  0.44220  0.58280  0.62144  1.0000
  H   H615      1.0  0.24225  0.64292  0.68984  1.0000
  S   S219      1.0  0.13262  0.54682  0.72202  1.0000
  S   S220      1.0  0.19958  0.32736  0.53498  1.0000
  H   H616      1.0  0.44564  0.63285  0.65860  1.0000
  C   C628      1.0  0.41699  0.62109  0.54402  1.0000
  H   H617      1.0  0.26192  0.59246  0.71371  1.0000
  C   C629      1.0  0.09558  0.38423  0.71310  1.0000
  H   H618      1.0  0.03229  0.38144  0.68723  1.0000
  H   H619      1.0  0.47107  0.49464  0.68924  1.0000
  H   H620      1.0  0.26433  0.32038  0.62016  1.0000
  C   C630      1.0  0.01067  0.42823  0.64989  1.0000
  N   N56       1.0  0.21313  0.47330  0.62804  1.0000
  C   C631      1.0  0.20691  0.45981  0.64161  1.0000
  C   C632      1.0  0.18315  0.46538  0.64991  1.0000
  C   C633      1.0  0.16572  0.48483  0.64423  1.0000
  H   H621      1.0  0.22018  0.44433  0.64599  1.0000
  H   H622      1.0  0.17803  0.45426  0.66051  1.0000
  H   H623      1.0  0.14696  0.48885  0.65037  1.0000
  H   H624      1.0  0.24629  0.44772  0.62192  1.0000
  H   H625      1.0  0.23884  0.47320  0.60786  1.0000
  H   H626      1.0  0.10726  0.46755  0.72010  1.0000
  S   S221      1.0  0.99845  0.43940  0.67732  1.0000
  C   C634      1.0  0.42373  0.62527  0.52894  1.0000
  C   C635      1.0  0.28946  0.60612  0.69619  1.0000
  H   H627      1.0  0.37188  0.58807  0.64391  1.0000
  C   C636      1.0  0.35851  0.44660  0.58368  1.0000
  H   H628      1.0  0.23742  0.35274  0.51394  1.0000
  H   H629      1.0  0.37246  0.60635  0.66473  1.0000
  H   H630      1.0  0.34905  0.43241  0.58312  1.0000
  H   H631      1.0  0.12706  0.35416  0.71268  1.0000
  C   C637      1.0  0.13979  0.38526  0.62926  1.0000
  C   C638      1.0  0.35568  0.46935  0.57414  1.0000
  C   C639      1.0  0.19626  0.49263  0.62246  1.0000
  Fe  Fe109     1.0  0.03429  0.45223  0.67561  1.0000
  S   S222      1.0  0.04560  0.45213  0.69644  1.0000
  H   H632      1.0  0.34620  0.51518  0.56076  1.0000
  H   H633      1.0  0.01002  0.35294  0.50380  1.0000
  H   H634      1.0  0.02750  0.43510  0.64855  1.0000
  H   H635      1.0  0.05758  0.39103  0.69161  1.0000
  C   C640      1.0  0.36318  0.60709  0.64421  1.0000
  H   H636      1.0  0.17595  0.37001  0.61842  1.0000
  H   H637      1.0  0.07725  0.63858  0.70194  1.0000
  C   C641      1.0  0.24667  0.42100  0.52612  1.0000
  H   H638      1.0  0.48223  0.55533  0.53038  1.0000
  C   C642      1.0  0.25404  0.39600  0.52529  1.0000
  H   H639      1.0  0.22400  0.45560  0.51829  1.0000
  Fe  Fe110     1.0  0.40731  0.60512  0.49318  1.0000
  S   S223      1.0  0.20704  0.62063  0.71197  1.0000
  H   H640      1.0  0.31654  0.62425  0.68036  1.0000
  H   H641      1.0  0.15864  0.51342  0.62585  1.0000
  Fe  Fe111     1.0  0.18220  0.33348  0.48509  1.0000
  C   C643      1.0  0.17226  0.49854  0.63042  1.0000
  S   S224      1.0  0.15338  0.36767  0.48030  1.0000
  H   H642      1.0  0.20124  0.50345  0.61175  1.0000
  C   C644      1.0  0.22125  0.42641  0.50836  1.0000
  C   C645      1.0  0.25283  0.36018  0.51559  1.0000
  H   H643      1.0  0.10354  0.44776  0.70888  1.0000
  N   N57       1.0  0.04081  0.36454  0.70799  1.0000
  H   H644      1.0  0.09978  0.43301  0.61364  1.0000
  H   H645      1.0  0.29569  0.35256  0.64171  1.0000
  H   H646      1.0  0.45146  0.58587  0.64460  1.0000
  S   S225      1.0  0.14110  0.61537  0.71297  1.0000
  C   C646      1.0  0.36350  0.61750  0.65599  1.0000
  N   N58       1.0  0.42700  0.62051  0.64585  1.0000
  C   C647      1.0  0.24358  0.33083  0.65984  1.0000
  C   C648      1.0  0.47779  0.57359  0.52328  1.0000
  C   C649      1.0  0.35296  0.64242  0.65625  1.0000
  C   C650      1.0  0.13543  0.41582  0.60268  1.0000
  C   C651      1.0  0.41173  0.63982  0.63896  1.0000
  C   C652      1.0  0.03915  0.38581  0.69602  1.0000
  C   C653      1.0  0.11607  0.41852  0.61460  1.0000
  H   H647      1.0  0.41397  0.62957  0.66683  1.0000
  S   S226      1.0  0.16090  0.31928  0.50708  1.0000
  H   H648      1.0  0.41284  0.64005  0.52234  1.0000
  H   H649      1.0  0.39403  0.45917  0.60390  1.0000
  H   H650      1.0  0.06130  0.34189  0.53854  1.0000
  C   C654      1.0  0.23012  0.43626  0.51761  1.0000
  C   C655      1.0  0.34103  0.64626  0.63318  1.0000
  S   S227      1.0  0.31224  0.33423  0.60840  1.0000
  C   C656      1.0  0.37244  0.44284  0.59443  1.0000
  H   H651      1.0  0.20826  0.43802  0.50173  1.0000
  H   H652      1.0  0.06205  0.41123  0.71678  1.0000
  H   H653      1.0  0.01846  0.42144  0.62808  1.0000
  H   H654      1.0  0.07681  0.46564  0.71821  1.0000
  C   C657      1.0  0.28957  0.63890  0.71334  1.0000
  C   C658      1.0  0.27429  0.60559  0.70993  1.0000
  H   H655      1.0  0.04815  0.55699  0.71283  1.0000
  C   C659      1.0  0.43145  0.62148  0.66003  1.0000
  C   C660      1.0  0.06940  0.62318  0.70960  1.0000
  Fe  Fe112     1.0  0.08298  0.43352  0.68629  1.0000
  C   C661      1.0  0.06715  0.54715  0.71101  1.0000
  C   C662      1.0  0.35220  0.62156  0.63267  1.0000
  H   H656      1.0  0.14208  0.37378  0.63972  1.0000
  S   S228      1.0  0.10833  0.40089  0.69651  1.0000
  H   H657      1.0  0.13379  0.42824  0.59241  1.0000
  H   H658      1.0  0.47648  0.48782  0.66536  1.0000
  H   H659      1.0  0.00192  0.32242  0.54378  1.0000
  H   H660      1.0  0.10370  0.40547  0.63736  1.0000
  H   H661      1.0  0.43804  0.60271  0.66609  1.0000
  H   H662      1.0  0.34412  0.47236  0.56615  1.0000
  C   C663      1.0  0.41729  0.61817  0.61940  1.0000
  H   H663      1.0  0.42507  0.59746  0.56401  1.0000
  H   H664      1.0  0.40081  0.63266  0.54923  1.0000
  C   C664      1.0  0.36324  0.51166  0.56536  1.0000
  C   C665      1.0  0.40660  0.63892  0.62565  1.0000
  H   H665      1.0  0.46053  0.57012  0.55186  1.0000
  C   C666      1.0  0.38369  0.46161  0.59536  1.0000
  Fe  Fe113     1.0  0.16950  0.61583  0.72552  1.0000
  C   C667      1.0  0.48902  0.48247  0.69113  1.0000
  H   H666      1.0  0.37962  0.51219  0.55639  1.0000
  H   H667      1.0  0.25016  0.36189  0.64268  1.0000
  C   C668      1.0  0.11595  0.52124  0.70680  1.0000
  C   C669      1.0  0.10961  0.54064  0.71450  1.0000
  C   C670      1.0  0.06302  0.32525  0.71837  1.0000
  H   H668      1.0  0.44898  0.61277  0.51065  1.0000
  C   C671      1.0  0.04557  0.33251  0.54437  1.0000
  N   N59       1.0  0.04601  0.63240  0.71880  1.0000
  C   C672      1.0  0.48797  0.53660  0.64044  1.0000
  H   H669      1.0  0.06640  0.61036  0.70338  1.0000
  C   C673      1.0  0.02190  0.36322  0.71978  1.0000
  C   C674      1.0  0.00550  0.42050  0.63831  1.0000
  C   C675      1.0  0.03922  0.33463  0.48900  1.0000
  S   S229      1.0  0.01955  0.32265  0.48182  1.0000
  H   H670      1.0  0.22385  0.33465  0.65983  1.0000
  H   H671      1.0  0.45721  0.45679  0.95572  1.0000
  S   S230      1.0  0.14028  0.35103  0.82914  1.0000
  H   H672      1.0  0.18666  0.58045  0.91675  1.0000
  Fe  Fe114     1.0  0.15532  0.38134  0.87036  1.0000
  S   S231      1.0  0.18273  0.36761  0.85169  1.0000
  S   S232      1.0  0.14726  0.41904  0.87667  1.0000
  Fe  Fe115     1.0  0.15339  0.34809  0.85004  1.0000
  S   S233      1.0  0.14366  0.64056  0.73990  1.0000
  C   C676      1.0  0.22948  0.35386  0.91585  1.0000
  C   C677      1.0  0.07729  0.35795  0.74036  1.0000
  S   S234      1.0  0.12491  0.36435  0.86761  1.0000
  S   S235      1.0  0.16814  0.34892  0.88700  1.0000
  Fe  Fe116     1.0  0.44605  0.57765  0.97412  1.0000
  H   H673      1.0  0.17800  0.60953  0.76935  1.0000
  C   C678      1.0  0.03546  0.32077  0.91385  1.0000
  H   H674      1.0  0.09073  0.32992  0.83701  1.0000
  H   H675      1.0  0.14179  0.54588  0.79292  1.0000
  C   C679      1.0  0.22048  0.59420  0.91300  1.0000
  Fe  Fe117     1.0  0.16819  0.58924  0.86811  1.0000
  S   S236      1.0  0.19472  0.61413  0.85564  1.0000
  S   S237      1.0  0.13108  0.60495  0.88051  1.0000
  Fe  Fe118     1.0  0.20117  0.54270  0.85888  1.0000
  S   S238      1.0  0.23045  0.56424  0.84622  1.0000
  S   S239      1.0  0.21159  0.50344  0.85468  1.0000
  Fe  Fe119     1.0  0.22322  0.58362  0.86495  1.0000
  S   S240      1.0  0.25674  0.58781  0.87276  1.0000
  Fe  Fe120     1.0  0.19944  0.59257  0.83810  1.0000
  S   S241      1.0  0.20634  0.60767  0.81398  1.0000
  S   S242      1.0  0.19646  0.55965  0.87851  1.0000
  S   S243      1.0  0.17046  0.57027  0.84972  1.0000
  C   C680      1.0  0.06344  0.38052  0.73464  1.0000
  N   N60       1.0  0.09540  0.43450  0.73165  1.0000
  C   C681      1.0  0.14849  0.53938  0.80306  1.0000
  H   H676      1.0  0.17231  0.51800  0.83906  1.0000
  Fe  Fe121     1.0  0.47829  0.33281  0.96647  1.0000
  C   C682      1.0  0.16573  0.52410  0.82891  1.0000
  S   S244      1.0  0.46190  0.58218  0.95035  1.0000
  Fe  Fe122     1.0  0.11451  0.63740  0.72855  1.0000
  H   H677      1.0  0.12026  0.34768  0.80537  1.0000
  H   H678      1.0  0.18197  0.64367  0.93497  1.0000
  C   C683      1.0  0.17189  0.54242  0.80393  1.0000
  C   C684      1.0  0.02981  0.65074  0.96015  1.0000
  C   C685      1.0  0.14277  0.32586  0.82074  1.0000
  S   S245      1.0  0.99936  0.58974  0.97621  1.0000
  S   S246      1.0  0.44575  0.36417  0.96484  1.0000
  S   S247      1.0  0.10331  0.60393  0.74406  1.0000
  H   H679      1.0  0.13100  0.51197  0.83810  1.0000
  C   C686      1.0  0.20735  0.36956  0.91307  1.0000
  H   H680      1.0  0.09469  0.38051  0.76457  1.0000
  C   C687      1.0  0.20483  0.53803  0.81747  1.0000
  C   C688      1.0  0.27970  0.62631  0.84332  1.0000
  C   C689      1.0  0.11473  0.41475  0.73181  1.0000
  C   C690      1.0  0.18180  0.61137  0.92716  1.0000
  S   S248      1.0  0.16318  0.58064  0.74091  1.0000
  C   C691      1.0  0.24520  0.35855  0.89011  1.0000
  H   H681      1.0  0.19228  0.37378  0.92194  1.0000
  H   H682      1.0  0.41157  0.35102  0.94468  1.0000
  H   H683      1.0  0.18742  0.39183  0.89660  1.0000
  C   C692      1.0  0.10004  0.34833  0.73233  1.0000
  N   N61       1.0  0.41811  0.50975  0.96251  1.0000
  H   H684      1.0  0.30406  0.63324  0.89011  1.0000
  H   H685      1.0  0.42761  0.54541  0.95743  1.0000
  H   H686      1.0  0.41353  0.47245  0.96600  1.0000
  C   C693      1.0  0.39209  0.51884  0.96855  1.0000
  H   H687      1.0  0.21850  0.52091  0.81571  1.0000
  C   C694      1.0  0.13282  0.62340  0.89232  1.0000
  H   H688      1.0  0.20045  0.38917  0.87173  1.0000
  C   C695      1.0  0.28656  0.63372  0.88722  1.0000
  C   C696      1.0  0.26024  0.61378  0.87869  1.0000
  C   C697      1.0  0.28297  0.61363  0.88228  1.0000
  H   H689      1.0  0.45120  0.32383  0.94907  1.0000
  C   C698      1.0  0.11121  0.63320  0.90133  1.0000
  H   H690      1.0  0.06113  0.45156  0.74327  1.0000
  C   C699      1.0  0.09523  0.39601  0.75551  1.0000
  H   H691      1.0  0.29787  0.59778  0.88137  1.0000
  H   H692      1.0  0.22534  0.64589  0.82270  1.0000
  H   H693      1.0  0.22834  0.40129  0.86867  1.0000
  H   H694      1.0  0.08735  0.32544  0.87997  1.0000
  C   C700      1.0  0.18417  0.60616  0.80418  1.0000
  C   C701      1.0  0.16079  0.60137  0.81132  1.0000
  C   C702      1.0  0.14366  0.59959  0.80337  1.0000
  C   C703      1.0  0.14980  0.60236  0.78823  1.0000
  C   C704      1.0  0.17311  0.60737  0.78103  1.0000
  C   C705      1.0  0.19022  0.60935  0.78899  1.0000
  H   H695      1.0  0.15573  0.59929  0.82296  1.0000
  H   H696      1.0  0.12562  0.59580  0.80900  1.0000
  H   H697      1.0  0.21057  0.55401  0.80930  1.0000
  C   C706      1.0  0.44174  0.59935  0.93856  1.0000
  C   C707      1.0  0.41900  0.61430  0.94336  1.0000
  C   C708      1.0  0.40341  0.62735  0.93344  1.0000
  C   C709      1.0  0.41055  0.62518  0.91881  1.0000
  C   C710      1.0  0.43336  0.61046  0.91415  1.0000
  C   C711      1.0  0.44892  0.59781  0.92392  1.0000
  H   H698      1.0  0.41340  0.61581  0.95465  1.0000
  C   C712      1.0  0.43400  0.52593  0.95710  1.0000
  C   C713      1.0  0.13358  0.52850  0.81541  1.0000
  H   H699      1.0  0.20824  0.61317  0.78338  1.0000
  N   N62       1.0  0.18006  0.53517  0.81680  1.0000
  H   H700      1.0  0.99632  0.64714  0.93761  1.0000
  H   H701      1.0  0.43897  0.60868  0.90289  1.0000
  C   C714      1.0  0.16472  0.44282  0.86984  1.0000
  C   C715      1.0  0.18556  0.44087  0.85872  1.0000
  C   C716      1.0  0.19970  0.45959  0.85423  1.0000
  C   C717      1.0  0.19282  0.48072  0.86055  1.0000
  C   C718      1.0  0.17147  0.48313  0.87128  1.0000
  C   C719      1.0  0.15761  0.46416  0.87597  1.0000
  H   H702      1.0  0.19079  0.42499  0.85355  1.0000
  H   H703      1.0  0.21603  0.45773  0.84578  1.0000
  H   H704      1.0  0.16593  0.49932  0.87620  1.0000
  H   H705      1.0  0.14140  0.46593  0.88451  1.0000
  H   H706      1.0  0.22952  0.37090  0.86526  1.0000
  C   C720      1.0  0.42608  0.48532  0.96171  1.0000
  H   H707      1.0  0.25074  0.61231  0.91086  1.0000
  H   H708      1.0  0.38269  0.33611  0.93443  1.0000
  H   H709      1.0  0.46642  0.58641  0.92011  1.0000
  C   C721      1.0  0.19550  0.59389  0.91886  1.0000
  C   C722      1.0  0.02594  0.62633  0.96339  1.0000
  C   C723      1.0  0.04407  0.32399  0.73056  1.0000
  C   C724      1.0  0.11226  0.64861  0.91051  1.0000
  C   C725      1.0  0.01594  0.62680  0.74087  1.0000
  C   C726      1.0  0.11490  0.39518  0.74371  1.0000
  C   C727      1.0  0.07584  0.41645  0.75538  1.0000
  H   H710      1.0  0.38104  0.52497  0.95982  1.0000
  C   C728      1.0  0.13038  0.32951  0.80919  1.0000
  C   C729      1.0  0.25650  0.61770  0.82822  1.0000
  C   C730      1.0  0.45882  0.51761  0.95115  1.0000
  Fe  Fe123     1.0  0.14046  0.33067  0.88250  1.0000
  H   H711      1.0  0.17216  0.62180  0.88547  1.0000
  Fe  Fe124     1.0  0.13481  0.60522  0.75440  1.0000
  Fe  Fe125     1.0  0.13252  0.58199  0.72935  1.0000
  H   H712      1.0  0.11532  0.52625  0.81489  1.0000
  C   C731      1.0  0.15543  0.62925  0.89238  1.0000
  S   S249      1.0  0.12842  0.59779  0.77891  1.0000
  H   H713      1.0  0.38574  0.63858  0.93712  1.0000
  C   C732      1.0  0.45077  0.47637  0.95582  1.0000
  Fe  Fe126     1.0  0.19357  0.33383  0.86828  1.0000
  C   C733      1.0  0.22034  0.38432  0.87253  1.0000
  H   H714      1.0  0.20517  0.54156  0.82823  1.0000
  H   H715      1.0  0.23126  0.58100  0.90629  1.0000
  C   C734      1.0  0.02336  0.34305  0.73130  1.0000
  H   H716      1.0  0.29168  0.57871  0.82617  1.0000
  S   S250      1.0  0.39183  0.63961  0.90578  1.0000
  H   H717      1.0  0.05001  0.60122  0.73597  1.0000
  C   C735      1.0  0.29125  0.58609  0.83591  1.0000
  H   H718      1.0  0.01030  0.61616  0.75154  1.0000
  H   H719      1.0  0.47898  0.62804  0.94563  1.0000
  H   H720      1.0  0.18317  0.55124  0.79431  1.0000
  H   H721      1.0  0.04583  0.38797  0.74086  1.0000
  C   C736      1.0  0.14229  0.52065  0.82842  1.0000
  C   C737      1.0  0.24866  0.34857  0.90432  1.0000
  N   N63       1.0  0.22333  0.37362  0.88749  1.0000
  H   H722      1.0  0.16217  0.61178  0.93144  1.0000
  S   S251      1.0  0.06642  0.34216  0.75765  1.0000
  C   C738      1.0  0.20468  0.37958  0.89873  1.0000
  H   H723      1.0  0.47138  0.53051  0.94705  1.0000
  H   H724      1.0  0.25984  0.35358  0.88118  1.0000
  H   H725      1.0  0.25188  0.63991  0.73528  1.0000
  C   C739      1.0  0.15644  0.64477  0.90146  1.0000
  C   C740      1.0  0.40047  0.32456  0.93599  1.0000
  C   C741      1.0  0.23137  0.61210  0.91553  1.0000
  C   C742      1.0  0.24075  0.64073  0.82842  1.0000
  H   H726      1.0  0.26577  0.33605  0.90637  1.0000
  H   H727      1.0  0.12974  0.37909  0.74358  1.0000
  C   C743      1.0  0.19312  0.62940  0.92913  1.0000
  H   H728      1.0  0.31066  0.58635  0.83632  1.0000
  C   C744      1.0  0.41664  0.33293  0.94175  1.0000
  H   H729      1.0  0.28378  0.57332  0.84570  1.0000
  H   H730      1.0  0.00876  0.34232  0.74086  1.0000
  H   H731      1.0  0.09367  0.62874  0.90127  1.0000
  H   H732      1.0  0.23173  0.34545  0.92689  1.0000
  C   C745      1.0  0.46725  0.49263  0.95061  1.0000
  C   C746      1.0  0.24113  0.63437  0.87991  1.0000
  H   H733      1.0  0.22353  0.63472  0.87720  1.0000
  N   N64       1.0  0.21765  0.62951  0.92341  1.0000
  C   C747      1.0  0.00440  0.62013  0.97283  1.0000
  C   C748      1.0  0.03845  0.61857  0.73206  1.0000
  H   H734      1.0  0.11077  0.33083  0.73662  1.0000
  H   H735      1.0  0.06570  0.32906  0.92070  1.0000
  C   C749      1.0  0.07630  0.43574  0.74332  1.0000
  H   H736      1.0  0.06037  0.41709  0.76447  1.0000
  H   H737      1.0  0.48653  0.48583  0.94623  1.0000
  H   H738      1.0  0.03951  0.61227  0.95844  1.0000
  H   H739      1.0  0.29435  0.62047  0.84961  1.0000
  H   H740      1.0  0.34735  0.32575  0.96836  1.0000
  N   N65       1.0  0.27575  0.61081  0.83556  1.0000
  H   H741      1.0  0.25297  0.60527  0.82230  1.0000
  C   C750      1.0  0.26427  0.64944  0.84380  1.0000
  H   H742      1.0  0.26894  0.60914  0.74095  1.0000
  H   H743      1.0  0.03458  0.33655  0.90501  1.0000
  H   H744      1.0  0.17400  0.64930  0.90141  1.0000
  H   H745      1.0  0.24160  0.61384  0.73321  1.0000
  C   C751      1.0  0.00104  0.64917  0.73597  1.0000
  C   C752      1.0  0.25849  0.62112  0.73266  1.0000
  C   C753      1.0  0.22873  0.64940  0.92492  1.0000
  H   H746      1.0  0.24933  0.64429  0.92316  1.0000
  H   H747      1.0  0.39034  0.53447  0.97403  1.0000
  H   H748      1.0  0.38416  0.50433  0.97703  1.0000
  S   S252      1.0  0.19455  0.79790  0.02239  1.0000
  H   H749      1.0  0.22663  0.83166  0.02956  1.0000
  H   H750      1.0  0.17885  0.84528  0.06975  1.0000
  C   C754      1.0  0.03265  0.71193  0.10944  1.0000
  C   C755      1.0  0.14804  0.85502  0.18203  1.0000
  S   S253      1.0  0.33784  0.70095  0.19075  1.0000
  S   S254      1.0  0.31782  0.75165  0.21618  1.0000
  S   S255      1.0  0.43691  0.72408  0.99099  1.0000
  H   H751      1.0  0.35026  0.67822  0.12156  1.0000
  S   S256      1.0  0.22450  0.84403  0.99087  1.0000
  S   S257      1.0  0.14010  0.96962  0.17378  1.0000
  S   S258      1.0  0.38971  0.87175  0.22465  1.0000
  Fe  Fe127     1.0  0.07985  0.95110  0.19789  1.0000
  S   S259      1.0  0.11490  0.92308  0.19351  1.0000
  H   H752      1.0  0.19108  0.72626  0.18768  1.0000
  Fe  Fe128     1.0  0.13357  0.95128  0.19711  1.0000
  S   S260      1.0  0.19198  0.81289  0.98069  1.0000
  Fe  Fe129     1.0  0.11805  0.94392  0.17055  1.0000
  S   S261      1.0  0.13123  0.92853  0.14994  1.0000
  H   H753      1.0  0.14407  0.80179  0.98330  1.0000
  S   S262      1.0  0.08135  0.96956  0.17460  1.0000
  Fe  Fe130     1.0  0.12612  0.80290  0.10113  1.0000
  S   S263      1.0  0.09135  0.80498  0.11816  1.0000
  S   S264      1.0  0.12257  0.82690  0.07923  1.0000
  Fe  Fe131     1.0  0.15614  0.76560  0.12136  1.0000
  S   S265      1.0  0.12374  0.76408  0.13979  1.0000
  S   S266      1.0  0.19432  0.74352  0.12371  1.0000
  Fe  Fe132     1.0  0.10196  0.76373  0.12319  1.0000
  S   S267      1.0  0.07087  0.74211  0.12896  1.0000
  Fe  Fe133     1.0  0.11589  0.80535  0.13320  1.0000
  S   S268      1.0  0.10367  0.82621  0.15172  1.0000
  S   S269      1.0  0.13517  0.76152  0.10511  1.0000
  S   S270      1.0  0.14988  0.80700  0.11576  1.0000
  S   S271      1.0  0.23689  0.75689  0.17592  1.0000
  C   C756      1.0  0.06301  0.72904  0.11626  1.0000
  C   C757      1.0  0.07987  0.72381  0.10374  1.0000
  C   C758      1.0  0.04954  0.70652  0.09698  1.0000
  H   H754      1.0  0.01489  0.77515  0.10124  1.0000
  C   C759      1.0  0.03941  0.72309  0.11906  1.0000
  H   H755      1.0  0.33443  0.67571  0.14780  1.0000
  H   H756      1.0  0.25700  0.67535  0.21391  1.0000
  C   C760      1.0  0.20596  0.74687  0.13839  1.0000
  C   C761      1.0  0.23074  0.73657  0.13949  1.0000
  C   C762      1.0  0.24051  0.73947  0.15095  1.0000
  C   C763      1.0  0.22546  0.75265  0.16140  1.0000
  C   C764      1.0  0.20060  0.76263  0.16043  1.0000
  C   C765      1.0  0.19085  0.75976  0.14896  1.0000
  C   C766      1.0  0.38939  0.67865  0.15994  1.0000
  H   H757      1.0  0.08630  0.70836  0.08452  1.0000
  H   H758      1.0  0.18884  0.77260  0.16857  1.0000
  H   H759      1.0  0.17165  0.76742  0.14831  1.0000
  H   H760      1.0  0.15975  0.89491  0.01762  1.0000
  H   H761      1.0  0.09814  0.72822  0.10155  1.0000
  Fe  Fe134     1.0  0.19250  0.82481  0.00117  1.0000
  Fe  Fe135     1.0  0.40372  0.83097  0.22667  1.0000
  H   H762      1.0  0.39327  0.71173  0.01030  1.0000
  C   C767      1.0  0.12119  0.90155  0.14977  1.0000
  C   C768      1.0  0.12982  0.89015  0.13764  1.0000
  C   C769      1.0  0.12368  0.86749  0.13779  1.0000
  C   C770      1.0  0.10900  0.85612  0.15013  1.0000
  C   C771      1.0  0.09976  0.86795  0.16205  1.0000
  C   C772      1.0  0.10578  0.89062  0.16187  1.0000
  H   H763      1.0  0.14161  0.89864  0.12820  1.0000
  H   H764      1.0  0.13069  0.85857  0.12852  1.0000
  H   H765      1.0  0.08827  0.85930  0.17158  1.0000
  H   H766      1.0  0.09885  0.89936  0.17122  1.0000
  Fe  Fe136     1.0  0.19513  0.87796  0.98647  1.0000
  H   H767      1.0  0.02512  0.66837  0.15373  1.0000
  S   S272      1.0  0.29763  0.70456  0.17005  1.0000
  Fe  Fe137     1.0  0.31282  0.73446  0.19837  1.0000
  C   C773      1.0  0.05791  0.66895  0.13704  1.0000
  C   C774      1.0  0.07315  0.71249  0.09416  1.0000
  H   H768      1.0  0.11725  0.77342  0.07182  1.0000
  C   C775      1.0  0.35950  0.77038  0.20103  1.0000
  C   C776      1.0  0.24582  0.66498  0.18007  1.0000
  C   C777      1.0  0.14284  0.83261  0.18126  1.0000
  H   H769      1.0  0.08636  0.79540  0.08975  1.0000
  C   C778      1.0  0.34313  0.76610  0.21426  1.0000
  H   H770      1.0  0.39015  0.78789  0.18917  1.0000
  H   H771      1.0  0.39525  0.70470  0.12420  1.0000
  H   H772      1.0  0.20236  0.86871  0.01657  1.0000
  H   H773      1.0  0.18100  0.67140  0.20456  1.0000
  C   C779      1.0  0.38456  0.69562  0.14742  1.0000
  H   H774      1.0  0.14424  0.90524  0.03413  1.0000
  C   C780      1.0  0.49227  0.87069  0.21836  1.0000
  C   C781      1.0  0.16279  0.89915  0.02765  1.0000
  H   H775      1.0  0.18331  0.71155  0.20648  1.0000
  S   S273      1.0  0.09835  0.97759  0.20325  1.0000
  H   H776      1.0  0.14012  0.86314  0.19159  1.0000
  H   H777      1.0  0.34246  0.83386  0.18658  1.0000
  C   C782      1.0  0.17311  0.80473  0.03807  1.0000
  C   C783      1.0  0.15332  0.82480  0.03728  1.0000
  C   C784      1.0  0.13762  0.83105  0.04999  1.0000
  C   C785      1.0  0.14164  0.81733  0.06358  1.0000
  C   C786      1.0  0.16099  0.79681  0.06442  1.0000
  C   C787      1.0  0.17662  0.79048  0.05166  1.0000
  H   H778      1.0  0.15016  0.83563  0.02690  1.0000
  H   H779      1.0  0.12252  0.84680  0.04928  1.0000
  H   H780      1.0  0.16422  0.78610  0.07487  1.0000
  H   H781      1.0  0.19187  0.77486  0.05234  1.0000
  C   C788      1.0  0.42130  0.69998  0.99264  1.0000
  C   C789      1.0  0.23360  0.68756  0.18401  1.0000
  H   H782      1.0  0.47087  0.66279  0.12711  1.0000
  C   C790      1.0  0.42957  0.68273  0.98349  1.0000
  H   H783      1.0  0.15466  0.88184  0.05634  1.0000
  H   H784      1.0  0.35766  0.76346  0.19190  1.0000
  C   C791      1.0  0.19491  0.95943  0.99551  1.0000
  C   C792      1.0  0.10220  0.77750  0.06549  1.0000
  C   C793      1.0  0.17161  0.95081  0.97992  1.0000
  N   N66       1.0  0.17716  0.87747  0.03566  1.0000
  C   C794      1.0  0.18843  0.94234  0.98935  1.0000
  H   H785      1.0  0.02629  0.72714  0.12873  1.0000
  C   C795      1.0  0.38676  0.67950  0.00481  1.0000
  S   S274      1.0  0.04585  0.93932  0.21270  1.0000
  C   C796      1.0  0.37992  0.79394  0.21118  1.0000
  C   C797      1.0  0.19734  0.86385  0.02826  1.0000
  C   C798      1.0  0.21141  0.84309  0.03559  1.0000
  C   C799      1.0  0.17084  0.87132  0.05043  1.0000
  H   H786      1.0  0.13084  0.82315  0.19019  1.0000
  N   N67       1.0  0.07811  0.77684  0.07523  1.0000
  C   C800      1.0  0.06084  0.76674  0.07201  1.0000
  C   C801      1.0  0.07279  0.78713  0.08732  1.0000
  C   C802      1.0  0.41639  0.66392  0.98501  1.0000
  C   C803      1.0  0.04997  0.78675  0.09682  1.0000
  H   H787      1.0  0.35041  0.85449  0.20441  1.0000
  H   H788      1.0  0.43708  0.85178  0.19695  1.0000
  H   H789      1.0  0.06498  0.75854  0.06245  1.0000
  H   H790      1.0  0.06282  0.65840  0.98212  1.0000
  H   H791      1.0  0.13794  0.97264  0.12684  1.0000
  H   H792      1.0  0.48416  0.93161  0.20302  1.0000
  H   H793      1.0  0.10682  0.76358  0.05841  1.0000
  H   H794      1.0  0.48265  0.70152  0.11198  1.0000
  S   S275      1.0  0.40147  0.81335  0.20846  1.0000
  H   H795      1.0  0.34590  0.68210  0.98623  1.0000
  C   C804      1.0  0.39531  0.66190  0.99591  1.0000
  S   S276      1.0  0.35966  0.72095  0.14812  1.0000
  C   C805      1.0  0.41706  0.67010  0.13290  1.0000
  C   C806      1.0  0.42129  0.65271  0.14540  1.0000
  H   H796      1.0  0.30899  0.80933  0.19366  1.0000
  C   C807      1.0  0.48678  0.69521  0.12281  1.0000
  C   C808      1.0  0.33501  0.84482  0.20735  1.0000
  N   N68       1.0  0.21070  0.68968  0.19280  1.0000
  H   H797      1.0  0.21214  0.72195  0.19985  1.0000
  N   N69       1.0  0.00409  0.66874  0.01167  1.0000
  C   C809      1.0  0.30250  0.82947  0.22501  1.0000
  C   C810      1.0  0.47222  0.86312  0.18739  1.0000
  C   C811      1.0  0.47989  0.89468  0.21382  1.0000
  C   C812      1.0  0.35734  0.66221  0.12914  1.0000
  C   C813      1.0  0.46269  0.82491  0.18553  1.0000
  S   S277      1.0  0.04182  0.69236  0.08472  1.0000
  Fe  Fe138     1.0  0.27545  0.73729  0.17945  1.0000
  H   H798      1.0  0.02446  0.75732  0.07894  1.0000
  Fe  Fe139     1.0  0.33078  0.72079  0.16871  1.0000
  H   H799      1.0  0.45121  0.65894  0.04146  1.0000
  H   H800      1.0  0.08777  0.66714  0.11870  1.0000
  C   C814      1.0  0.29772  0.81749  0.21515  1.0000
  H   H801      1.0  0.10211  0.79612  0.05857  1.0000
  S   S278      1.0  0.20219  0.91079  0.99366  1.0000
  C   C815      1.0  0.37785  0.78426  0.19951  1.0000
  C   C816      1.0  0.45550  0.84710  0.19056  1.0000
  H   H802      1.0  0.25974  0.73187  0.15154  1.0000
  Fe  Fe140     1.0  0.00675  0.67643  0.09054  1.0000
  C   C817      1.0  0.07029  0.66150  0.12398  1.0000
  H   H803      1.0  0.04664  0.69968  0.98869  1.0000
  C   C818      1.0  0.03776  0.76618  0.08124  1.0000
  H   H804      1.0  0.34133  0.65847  0.17199  1.0000
  H   H805      1.0  0.37040  0.67816  0.01320  1.0000
  H   H806      1.0  0.37880  0.68178  0.17040  1.0000
  H   H807      1.0  0.26441  0.66315  0.17361  1.0000
  C   C819      1.0  0.03754  0.68433  0.99433  1.0000
  C   C820      1.0  0.02424  0.96288  0.22040  1.0000
  C   C821      1.0  0.36398  0.78909  0.22450  1.0000
  C   C822      1.0  0.03508  0.66238  0.14373  1.0000
  H   H808      1.0  0.09754  0.98377  0.14258  1.0000
  H   H809      1.0  0.46148  0.66346  0.00894  1.0000
  H   H810      1.0  0.44988  0.81229  0.18803  1.0000
  C   C823      1.0  0.39980  0.69837  0.00324  1.0000
  H   H811      1.0  0.17311  0.91458  0.02441  1.0000
  N   N70       1.0  0.16665  0.83530  0.15703  1.0000
  C   C824      1.0  0.15246  0.82289  0.16862  1.0000
  C   C825      1.0  0.17224  0.85704  0.15780  1.0000
  S   S279      1.0  0.30811  0.75555  0.17611  1.0000
  C   C826      1.0  0.16289  0.86732  0.17025  1.0000
  C   C827      1.0  0.17643  0.82493  0.14384  1.0000
  H   H812      1.0  0.14767  0.80587  0.16791  1.0000
  H   H813      1.0  0.18328  0.86700  0.14857  1.0000
  H   H814      1.0  0.16644  0.88512  0.17056  1.0000
  H   H815      1.0  0.16386  0.81364  0.14246  1.0000
  H   H816      1.0  0.17775  0.83974  0.13405  1.0000
  H   H817      1.0  0.19505  0.81315  0.14438  1.0000
  C   C828      1.0  0.39889  0.69159  0.13393  1.0000
  S   S280      1.0  0.16331  0.94068  0.21054  1.0000
  C   C829      1.0  0.19902  0.66993  0.19744  1.0000
  S   S281      1.0  0.16323  0.85895  0.99788  1.0000
  H   H818      1.0  0.20788  0.95302  0.00285  1.0000
  H   H819      1.0  0.01437  0.70759  0.11167  1.0000
  H   H820      1.0  0.06567  0.68040  0.14167  1.0000
  N   N71       1.0  0.32075  0.84319  0.22098  1.0000
  C   C830      1.0  0.18459  0.85074  0.05812  1.0000
  C   C831      1.0  0.20492  0.83649  0.05061  1.0000
  Fe  Fe141     1.0  0.30284  0.68720  0.19271  1.0000
  H   H821      1.0  0.21511  0.81989  0.05636  1.0000
  H   H822      1.0  0.08463  0.65385  0.09730  1.0000
  S   S282      1.0  0.27826  0.71876  0.20235  1.0000
  H   H823      1.0  0.24250  0.72660  0.13133  1.0000
  C   C832      1.0  0.34568  0.77520  0.22603  1.0000
  H   H824      1.0  0.13418  0.76185  0.98300  1.0000
  H   H825      1.0  0.46640  0.88029  0.19139  1.0000
  H   H826      1.0  0.42713  0.66670  0.12240  1.0000
  H   H827      1.0  0.48192  0.85640  0.22385  1.0000
  C   C833      1.0  0.18614  0.96190  0.22523  1.0000
  C   C834      1.0  0.33062  0.83319  0.19721  1.0000
  H   H828      1.0  0.49223  0.80194  0.17327  1.0000
  C   C835      1.0  0.48032  0.67335  0.13124  1.0000
  C   C836      1.0  0.03240  0.77615  0.09375  1.0000
  H   H829      1.0  0.28398  0.80576  0.21850  1.0000
  S   S283      1.0  0.44730  0.90237  0.21728  1.0000
  C   C837      1.0  0.16863  0.96572  0.21640  1.0000
  C   C838      1.0  0.04667  0.66112  0.99065  1.0000
  C   C839      1.0  0.01617  0.68781  0.00498  1.0000
  C   C840      1.0  0.31183  0.81947  0.20116  1.0000
  C   C841      1.0  0.25430  0.65668  0.21546  1.0000
  H   H830      1.0  0.24272  0.70328  0.18026  1.0000
  H   H831      1.0  0.41241  0.65700  0.05951  1.0000
  C   C842      1.0  0.40776  0.65730  0.15893  1.0000
  C   C843      1.0  0.19858  0.71350  0.19693  1.0000
  C   C844      1.0  0.48619  0.66500  0.14499  1.0000
  H   H832      1.0  0.36782  0.71766  0.98126  1.0000
  H   H833      1.0  0.04623  0.79406  0.10670  1.0000
  C   C845      1.0  0.34843  0.66068  0.14404  1.0000
  H   H834      1.0  0.00919  0.70595  0.00774  1.0000
  C   C846      1.0  0.48639  0.81909  0.17731  1.0000
  C   C847      1.0  0.43668  0.65184  0.03914  1.0000
  H   H835      1.0  0.33273  0.87226  0.22639  1.0000
  Fe  Fe142     1.0  0.37678  0.86331  0.24870  1.0000
  S   S284      1.0  0.38818  0.82221  0.25045  1.0000
  S   S285      1.0  0.33801  0.87767  0.25971  1.0000
  N   N72       1.0  0.15435  0.94303  0.41434  1.0000
  H   H836      1.0  0.25593  0.66081  0.36866  1.0000
  H   H837      1.0  0.46567  0.85046  0.26095  1.0000
  C   C848      1.0  0.37183  0.84814  0.30143  1.0000
  H   H838      1.0  0.45628  0.89528  0.25083  1.0000
  C   C849      1.0  0.45555  0.80364  0.28451  1.0000
  H   H839      1.0  0.42070  0.76834  0.29712  1.0000
  C   C850      1.0  0.36585  0.88366  0.39052  1.0000
  H   H840      1.0  0.10078  0.90431  0.24421  1.0000
  H   H841      1.0  0.36755  0.84167  0.28115  1.0000
  H   H842      1.0  0.05676  0.86478  0.45275  1.0000
  C   C851      1.0  0.47431  0.90812  0.40943  1.0000
  C   C852      1.0  0.38171  0.83801  0.31395  1.0000
  C   C853      1.0  0.47372  0.88306  0.41409  1.0000
  H   H843      1.0  0.99875  0.93897  0.23211  1.0000
  Fe  Fe143     1.0  0.34970  0.92426  0.44063  1.0000
  C   C854      1.0  0.25702  0.95922  0.42687  1.0000
  S   S286      1.0  0.44485  0.87062  0.33044  1.0000
  Fe  Fe144     1.0  0.41290  0.86708  0.34933  1.0000
  S   S287      1.0  0.42819  0.82824  0.35897  1.0000
  S   S288      1.0  0.37142  0.87416  0.35034  1.0000
  Fe  Fe145     1.0  0.44604  0.84520  0.37144  1.0000
  S   S289      1.0  0.44056  0.83406  0.39581  1.0000
  S   S290      1.0  0.42931  0.88409  0.36264  1.0000
  H   H844      1.0  0.47909  0.76765  0.28603  1.0000
  C   C855      1.0  0.25691  0.82361  0.45390  1.0000
  S   S291      1.0  0.18693  0.88821  0.43904  1.0000
  H   H845      1.0  0.28383  0.93076  0.29317  1.0000
  C   C856      1.0  0.37994  0.81488  0.39488  1.0000
  H   H846      1.0  0.31894  0.67746  0.46518  1.0000
  H   H847      1.0  0.41369  0.98337  0.45244  1.0000
  C   C857      1.0  0.45304  0.82503  0.30406  1.0000
  H   H848      1.0  0.45816  0.94468  0.41345  1.0000
  C   C858      1.0  0.44635  0.82453  0.29094  1.0000
  Fe  Fe146     1.0  0.30153  0.76149  0.39178  1.0000
  S   S292      1.0  0.28291  0.77230  0.41331  1.0000
  S   S293      1.0  0.33559  0.77226  0.37626  1.0000
  Fe  Fe147     1.0  0.27069  0.72182  0.39551  1.0000
  S   S294      1.0  0.24989  0.72923  0.41723  1.0000
  S   S295      1.0  0.26735  0.69149  0.38479  1.0000
  Fe  Fe148     1.0  0.24794  0.76930  0.40713  1.0000
  S   S296      1.0  0.20947  0.79183  0.41219  1.0000
  Fe  Fe149     1.0  0.28640  0.73149  0.42165  1.0000
  S   S297      1.0  0.29497  0.71241  0.44360  1.0000
  S   S298      1.0  0.26618  0.76182  0.38483  1.0000
  S   S299      1.0  0.30757  0.72069  0.40078  1.0000
  Fe  Fe150     1.0  0.46062  0.83244  0.34080  1.0000
  H   H849      1.0  0.20361  0.80414  0.45648  1.0000
  C   C859      1.0  0.05167  0.86833  0.46368  1.0000
  H   H850      1.0  0.36724  0.80178  0.40020  1.0000
  S   S300      1.0  0.37886  0.92836  0.42049  1.0000
  Fe  Fe151     1.0  0.29691  0.94474  0.45386  1.0000
  S   S301      1.0  0.30062  0.92217  0.47596  1.0000
  C   C860      1.0  0.11635  0.93888  0.43141  1.0000
  S   S302      1.0  0.31353  0.91302  0.44221  1.0000
  H   H851      1.0  0.29194  0.82720  0.23599  1.0000
  S   S303      1.0  0.48108  0.84382  0.35469  1.0000
  C   C861      1.0  0.47531  0.88580  0.25105  1.0000
  H   H852      1.0  0.29350  0.80132  0.44985  1.0000
  H   H853      1.0  0.16270  0.75522  0.37774  1.0000
  Fe  Fe152     1.0  0.46360  0.88210  0.34532  1.0000
  H   H854      1.0  0.36552  0.79626  0.23358  1.0000
  S   S304      1.0  0.44663  0.80015  0.26894  1.0000
  C   C862      1.0  0.13945  0.92842  0.42406  1.0000
  C   C863      1.0  0.21613  0.66454  0.37320  1.0000
  H   H855      1.0  0.38444  0.65923  0.41538  1.0000
  C   C864      1.0  0.37688  0.68323  0.44621  1.0000
  C   C865      1.0  0.37019  0.70150  0.43448  1.0000
  C   C866      1.0  0.34509  0.71076  0.43365  1.0000
  C   C867      1.0  0.32654  0.70204  0.44468  1.0000
  C   C868      1.0  0.33321  0.68420  0.45658  1.0000
  H   H856      1.0  0.32142  0.94294  0.27679  1.0000
  H   H857      1.0  0.38448  0.70828  0.42591  1.0000
  H   H858      1.0  0.34013  0.72459  0.42446  1.0000
  S   S305      1.0  0.35798  0.90009  0.46143  1.0000
  H   H859      1.0  0.39781  0.80822  0.39877  1.0000
  H   H860      1.0  0.24562  0.74439  0.45077  1.0000
  H   H861      1.0  0.43371  0.94131  0.44422  1.0000
  C   C869      1.0  0.22433  0.72837  0.35467  1.0000
  N   N73       1.0  0.24000  0.78250  0.45217  1.0000
  C   C870      1.0  0.17897  0.93193  0.40718  1.0000
  H   H862      1.0  0.18363  0.94188  0.39583  1.0000
  C   C871      1.0  0.23880  0.68516  0.38381  1.0000
  C   C872      1.0  0.21639  0.69591  0.39166  1.0000
  C   C873      1.0  0.19389  0.69134  0.39005  1.0000
  C   C874      1.0  0.46918  0.80483  0.31055  1.0000
  H   H863      1.0  0.08966  0.86351  0.46620  1.0000
  H   H864      1.0  0.21639  0.70792  0.39883  1.0000
  H   H865      1.0  0.17655  0.70007  0.39593  1.0000
  C   C875      1.0  0.19390  0.86084  0.43207  1.0000
  C   C876      1.0  0.17638  0.84573  0.43520  1.0000
  C   C877      1.0  0.18153  0.82453  0.42911  1.0000
  C   C878      1.0  0.20450  0.81783  0.42022  1.0000
  C   C879      1.0  0.22238  0.83254  0.41741  1.0000
  C   C880      1.0  0.21688  0.85429  0.42311  1.0000
  H   H866      1.0  0.15852  0.85075  0.44196  1.0000
  H   H867      1.0  0.16757  0.81332  0.43124  1.0000
  H   H868      1.0  0.24008  0.82762  0.41046  1.0000
  H   H869      1.0  0.23050  0.86594  0.42062  1.0000
  H   H870      1.0  0.21396  0.78160  0.37821  1.0000
  H   H871      1.0  0.33312  0.77185  0.23629  1.0000
  H   H872      1.0  0.16939  0.96897  0.45562  1.0000
  H   H873      1.0  0.24134  0.74614  0.36589  1.0000
  H   H874      1.0  0.38361  0.81476  0.38309  1.0000
  C   C881      1.0  0.42516  0.85970  0.40381  1.0000
  C   C882      1.0  0.42946  0.88320  0.39688  1.0000
  C   C883      1.0  0.41520  0.90405  0.40218  1.0000
  C   C884      1.0  0.39699  0.90153  0.41473  1.0000
  C   C885      1.0  0.39370  0.87794  0.42230  1.0000
  C   C886      1.0  0.40778  0.85699  0.41680  1.0000
  H   H875      1.0  0.44403  0.88534  0.38746  1.0000
  H   H876      1.0  0.41824  0.92221  0.39648  1.0000
  H   H877      1.0  0.37990  0.87588  0.43214  1.0000
  H   H878      1.0  0.40467  0.83878  0.42235  1.0000
  C   C887      1.0  0.35985  0.84653  0.35716  1.0000
  C   C888      1.0  0.33705  0.84602  0.36684  1.0000
  C   C889      1.0  0.32894  0.82343  0.37284  1.0000
  C   C890      1.0  0.34358  0.80145  0.36900  1.0000
  C   C891      1.0  0.36599  0.80225  0.35911  1.0000
  C   C892      1.0  0.37400  0.82461  0.35323  1.0000
  H   H879      1.0  0.32592  0.86296  0.36990  1.0000
  H   H880      1.0  0.31156  0.82300  0.38043  1.0000
  H   H881      1.0  0.37739  0.78535  0.35610  1.0000
  H   H882      1.0  0.39130  0.82486  0.34564  1.0000
  H   H883      1.0  0.39888  0.76194  0.31392  1.0000
  C   C893      1.0  0.37524  0.83393  0.29091  1.0000
  H   H884      1.0  0.34103  0.84194  0.23705  1.0000
  H   H885      1.0  0.38799  0.85736  0.37774  1.0000
  H   H886      1.0  0.27461  0.95346  0.25820  1.0000
  H   H887      1.0  0.42700  0.77220  0.31359  1.0000
  C   C894      1.0  0.22103  0.92495  0.44971  1.0000
  H   H888      1.0  0.02924  0.65469  0.38299  1.0000
  C   C895      1.0  0.39488  0.81365  0.31577  1.0000
  H   H889      1.0  0.49123  0.76887  0.30866  1.0000
  H   H890      1.0  0.40268  0.80585  0.32546  1.0000
  C   C896      1.0  0.35832  0.67463  0.45728  1.0000
  C   C897      1.0  0.27376  0.80216  0.45112  1.0000
  C   C898      1.0  0.45677  0.87537  0.42641  1.0000
  C   C899      1.0  0.34387  0.86642  0.41385  1.0000
  H   H891      1.0  0.23084  0.91323  0.44197  1.0000
  H   H892      1.0  0.24188  0.71993  0.34876  1.0000
  H   H893      1.0  0.27816  0.76500  0.44812  1.0000
  Fe  Fe153     1.0  0.42423  0.82795  0.25385  1.0000
  H   H894      1.0  0.27282  0.94460  0.42846  1.0000
  H   H895      1.0  0.49073  0.91813  0.24042  1.0000
  C   C900      1.0  0.22337  0.80342  0.45498  1.0000
  C   C901      1.0  0.07043  0.95482  0.24087  1.0000
  H   H896      1.0  0.45580  0.85598  0.42989  1.0000
  C   C902      1.0  0.38860  0.80967  0.29305  1.0000
  H   H897      1.0  0.44560  0.84087  0.30919  1.0000
  H   H898      1.0  0.40756  0.92838  0.44396  1.0000
  H   H899      1.0  0.43363  0.83990  0.28609  1.0000
  C   C903      1.0  0.32733  0.90944  0.25411  1.0000
  C   C904      1.0  0.34369  0.92452  0.24563  1.0000
  C   C905      1.0  0.33520  0.95003  0.24182  1.0000
  H   H900      1.0  0.09057  0.97286  0.43427  1.0000
  C   C906      1.0  0.29382  0.94546  0.25463  1.0000
  C   C907      1.0  0.30235  0.91991  0.25854  1.0000
  C   C908      1.0  0.23155  0.82421  0.45597  1.0000
  H   H901      1.0  0.22394  0.76543  0.44042  1.0000
  H   H902      1.0  0.36328  0.66073  0.46643  1.0000
  C   C909      1.0  0.00271  0.95732  0.23010  1.0000
  H   H903      1.0  0.08783  0.91681  0.22798  1.0000
  H   H904      1.0  0.20957  0.75523  0.39249  1.0000
  C   C910      1.0  0.30842  0.95625  0.28267  1.0000
  H   H905      1.0  0.19171  0.94207  0.43781  1.0000
  H   H906      1.0  0.10468  0.92720  0.43916  1.0000
  S   S306      1.0  0.13554  0.90676  0.47473  1.0000
  Fe  Fe154     1.0  0.32019  0.89150  0.46408  1.0000
  H   H907      1.0  0.05587  0.94603  0.24008  1.0000
  C   C911      1.0  0.20215  0.76753  0.38307  1.0000
  C   C912      1.0  0.23862  0.66922  0.37474  1.0000
  H   H908      1.0  0.21554  0.75709  0.45995  1.0000
  C   C913      1.0  0.22389  0.74324  0.36442  1.0000
  H   H909      1.0  0.13221  0.94448  0.23805  1.0000
  H   H910      1.0  0.48605  0.86964  0.40802  1.0000
  C   C914      1.0  0.44050  0.89295  0.43390  1.0000
  H   H911      1.0  0.34314  0.90539  0.40604  1.0000
  H   H912      1.0  0.20226  0.71111  0.34612  1.0000
  C   C915      1.0  0.26493  0.78164  0.45026  1.0000
  C   C916      1.0  0.11302  0.95399  0.23969  1.0000
  S   S307      1.0  0.00389  0.87050  0.46109  1.0000
  H   H913      1.0  0.18335  0.77757  0.38722  1.0000
  C   C917      1.0  0.47188  0.78384  0.29092  1.0000
  H   H914      1.0  0.33213  0.86876  0.42424  1.0000
  C   C918      1.0  0.12381  0.97920  0.41884  1.0000
  N   N74       1.0  0.39838  0.79993  0.30532  1.0000
  H   H915      1.0  0.21615  0.65271  0.36591  1.0000
  C   C919      1.0  0.19367  0.67590  0.38069  1.0000
  S   S308      1.0  0.20939  0.98228  0.39884  1.0000
  C   C920      1.0  0.31034  0.96062  0.24641  1.0000
  C   C921      1.0  0.18650  0.95625  0.45734  1.0000
  H   H916      1.0  0.16262  0.72875  0.36078  1.0000
  C   C922      1.0  0.14687  0.96813  0.41177  1.0000
  H   H917      1.0  0.36152  0.86698  0.29990  1.0000
  H   H918      1.0  0.26344  0.83953  0.45484  1.0000
  Fe  Fe155     1.0  0.42594  0.87284  0.22999  1.0000
  H   H919      1.0  0.18018  0.91222  0.40692  1.0000
  H   H920      1.0  0.34937  0.82685  0.41883  1.0000
  N   N75       1.0  0.09474  0.94327  0.23820  1.0000
  S   S309      1.0  0.44105  0.83275  0.23013  1.0000
  H   H921      1.0  0.48852  0.88432  0.36876  1.0000
  H   H922      1.0  0.19323  0.93292  0.41310  1.0000
  C   C923      1.0  0.47874  0.78449  0.30377  1.0000
  H   H923      1.0  0.41649  0.95233  0.42954  1.0000
  C   C924      1.0  0.19898  0.94116  0.44738  1.0000
  S   S310      1.0  0.40853  0.67093  0.44639  1.0000
  Fe  Fe156     1.0  0.16755  0.88296  0.46245  1.0000
  H   H924      1.0  0.37916  0.84896  0.32221  1.0000
  H   H925      1.0  0.39144  0.79879  0.28475  1.0000
  S   S311      1.0  0.31698  0.85155  0.47146  1.0000
  H   H926      1.0  0.24771  0.91180  0.46366  1.0000
  C   C925      1.0  0.22459  0.98037  0.41308  1.0000
  H   H927      1.0  0.14538  0.90852  0.42621  1.0000
  C   C926      1.0  0.37534  0.85979  0.38781  1.0000
  N   N76       1.0  0.20192  0.75304  0.37241  1.0000
  S   S312      1.0  0.49038  0.90850  0.33864  1.0000
  H   H928      1.0  0.28960  0.90829  0.26506  1.0000
  H   H929      1.0  0.31025  0.65257  0.43697  1.0000
  H   H930      1.0  0.15870  0.97976  0.40417  1.0000
  C   C927      1.0  0.17982  0.73343  0.36140  1.0000
  S   S313      1.0  0.33255  0.95798  0.45036  1.0000
  H   H931      1.0  0.42707  0.88686  0.44331  1.0000
  H   H932      1.0  0.21828  0.84062  0.45842  1.0000
  C   C928      1.0  0.41181  0.77430  0.30761  1.0000
  C   C929      1.0  0.06402  0.97832  0.24441  1.0000
  S   S314      1.0  0.16495  0.67286  0.37784  1.0000
  C   C930      1.0  0.42395  0.93576  0.43714  1.0000
  H   H933      1.0  0.37121  0.89941  0.38259  1.0000
  S   S315      1.0  0.41165  0.86832  0.25405  1.0000
  S   S316      1.0  0.47793  0.80349  0.32712  1.0000
  N   N77       1.0  0.44091  0.91753  0.42912  1.0000
  Fe  Fe157     1.0  0.33791  0.93284  0.47142  1.0000
  C   C931      1.0  0.35372  0.84278  0.41074  1.0000
  N   N78       1.0  0.36899  0.83976  0.39776  1.0000
  C   C932      1.0  0.10849  0.96445  0.42872  1.0000
  C   C933      1.0  0.28724  0.94918  0.29199  1.0000
  C   C934      1.0  0.35000  0.88698  0.40363  1.0000
  C   C935      1.0  0.18005  0.74823  0.37106  1.0000
  H   H934      1.0  0.25167  0.94830  0.40807  1.0000
  H   H935      1.0  0.37923  0.96007  0.46031  1.0000
  C   C936      1.0  0.27028  0.96623  0.29949  1.0000
  H   H936      1.0  0.25345  0.96128  0.30652  1.0000
  C   C937      1.0  0.23085  0.76129  0.45075  1.0000
  H   H937      1.0  0.36298  0.91662  0.24216  1.0000
  C   C938      1.0  0.10732  0.97753  0.24311  1.0000
  S   S317      1.0  0.26168  0.97278  0.45155  1.0000
  C   C939      1.0  0.24500  0.96132  0.41533  1.0000
  C   C940      1.0  0.45770  0.92521  0.41716  1.0000
  C   C941      1.0  0.48075  0.86047  0.25658  1.0000
  C   C942      1.0  0.10113  0.91883  0.23428  1.0000
  C   C943      1.0  0.07032  0.86781  0.47123  1.0000
  C   C944      1.0  0.40582  0.97872  0.46382  1.0000
  C   C945      1.0  0.20213  0.72344  0.35319  1.0000
  C   C946      1.0  0.19626  0.95480  0.46959  1.0000
  H   H938      1.0  0.34366  0.97347  0.26358  1.0000
  C   C947      1.0  0.24815  0.97571  0.43645  1.0000
  C   C948      1.0  0.02654  0.87240  0.47040  1.0000
  H   H939      1.0  0.33921  0.67484  0.41792  1.0000
  N   N79       1.0  0.21776  0.93865  0.47189  1.0000
  H   H940      1.0  0.30970  0.85920  0.24004  1.0000
  S   S318      1.0  0.15724  0.84679  0.47427  1.0000
  H   H941      1.0  0.19698  0.94364  0.22806  1.0000
  C   C949      1.0  0.23037  0.92412  0.46202  1.0000
  C   C950      1.0  0.32632  0.85466  0.23162  1.0000
  H   H942      1.0  0.20319  0.97867  0.23728  1.0000
  H   H943      1.0  0.34804  0.96166  0.23541  1.0000
  C   C951      1.0  0.38629  0.96558  0.46826  1.0000
  C   C952      1.0  0.34632  0.65776  0.42473  1.0000
  H   H944      1.0  0.48741  0.91426  0.39982  1.0000
  C   C953      1.0  0.18965  0.98168  0.23047  1.0000
  N   N80       1.0  0.31225  0.97981  0.28062  1.0000
  H   H945      1.0  0.21679  0.66445  0.22722  1.0000
  S   S319      1.0  0.19279  0.88311  0.47689  1.0000
  H   H946      1.0  0.11987  0.91599  0.22728  1.0000
  Fe  Fe158     1.0  0.16022  0.90209  0.49082  1.0000
  S   S320      1.0  0.14928  0.86727  0.50429  1.0000
  S   S321      1.0  0.16642  0.93007  0.50213  1.0000
  S   S322      1.0  0.08642  0.86578  0.49645  1.0000
  Fe  Fe159     1.0  0.18107  0.84843  0.48953  1.0000
  S   S323      1.0  0.21316  0.81891  0.49582  1.0000
  S   S324      1.0  0.24519  0.88910  0.58760  1.0000
  S   S325      1.0  0.35147  0.94311  0.48892  1.0000
  H   H947      1.0  0.33167  0.86800  0.49686  1.0000
  Fe  Fe160     1.0  0.21628  0.88679  0.60800  1.0000
  C   C954      1.0  0.30827  0.82950  0.63075  1.0000
  H   H948      1.0  0.37500  0.96888  0.55426  1.0000
  C   C955      1.0  0.42940  0.75285  0.69407  1.0000
  Fe  Fe161     1.0  0.23647  0.92977  0.58744  1.0000
  N   N81       1.0  0.44109  0.76350  0.70118  1.0000
  H   H949      1.0  0.01222  0.73035  0.72431  1.0000
  C   C956      1.0  0.41196  0.73839  0.70183  1.0000
  S   S326      1.0  0.21746  0.86178  0.62985  1.0000
  H   H950      1.0  0.15940  0.86688  0.62635  1.0000
  H   H951      1.0  0.19323  0.93018  0.54704  1.0000
  H   H952      1.0  0.21419  0.94699  0.49286  1.0000
  C   C957      1.0  0.07836  0.91646  0.63441  1.0000
  C   C958      1.0  0.43617  0.75980  0.71598  1.0000
  H   H953      1.0  0.20683  0.85989  0.53445  1.0000
  Fe  Fe162     1.0  0.33224  0.74328  0.67982  1.0000
  S   S327      1.0  0.29283  0.75822  0.67695  1.0000
  S   S328      1.0  0.35695  0.76812  0.68177  1.0000
  Fe  Fe163     1.0  0.33295  0.69390  0.67172  1.0000
  S   S329      1.0  0.29393  0.70521  0.66785  1.0000
  S   S330      1.0  0.99695  0.81916  0.70972  1.0000
  Fe  Fe164     1.0  0.30403  0.74191  0.65686  1.0000
  S   S331      1.0  0.29621  0.76170  0.63479  1.0000
  Fe  Fe165     1.0  0.28589  0.72031  0.68829  1.0000
  S   S332      1.0  0.25236  0.71480  0.70605  1.0000
  S   S333      1.0  0.34397  0.72917  0.65889  1.0000
  S   S334      1.0  0.32449  0.70671  0.69300  1.0000
  C   C959      1.0  0.06388  0.87154  0.48552  1.0000
  C   C960      1.0  0.35862  0.77628  0.69800  1.0000
  C   C961      1.0  0.37415  0.79265  0.69731  1.0000
  C   C962      1.0  0.37772  0.79815  0.71002  1.0000
  H   H954      1.0  0.38382  0.80080  0.68690  1.0000
  H   H955      1.0  0.22816  0.86615  0.49302  1.0000
  C   C963      1.0  0.23872  0.68941  0.70731  1.0000
  C   C964      1.0  0.26761  0.94881  0.60929  1.0000
  H   H956      1.0  0.16985  0.67283  0.67403  1.0000
  C   C965      1.0  0.22786  0.93715  0.48478  1.0000
  C   C966      1.0  0.44231  0.94852  0.67190  1.0000
  H   H957      1.0  0.20378  0.70394  0.68237  1.0000
  C   C967      1.0  0.01040  0.82220  0.50453  1.0000
  H   H958      1.0  0.26074  0.67915  0.68750  1.0000
  H   H959      1.0  0.44221  0.93886  0.66319  1.0000
  S   S335      1.0  0.35582  0.65565  0.67038  1.0000
  H   H960      1.0  0.02564  0.85565  0.69419  1.0000
  H   H961      1.0  0.33249  0.65755  0.62430  1.0000
  C   C968      1.0  0.38517  0.96706  0.49320  1.0000
  C   C969      1.0  0.09414  0.91296  0.62129  1.0000
  H   H962      1.0  0.08761  0.92028  0.61115  1.0000
  C   C970      1.0  0.45946  0.77853  0.69304  1.0000
  H   H963      1.0  0.40196  0.73084  0.69615  1.0000
  H   H964      1.0  0.30287  0.80464  0.47888  1.0000
  C   C971      1.0  0.21989  0.68359  0.71915  1.0000
  H   H965      1.0  0.28700  0.84992  0.66214  1.0000
  H   H966      1.0  0.15364  0.73132  0.71838  1.0000
  C   C972      1.0  0.23846  0.83337  0.63097  1.0000
  C   C973      1.0  0.24140  0.81927  0.64467  1.0000
  C   C974      1.0  0.25879  0.79704  0.64596  1.0000
  C   C975      1.0  0.27322  0.78872  0.63355  1.0000
  C   C976      1.0  0.27008  0.80270  0.61984  1.0000
  C   C977      1.0  0.25284  0.82507  0.61854  1.0000
  H   H967      1.0  0.23030  0.82561  0.65432  1.0000
  H   H968      1.0  0.26095  0.78634  0.65656  1.0000
  H   H969      1.0  0.28116  0.79630  0.61020  1.0000
  H   H970      1.0  0.25063  0.83579  0.60793  1.0000
  S   S336      1.0  0.18494  0.89128  0.59644  1.0000
  C   C978      1.0  0.10356  0.96915  0.62109  1.0000
  H   H971      1.0  0.31629  0.81203  0.67065  1.0000
  H   H972      1.0  0.34028  0.78501  0.65340  1.0000
  C   C979      1.0  0.24407  0.85299  0.48919  1.0000
  H   H973      1.0  0.46375  0.88344  0.71084  1.0000
  H   H974      1.0  0.25962  0.86827  0.64315  1.0000
  C   C980      1.0  0.40272  0.97407  0.66669  1.0000
  S   S337      1.0  0.09062  0.67137  0.71796  1.0000
  S   S338      1.0  0.02423  0.94169  0.66741  1.0000
  H   H975      1.0  0.03358  0.88024  0.50292  1.0000
  C   C981      1.0  0.24209  0.82835  0.49060  1.0000
  H   H976      1.0  0.19139  0.73350  0.69902  1.0000
  C   C982      1.0  0.00872  0.66295  0.72235  1.0000
  N   N82       1.0  0.42452  0.97200  0.67111  1.0000
  C   C983      1.0  0.00315  0.89087  0.69776  1.0000
  C   C984      1.0  0.43838  0.91591  0.71666  1.0000
  C   C985      1.0  0.32770  0.80175  0.64970  1.0000
  H   H977      1.0  0.16055  0.94016  0.62811  1.0000
  C   C986      1.0  0.27362  0.95627  0.62065  1.0000
  C   C987      1.0  0.40650  0.73492  0.71692  1.0000
  C   C988      1.0  0.03870  0.87691  0.49195  1.0000
  Fe  Fe166     1.0  0.04520  0.97057  0.66731  1.0000
  C   C989      1.0  0.18016  0.91609  0.51748  1.0000
  C   C990      1.0  0.18985  0.89077  0.52003  1.0000
  C   C991      1.0  0.20022  0.87962  0.53238  1.0000
  H   H978      1.0  0.16552  0.89479  0.62940  1.0000
  H   H979      1.0  0.18929  0.87962  0.51253  1.0000
  H   H980      1.0  0.07568  0.91156  0.65749  1.0000
  C   C992      1.0  0.02008  0.87714  0.48448  1.0000
  H   H981      1.0  0.09381  0.97647  0.61214  1.0000
  H   H982      1.0  0.34508  0.98438  0.57486  1.0000
  H   H983      1.0  0.12876  0.69932  0.72065  1.0000
  H   H984      1.0  0.28584  0.88327  0.63467  1.0000
  N   N83       1.0  0.29479  0.84420  0.64037  1.0000
  H   H985      1.0  0.26237  0.79172  0.48869  1.0000
  H   H986      1.0  0.45879  0.78364  0.68131  1.0000
  S   S339      1.0  0.26594  0.95297  0.58065  1.0000
  S   S340      1.0  0.21016  0.92700  0.60881  1.0000
  N   N84       1.0  0.27831  0.86037  0.52062  1.0000
  C   C993      1.0  0.27296  0.88186  0.52578  1.0000
  C   C994      1.0  0.29904  0.85541  0.51031  1.0000
  C   C995      1.0  0.28899  0.89870  0.52094  1.0000
  C   C996      1.0  0.31539  0.87191  0.50517  1.0000
  C   C997      1.0  0.31040  0.89360  0.51062  1.0000
  C   C998      1.0  0.26102  0.84321  0.52559  1.0000
  H   H987      1.0  0.25627  0.88605  0.53373  1.0000
  H   H988      1.0  0.30299  0.83870  0.50591  1.0000
  H   H989      1.0  0.28478  0.91564  0.52515  1.0000
  C   C999      1.0  0.43459  0.94164  0.71518  1.0000
  H   H990      1.0  0.38994  0.81054  0.70933  1.0000
  H   H991      1.0  0.24677  0.84832  0.51867  1.0000
  H   H992      1.0  0.27075  0.82391  0.52509  1.0000
  H   H993      1.0  0.25150  0.84364  0.53703  1.0000
  C   C1000     1.0  0.27774  0.86689  0.63549  1.0000
  H   H994      1.0  0.25665  0.93469  0.61166  1.0000
  H   H995      1.0  0.33463  0.79581  0.62780  1.0000
  C   C1001     1.0  0.34142  0.65668  0.64492  1.0000
  C   C1002     1.0  0.24638  0.67488  0.69667  1.0000
  H   H996      1.0  0.13115  0.89911  0.61096  1.0000
  C   C1003     1.0  0.47507  0.94208  0.69962  1.0000
  H   H997      1.0  0.32293  0.90658  0.50670  1.0000
  C   C1004     1.0  0.18719  0.70296  0.69068  1.0000
  H   H998      1.0  0.47839  0.76829  0.69440  1.0000
  Fe  Fe167     1.0  0.12643  0.87029  0.48752  1.0000
  C   C1005     1.0  0.08745  0.90804  0.64728  1.0000
  C   C1006     1.0  0.14113  0.94860  0.63006  1.0000
  H   H999      1.0  0.44996  0.97451  0.70573  1.0000
  H   H1000     1.0  0.43766  0.93649  0.68263  1.0000
  H   H1001     1.0  0.24463  0.94558  0.48162  1.0000
  C   C1007     1.0  0.10310  0.96098  0.64694  1.0000
  Fe  Fe168     1.0  0.18094  0.93163  0.59590  1.0000
  H   H1002     1.0  0.27363  0.86722  0.62473  1.0000
  H   H1003     1.0  0.00680  0.81649  0.49539  1.0000
  C   C1008     1.0  0.45299  0.95470  0.70680  1.0000
  C   C1009     1.0  0.20152  0.89367  0.54221  1.0000
  H   H1004     1.0  0.15737  0.87082  0.64440  1.0000
  C   C1010     1.0  0.37590  0.95972  0.48298  1.0000
  H   H1005     1.0  0.01756  0.90107  0.69208  1.0000
  H   H1006     1.0  0.14210  0.66990  0.70392  1.0000
  Fe  Fe169     1.0  0.99653  0.95719  0.68527  1.0000
  H   H1007     1.0  0.05829  0.79158  0.49694  1.0000
  H   H1008     1.0  0.03753  0.66541  0.70345  1.0000
  C   C1011     1.0  0.26695  0.86049  0.48329  1.0000
  H   H1009     1.0  0.20124  0.66580  0.67728  1.0000
  C   C1012     1.0  0.15914  0.71853  0.71094  1.0000
  C   C1013     1.0  0.34610  0.76593  0.71151  1.0000
  H   H1010     1.0  0.02269  0.84435  0.53648  1.0000
  C   C1014     1.0  0.28774  0.97466  0.61768  1.0000
  C   C1015     1.0  0.03872  0.82884  0.51722  1.0000
  H   H1011     1.0  0.33327  0.67592  0.64500  1.0000
  C   C1016     1.0  0.26357  0.81089  0.48732  1.0000
  N   N85       1.0  0.17386  0.68496  0.69232  1.0000
  H   H1012     1.0  0.40256  0.65559  0.64403  1.0000
  S   S341      1.0  0.14337  0.95593  0.60047  1.0000
  C   C1017     1.0  0.05488  0.81203  0.49487  1.0000
  Fe  Fe170     1.0  0.21314  0.89744  0.57590  1.0000
  C   C1018     1.0  0.18136  0.66723  0.68253  1.0000
  C   C1019     1.0  0.32479  0.80800  0.63529  1.0000
  H   H1013     1.0  0.43303  0.75593  0.68234  1.0000
  C   C1020     1.0  0.12842  0.95036  0.64428  1.0000
  H   H1014     1.0  0.13810  0.94307  0.65325  1.0000
  C   C1021     1.0  0.12862  0.95796  0.61844  1.0000
  H   H1015     1.0  0.05759  0.82863  0.51806  1.0000
  H   H1016     1.0  0.41734  0.95149  0.72052  1.0000
  H   H1017     1.0  0.39351  0.65369  0.62054  1.0000
  H   H1018     1.0  0.30581  0.83392  0.61958  1.0000
  C   C1022     1.0  0.14530  0.70052  0.71228  1.0000
  C   C1023     1.0  0.15295  0.68385  0.70279  1.0000
  H   H1019     1.0  0.05442  0.71491  0.71133  1.0000
  H   H1020     1.0  0.05938  0.92645  0.63455  1.0000
  C   C1024     1.0  0.46069  0.90325  0.70978  1.0000
  C   C1025     1.0  0.28646  0.81825  0.48167  1.0000
  H   H1021     1.0  0.45604  0.79595  0.69718  1.0000
  C   C1026     1.0  0.01905  0.83789  0.52763  1.0000
  H   H1022     1.0  0.39885  0.95875  0.66328  1.0000
  S   S342      1.0  0.08689  0.96159  0.66486  1.0000
  S   S343      1.0  0.20651  0.93833  0.57435  1.0000
  C   C1027     1.0  0.27567  0.95976  0.59494  1.0000
  C   C1028     1.0  0.31412  0.81695  0.65940  1.0000
  H   H1023     1.0  0.11929  0.89039  0.65686  1.0000
  H   H1024     1.0  0.07220  0.81802  0.49496  1.0000
  H   H1025     1.0  0.33405  0.75333  0.71217  1.0000
  H   H1026     1.0  0.17424  0.94991  0.52534  1.0000
  C   C1029     1.0  0.18161  0.93029  0.52723  1.0000
  C   C1030     1.0  0.15361  0.88070  0.63354  1.0000
  S   S344      1.0  0.21608  0.87870  0.55713  1.0000
  C   C1031     1.0  0.29763  0.83825  0.65452  1.0000
  C   C1032     1.0  0.19224  0.91912  0.53958  1.0000
  N   N86       1.0  0.03420  0.82143  0.50576  1.0000
  N   N87       1.0  0.12747  0.89249  0.63395  1.0000
  C   C1033     1.0  0.11222  0.89613  0.64685  1.0000
  C   C1034     1.0  0.11881  0.90096  0.62125  1.0000
  C   C1035     1.0  0.09080  0.97036  0.63527  1.0000
  H   H1027     1.0  0.26700  0.94806  0.63176  1.0000
  C   C1036     1.0  0.47887  0.91635  0.70118  1.0000
  H   H1028     1.0  0.46158  0.95145  0.67055  1.0000
  C   C1037     1.0  0.36555  0.78751  0.72356  1.0000
  H   H1029     1.0  0.23253  0.91762  0.49026  1.0000
  C   C1038     1.0  0.28807  0.84314  0.47922  1.0000
  H   H1030     1.0  0.99761  0.68075  0.71870  1.0000
  C   C1039     1.0  0.20910  0.66308  0.72045  1.0000
  S   S345      1.0  0.42594  0.83058  0.71947  1.0000
  H   H1031     1.0  0.05071  0.81942  0.48380  1.0000
  C   C1040     1.0  0.00777  0.86514  0.69905  1.0000
  C   C1041     1.0  0.18017  0.71988  0.70002  1.0000
  S   S346      1.0  0.49054  0.78561  0.71865  1.0000
  H   H1032     1.0  0.37736  0.96231  0.50457  1.0000
  C   C1042     1.0  0.04742  0.70505  0.72196  1.0000
  C   C1043     1.0  0.29039  0.97766  0.59195  1.0000
  C   C1044     1.0  0.23581  0.65434  0.69800  1.0000
  C   C1045     1.0  0.03138  0.65423  0.71385  1.0000
  H   H1033     1.0  0.07138  0.97842  0.63709  1.0000
  C   C1046     1.0  0.41869  0.74564  0.72407  1.0000
  H   H1034     1.0  0.38449  0.97164  0.52773  1.0000
  H   H1035     1.0  0.18630  0.96640  0.47738  1.0000
  Fe  Fe171     1.0  0.00337  0.97133  0.65260  1.0000
  H   H1036     1.0  0.00077  0.88068  0.48968  1.0000
  C   C1047     1.0  0.34948  0.77164  0.72424  1.0000
  S   S347      1.0  0.01958  0.98327  0.68689  1.0000
  H   H1037     1.0  0.26834  0.87952  0.48209  1.0000
  H   H1038     1.0  0.44553  0.76815  0.72159  1.0000
  S   S348      1.0  0.99935  0.95741  0.63350  1.0000
  H   H1039     1.0  0.39226  0.72463  0.72303  1.0000
  C   C1048     1.0  0.40463  0.98030  0.48875  1.0000
  C   C1049     1.0  0.99470  0.83894  0.52639  1.0000
  H   H1040     1.0  0.31678  0.65350  0.69572  1.0000
  H   H1041     1.0  0.28943  0.65216  0.71983  1.0000
  S   S349      1.0  0.41472  0.90016  0.72687  1.0000
  C   C1050     1.0  0.33765  0.78466  0.93596  1.0000
  Fe  Fe172     1.0  0.45534  0.88392  0.85549  1.0000
  S   S350      1.0  0.41467  0.89981  0.86008  1.0000
  S   S351      1.0  0.13746  0.67153  0.92287  1.0000
  Fe  Fe173     1.0  0.44549  0.83119  0.85840  1.0000
  S   S352      1.0  0.40458  0.84473  0.86273  1.0000
  S   S353      1.0  0.45436  0.78954  0.86142  1.0000
  Fe  Fe174     1.0  0.41232  0.87630  0.84474  1.0000
  S   S354      1.0  0.39267  0.88683  0.82569  1.0000
  Fe  Fe175     1.0  0.41255  0.86557  0.87745  1.0000
  S   S355      1.0  0.39747  0.85796  0.90150  1.0000
  S   S356      1.0  0.45319  0.86180  0.83944  1.0000
  S   S357      1.0  0.45349  0.85125  0.87363  1.0000
  Fe  Fe176     1.0  0.30489  0.68550  0.90166  1.0000
  H   H1042     1.0  0.48948  0.68410  0.91159  1.0000
  C   C1051     1.0  0.99931  0.80523  0.88514  1.0000
  Fe  Fe177     1.0  0.34106  0.72187  0.89323  1.0000
  S   S358      1.0  0.35863  0.70582  0.91270  1.0000
  S   S359      1.0  0.35079  0.75527  0.87672  1.0000
  H   H1043     1.0  0.18157  0.83835  0.93003  1.0000
  Fe  Fe178     1.0  0.31970  0.70472  0.92491  1.0000
  S   S360      1.0  0.30784  0.71545  0.94700  1.0000
  H   H1044     1.0  0.43535  0.88448  0.91380  1.0000
  S   S361      1.0  0.30203  0.72362  0.90579  1.0000
  H   H1045     1.0  0.06403  0.65401  0.74683  1.0000
  C   C1052     1.0  0.44398  0.90277  0.79339  1.0000
  H   H1046     1.0  0.33510  0.82161  0.93904  1.0000
  H   H1047     1.0  0.23232  0.67436  0.83677  1.0000
  H   H1048     1.0  0.35261  0.83666  0.91339  1.0000
  C   C1053     1.0  0.16151  0.97619  0.97663  1.0000
  H   H1049     1.0  0.33992  0.76342  0.73468  1.0000
  C   C1054     1.0  0.49283  0.95154  0.85520  1.0000
  S   S362      1.0  0.25102  0.82485  0.95113  1.0000
  C   C1055     1.0  0.24466  0.65664  0.83631  1.0000
  S   S363      1.0  0.19443  0.87089  0.96467  1.0000
  H   H1050     1.0  0.41402  0.74374  0.73577  1.0000
  H   H1051     1.0  0.07076  0.72551  0.89039  1.0000
  H   H1052     1.0  0.48175  0.84737  0.79008  1.0000
  S   S364      1.0  0.06195  0.77011  0.90051  1.0000
  Fe  Fe179     1.0  0.06946  0.74613  0.92180  1.0000
  S   S365      1.0  0.05196  0.75095  0.94463  1.0000
  Fe  Fe180     1.0  0.10318  0.69779  0.93120  1.0000
  S   S366      1.0  0.08797  0.69778  0.95480  1.0000
  H   H1053     1.0  0.20912  0.74613  0.96171  1.0000
  Fe  Fe181     1.0  0.05079  0.71062  0.94834  1.0000
  S   S367      1.0  0.01544  0.69990  0.96218  1.0000
  Fe  Fe182     1.0  0.09053  0.73790  0.94938  1.0000
  H   H1054     1.0  0.45385  0.89273  0.74741  1.0000
  S   S368      1.0  0.06565  0.70668  0.92513  1.0000
  S   S369      1.0  0.10824  0.73699  0.92617  1.0000
  C   C1056     1.0  0.11915  0.72067  0.88948  1.0000
  C   C1057     1.0  0.47605  0.93536  0.85876  1.0000
  H   H1055     1.0  0.21610  0.78898  0.95455  1.0000
  S   S370      1.0  0.47474  0.76196  0.92015  1.0000
  C   C1058     1.0  0.48192  0.93189  0.90312  1.0000
  S   S371      1.0  0.39705  0.84205  0.75178  1.0000
  C   C1059     1.0  0.46390  0.91721  0.90661  1.0000
  N   N88       1.0  0.35647  0.80215  0.90707  1.0000
  S   S372      1.0  0.43373  0.78898  0.74900  1.0000
  H   H1056     1.0  0.34196  0.74996  0.92940  1.0000
  Fe  Fe183     1.0  0.40190  0.81231  0.73902  1.0000
  S   S373      1.0  0.37099  0.79267  0.73978  1.0000
  Fe  Fe184     1.0  0.43113  0.82035  0.75994  1.0000
  S   S374      1.0  0.43606  0.81095  0.78316  1.0000
  H   H1057     1.0  0.24323  0.96997  0.97353  1.0000
  H   H1058     1.0  0.45499  0.86377  0.90268  1.0000
  C   C1060     1.0  0.11061  0.67368  0.87063  1.0000
  H   H1059     1.0  0.10831  0.73976  0.88953  1.0000
  H   H1060     1.0  0.39841  0.69990  0.93182  1.0000
  H   H1061     1.0  0.46917  0.85863  0.76622  1.0000
  H   H1062     1.0  0.47914  0.94784  0.90810  1.0000
  S   S375      1.0  0.48377  0.90828  0.85124  1.0000
  C   C1061     1.0  0.01401  0.70076  0.74282  1.0000
  Fe  Fe185     1.0  0.45763  0.80907  0.73042  1.0000
  H   H1063     1.0  0.14858  0.98258  0.96927  1.0000
  H   H1064     1.0  0.17467  0.73510  0.95397  1.0000
  S   S376      1.0  0.27019  0.67902  0.89590  1.0000
  C   C1062     1.0  0.43720  0.90871  0.77979  1.0000
  H   H1065     1.0  0.09565  0.65567  0.91768  1.0000
  H   H1066     1.0  0.19497  0.65839  0.72976  1.0000
  C   C1063     1.0  0.35029  0.81760  0.91684  1.0000
  C   C1064     1.0  0.00825  0.85876  0.73640  1.0000
  C   C1065     1.0  0.11354  0.77649  0.96575  1.0000
  H   H1067     1.0  0.47091  0.67477  0.89302  1.0000
  H   H1068     1.0  0.35829  0.76600  0.90366  1.0000
  H   H1069     1.0  0.04630  0.65549  0.95272  1.0000
  C   C1066     1.0  0.12759  0.77818  0.97552  1.0000
  C   C1067     1.0  0.19043  0.82729  0.93921  1.0000
  Fe  Fe186     1.0  0.42392  0.85860  0.73299  1.0000
  Fe  Fe187     1.0  0.47020  0.72819  0.97311  1.0000
  C   C1068     1.0  0.44710  0.88359  0.90290  1.0000
  C   C1069     1.0  0.12524  0.82199  0.96594  1.0000
  H   H1070     1.0  0.46541  0.87576  0.80764  1.0000
  H   H1071     1.0  0.42392  0.92553  0.77719  1.0000
  H   H1072     1.0  0.44600  0.68392  0.97522  1.0000
  H   H1073     1.0  0.43472  0.96183  0.88523  1.0000
  H   H1074     1.0  0.99412  0.89005  0.86110  1.0000
  C   C1070     1.0  0.34059  0.80915  0.93140  1.0000
  C   C1071     1.0  0.05288  0.67072  0.74193  1.0000
  C   C1072     1.0  0.34250  0.68895  0.97498  1.0000
  H   H1075     1.0  0.28180  0.73796  0.97147  1.0000
  S   S377      1.0  0.47640  0.71267  0.95306  1.0000
  C   C1073     1.0  0.39182  0.70395  0.94265  1.0000
  C   C1074     1.0  0.11070  0.82048  0.95634  1.0000
  C   C1075     1.0  0.10496  0.79774  0.95617  1.0000
  H   H1076     1.0  0.36262  0.68324  0.94775  1.0000
  C   C1076     1.0  0.03067  0.78311  0.89958  1.0000
  C   C1077     1.0  0.08488  0.67822  0.87219  1.0000
  H   H1077     1.0  0.10408  0.83689  0.94893  1.0000
  H   H1078     1.0  0.09405  0.79662  0.94862  1.0000
  C   C1078     1.0  0.07047  0.69706  0.87929  1.0000
  N   N89       1.0  0.44673  0.89325  0.77006  1.0000
  C   C1079     1.0  0.28998  0.74525  0.94811  1.0000
  C   C1080     1.0  0.28703  0.76307  0.93561  1.0000
  C   C1081     1.0  0.27495  0.78736  0.93673  1.0000
  C   C1082     1.0  0.26498  0.79386  0.95033  1.0000
  C   C1083     1.0  0.26697  0.77584  0.96286  1.0000
  C   C1084     1.0  0.27973  0.75166  0.96174  1.0000
  H   H1079     1.0  0.29477  0.75841  0.92505  1.0000
  H   H1080     1.0  0.27341  0.80120  0.92699  1.0000
  H   H1081     1.0  0.48877  0.87859  0.88322  1.0000
  H   H1082     1.0  0.26716  0.66136  0.85029  1.0000
  H   H1083     1.0  0.41906  0.72610  0.94076  1.0000
  C   C1085     1.0  0.26736  0.65415  0.88867  1.0000
  C   C1086     1.0  0.01213  0.66895  0.96640  1.0000
  H   H1084     1.0  0.32537  0.70340  0.97501  1.0000
  C   C1087     1.0  0.40334  0.71864  0.94764  1.0000
  H   H1085     1.0  0.07617  0.66688  0.86809  1.0000
  H   H1086     1.0  0.01717  0.77394  0.92254  1.0000
  C   C1088     1.0  0.46250  0.87143  0.77365  1.0000
  C   C1089     1.0  0.41575  0.82965  0.90823  1.0000
  C   C1090     1.0  0.42239  0.82508  0.92186  1.0000
  C   C1091     1.0  0.43995  0.80386  0.92605  1.0000
  C   C1092     1.0  0.45062  0.78723  0.91661  1.0000
  C   C1093     1.0  0.44284  0.79124  0.90342  1.0000
  C   C1094     1.0  0.42557  0.81229  0.89927  1.0000
  H   H1087     1.0  0.41485  0.83841  0.92889  1.0000
  H   H1088     1.0  0.44583  0.80082  0.93630  1.0000
  H   H1089     1.0  0.45073  0.77841  0.89613  1.0000
  H   H1090     1.0  0.42060  0.81540  0.88880  1.0000
  C   C1095     1.0  0.42656  0.77812  0.86518  1.0000
  C   C1096     1.0  0.42210  0.75848  0.87676  1.0000
  C   C1097     1.0  0.39928  0.75046  0.88016  1.0000
  C   C1098     1.0  0.38073  0.76234  0.87211  1.0000
  C   C1099     1.0  0.38539  0.78165  0.86048  1.0000
  C   C1100     1.0  0.40826  0.78926  0.85690  1.0000
  H   H1091     1.0  0.43586  0.75005  0.88343  1.0000
  H   H1092     1.0  0.39582  0.73558  0.88921  1.0000
  H   H1093     1.0  0.37102  0.79100  0.85435  1.0000
  H   H1094     1.0  0.41165  0.80405  0.84779  1.0000
  C   C1101     1.0  0.40394  0.86567  0.81385  1.0000
  C   C1102     1.0  0.41960  0.84334  0.81802  1.0000
  C   C1103     1.0  0.42936  0.82687  0.80845  1.0000
  C   C1104     1.0  0.42344  0.83247  0.79463  1.0000
  C   C1105     1.0  0.40749  0.85466  0.79043  1.0000
  C   C1106     1.0  0.39767  0.87121  0.80008  1.0000
  H   H1095     1.0  0.42404  0.83857  0.82871  1.0000
  H   H1096     1.0  0.44150  0.80964  0.81181  1.0000
  H   H1097     1.0  0.40270  0.85903  0.77982  1.0000
  H   H1098     1.0  0.38545  0.88843  0.79683  1.0000
  N   N90       1.0  0.10737  0.70654  0.88313  1.0000
  H   H1099     1.0  0.43588  0.91466  0.80129  1.0000
  C   C1107     1.0  0.02412  0.79440  0.88609  1.0000
  S   S378      1.0  0.45789  0.83873  0.74215  1.0000
  C   C1108     1.0  0.43863  0.89918  0.75611  1.0000
  H   H1100     1.0  0.14155  0.68360  0.87558  1.0000
  C   C1109     1.0  0.36577  0.81123  0.89174  1.0000
  H   H1101     1.0  0.38450  0.80046  0.88827  1.0000
  H   H1102     1.0  0.15546  0.80995  0.93239  1.0000
  H   H1103     1.0  0.18215  0.83611  0.94878  1.0000
  C   C1110     1.0  0.02890  0.67943  0.74923  1.0000
  C   C1111     1.0  0.37443  0.71379  0.97039  1.0000
  C   C1112     1.0  0.24469  0.65442  0.88491  1.0000
  H   H1104     1.0  0.03827  0.79481  0.87636  1.0000
  C   C1113     1.0  0.16786  0.79583  0.93836  1.0000
  C   C1114     1.0  0.45460  0.93980  0.86922  1.0000
  H   H1105     1.0  0.46896  0.70444  0.86966  1.0000
  C   C1115     1.0  0.01230  0.78257  0.91210  1.0000
  H   H1106     1.0  0.12192  0.65862  0.86547  1.0000
  H   H1107     1.0  0.43499  0.89080  0.89469  1.0000
  S   S379      1.0  0.13346  0.85032  0.96545  1.0000
  H   H1108     1.0  0.22970  0.67013  0.88605  1.0000
  H   H1109     1.0  0.13811  0.72221  0.88330  1.0000
  H   H1110     1.0  0.43277  0.91938  0.75249  1.0000
  Fe  Fe188     1.0  0.22115  0.83537  0.97004  1.0000
  H   H1111     1.0  0.32954  0.77802  0.94715  1.0000
  Fe  Fe189     1.0  0.35750  0.66934  0.90801  1.0000
  C   C1116     1.0  0.12161  0.68791  0.87634  1.0000
  H   H1112     1.0  0.36728  0.83096  0.88960  1.0000
  C   C1117     1.0  0.17850  0.75364  0.95055  1.0000
  C   C1118     1.0  0.16372  0.77163  0.94203  1.0000
  C   C1119     1.0  0.20150  0.78415  0.95089  1.0000
  C   C1120     1.0  0.45072  0.95935  0.87663  1.0000
  H   H1113     1.0  0.35318  0.80922  0.88500  1.0000
  H   H1114     1.0  0.25930  0.78070  0.97340  1.0000
  C   C1121     1.0  0.35372  0.77810  0.91146  1.0000
  S   S380      1.0  0.47794  0.76573  0.96159  1.0000
  C   C1122     1.0  0.99631  0.88306  0.73710  1.0000
  H   H1115     1.0  0.21379  0.69485  0.72741  1.0000
  H   H1116     1.0  0.21052  0.82799  0.93623  1.0000
  H   H1117     1.0  0.00571  0.89821  0.73156  1.0000
  C   C1123     1.0  0.39455  0.72370  0.96158  1.0000
  C   C1124     1.0  0.48873  0.97138  0.86246  1.0000
  S   S381      1.0  0.31995  0.66648  0.92193  1.0000
  Fe  Fe190     1.0  0.16520  0.84858  0.97646  1.0000
  H   H1118     1.0  0.21149  0.98330  0.95818  1.0000
  C   C1125     1.0  0.46044  0.88081  0.79702  1.0000
  N   N91       1.0  0.37252  0.80439  0.79691  1.0000
  C   C1126     1.0  0.35774  0.82648  0.79929  1.0000
  C   C1127     1.0  0.38521  0.78970  0.80724  1.0000
  C   C1128     1.0  0.35546  0.83437  0.81229  1.0000
  C   C1129     1.0  0.38324  0.79696  0.82039  1.0000
  C   C1130     1.0  0.36834  0.81950  0.82288  1.0000
  C   C1131     1.0  0.37497  0.79615  0.78327  1.0000
  H   H1119     1.0  0.34799  0.83837  0.79103  1.0000
  H   H1120     1.0  0.39748  0.77256  0.80518  1.0000
  H   H1121     1.0  0.34436  0.85221  0.81402  1.0000
  H   H1122     1.0  0.39381  0.78552  0.82841  1.0000
  H   H1123     1.0  0.36733  0.82579  0.83281  1.0000
  H   H1124     1.0  0.39480  0.79269  0.77789  1.0000
  H   H1125     1.0  0.36774  0.77885  0.78538  1.0000
  H   H1126     1.0  0.36466  0.81007  0.77552  1.0000
  S   S382      1.0  0.34254  0.68554  0.88741  1.0000
  C   C1132     1.0  0.19761  0.75987  0.95497  1.0000
  H   H1127     1.0  0.44156  0.92752  0.87210  1.0000
  C   C1133     1.0  0.08210  0.71107  0.88476  1.0000
  N   N92       1.0  0.36358  0.69901  0.96552  1.0000
  H   H1128     1.0  0.42276  0.89020  0.75696  1.0000
  N   N93       1.0  0.18675  0.80174  0.94267  1.0000
  C   C1134     1.0  0.34452  0.76893  0.92599  1.0000
  H   H1129     1.0  0.33930  0.67305  0.97129  1.0000
  C   C1135     1.0  0.46971  0.86495  0.78714  1.0000
  H   H1130     1.0  0.12042  0.71142  0.90081  1.0000
  H   H1131     1.0  0.14838  0.76707  0.93890  1.0000
  N   N94       1.0  0.46677  0.89791  0.89977  1.0000
  H   H1132     1.0  0.40353  0.73486  0.96568  1.0000
  Fe  Fe191     1.0  0.48682  0.74894  0.94166  1.0000
  S   S383      1.0  0.10876  0.74709  0.96539  1.0000
  C   C1136     1.0  0.06199  0.68330  0.72816  1.0000
  C   C1137     1.0  0.02353  0.71386  0.72930  1.0000
  C   C1138     1.0  0.48712  0.89299  0.88922  1.0000
  C   C1139     1.0  0.13347  0.80077  0.97560  1.0000
  H   H1133     1.0  0.05042  0.70071  0.88066  1.0000
  C   C1140     1.0  0.37171  0.69438  0.95175  1.0000
  H   H1134     1.0  0.44729  0.92185  0.91451  1.0000
  C   C1141     1.0  0.46793  0.97499  0.87347  1.0000
  H   H1135     1.0  0.22380  0.66618  0.91673  1.0000
  H   H1136     1.0  0.22210  0.65394  0.93591  1.0000
  C   C1142     1.0  0.99561  0.83955  0.74312  1.0000
  H   H1137     1.0  0.02702  0.85484  0.73033  1.0000
  H   H1138     1.0  0.49132  0.77403  0.87907  1.0000
  H   H1139     1.0  0.02164  0.66931  0.75971  1.0000
  H   H1140     1.0  0.99409  0.69101  0.93793  1.0000
  H   H1141     1.0  0.00458  0.82065  0.74233  1.0000
  C   C1143     1.0  0.13497  0.65412  0.91071  1.0000
  H   H1142     1.0  0.16644  0.93783  0.97512  1.0000
  C   C1144     1.0  0.47708  0.70820  0.87783  1.0000
  H   H1143     1.0  0.48550  0.74268  0.86513  1.0000
  C   C1145     1.0  0.47808  0.69164  0.89095  1.0000
  C   C1146     1.0  0.48638  0.72986  0.87535  1.0000
  H   H1144     1.0  0.99441  0.81384  0.87471  1.0000
  C   C1147     1.0  0.48836  0.69690  0.90139  1.0000
  C   C1148     1.0  0.69384  0.17484  0.98717  1.0000
  C   C1149     1.0  0.78662  0.11672  0.19718  1.0000
  Fe  Fe192     1.0  0.67523  0.06391  0.01796  1.0000
  S   S384      1.0  0.63433  0.07643  0.01895  1.0000
  Fe  Fe193     1.0  0.64517  0.10718  0.00090  1.0000
  S   S385      1.0  0.63005  0.14762  0.00030  1.0000
  Fe  Fe194     1.0  0.63993  0.05419  0.00155  1.0000
  C   C1150     1.0  0.59212  0.15987  0.09564  1.0000
  H   H1145     1.0  0.58912  0.99017  0.00284  1.0000
  C   C1151     1.0  0.90759  0.26754  0.13871  1.0000
  N   N95       1.0  0.63561  0.00466  0.12036  1.0000
  C   C1152     1.0  0.66562  0.09875  0.04437  1.0000
  C   C1153     1.0  0.63328  0.04548  0.15229  1.0000
  H   H1146     1.0  0.53809  0.16636  0.12013  1.0000
  N   N96       1.0  0.87146  0.25917  0.98851  1.0000
  S   S386      1.0  0.71163  0.21055  0.99480  1.0000
  C   C1154     1.0  0.85220  0.30796  0.12900  1.0000
  S   S387      1.0  0.68565  0.09603  0.00109  1.0000
  S   S388      1.0  0.95744  0.30584  0.11122  1.0000
  Fe  Fe195     1.0  0.50600  0.27412  0.11007  1.0000
  C   C1155     1.0  0.60757  0.98621  0.99645  1.0000
  S   S389      1.0  0.54542  0.25678  0.10154  1.0000
  H   H1147     1.0  0.59824  0.04103  0.16648  1.0000
  H   H1148     1.0  0.94478  0.22954  0.18342  1.0000
  C   C1156     1.0  0.69008  0.21252  0.13346  1.0000
  H   H1149     1.0  0.87105  0.27633  0.00599  1.0000
  C   C1157     1.0  0.88935  0.19788  0.17379  1.0000
  C   C1158     1.0  0.76676  0.27555  0.21611  1.0000
  N   N97       1.0  0.65299  0.18963  0.15194  1.0000
  H   H1150     1.0  0.64311  0.04129  0.11631  1.0000
  C   C1159     1.0  0.87746  0.20758  0.19774  1.0000
  C   C1160     1.0  0.60628  0.18658  0.07291  1.0000
  S   S390      1.0  0.64571  0.08668  0.98364  1.0000
  S   S391      1.0  0.69756  0.10674  0.10790  1.0000
  H   H1151     1.0  0.81327  0.06572  0.21870  1.0000
  Fe  Fe196     1.0  0.63617  0.14107  0.12780  1.0000
  S   S392      1.0  0.66120  0.16018  0.10941  1.0000
  S   S393      1.0  0.60031  0.16176  0.13905  1.0000
  Fe  Fe197     1.0  0.66414  0.12827  0.09885  1.0000
  S   S394      1.0  0.65846  0.13755  0.07569  1.0000
  Fe  Fe198     1.0  0.69211  0.13709  0.12035  1.0000
  S   S395      1.0  0.72251  0.15703  0.12020  1.0000
  S   S396      1.0  0.63673  0.11057  0.11653  1.0000
  S   S397      1.0  0.66682  0.11991  0.13971  1.0000
  Fe  Fe199     1.0  0.80851  0.19797  0.19831  1.0000
  S   S398      1.0  0.76740  0.20850  0.19951  1.0000
  H   H1152     1.0  0.86033  0.18411  0.19030  1.0000
  Fe  Fe200     1.0  0.81970  0.22253  0.16670  1.0000
  S   S399      1.0  0.77934  0.23428  0.16502  1.0000
  S   S400      1.0  0.85102  0.23033  0.14772  1.0000
  Fe  Fe201     1.0  0.77462  0.24516  0.18657  1.0000
  S   S401      1.0  0.75110  0.28197  0.19040  1.0000
  Fe  Fe202     1.0  0.77525  0.19655  0.17799  1.0000
  S   S402      1.0  0.74995  0.17124  0.17743  1.0000
  S   S403      1.0  0.81505  0.23587  0.18739  1.0000
  S   S404      1.0  0.81615  0.18353  0.17771  1.0000
  C   C1161     1.0  0.65869  0.11735  0.05267  1.0000
  H   H1153     1.0  0.63317  0.17630  0.17309  1.0000
  C   C1162     1.0  0.75559  0.29214  0.20526  1.0000
  S   S405      1.0  0.68997  0.05299  0.03877  1.0000
  H   H1154     1.0  0.94758  0.29563  0.98356  1.0000
  C   C1163     1.0  0.85125  0.10951  0.21139  1.0000
  C   C1164     1.0  0.84217  0.13504  0.20911  1.0000
  Fe  Fe203     1.0  0.66981  0.09105  0.12656  1.0000
  H   H1155     1.0  0.85355  0.09954  0.20276  1.0000
  H   H1156     1.0  0.83760  0.14457  0.19876  1.0000
  C   C1165     1.0  0.73094  0.15962  0.13618  1.0000
  C   C1166     1.0  0.74815  0.17449  0.13514  1.0000
  C   C1167     1.0  0.75432  0.17812  0.14767  1.0000
  C   C1168     1.0  0.74342  0.16671  0.16135  1.0000
  C   C1169     1.0  0.72644  0.15160  0.16239  1.0000
  C   C1170     1.0  0.72016  0.14810  0.14987  1.0000
  H   H1157     1.0  0.75661  0.18342  0.12458  1.0000
  H   H1158     1.0  0.76747  0.18974  0.14673  1.0000
  H   H1159     1.0  0.71802  0.14263  0.17294  1.0000
  H   H1160     1.0  0.70698  0.13654  0.15080  1.0000
  H   H1161     1.0  0.73498  0.09482  0.05837  1.0000
  H   H1162     1.0  0.61009  0.14770  0.09414  1.0000
  H   H1163     1.0  0.63746  0.15746  0.15973  1.0000
  N   N98       1.0  0.91045  0.22424  0.18057  1.0000
  C   C1171     1.0  0.56101  0.23212  0.11291  1.0000
  C   C1172     1.0  0.58569  0.22185  0.10772  1.0000
  C   C1173     1.0  0.59794  0.20050  0.11575  1.0000
  C   C1174     1.0  0.58576  0.18943  0.12915  1.0000
  C   C1175     1.0  0.56132  0.20019  0.13460  1.0000
  C   C1176     1.0  0.54887  0.22140  0.12645  1.0000
  H   H1164     1.0  0.59515  0.23009  0.09726  1.0000
  H   H1165     1.0  0.61664  0.19255  0.11139  1.0000
  H   H1166     1.0  0.55175  0.19177  0.14498  1.0000
  H   H1167     1.0  0.52978  0.22911  0.13051  1.0000
  C   C1177     1.0  0.62359  0.00287  0.99397  1.0000
  C   C1178     1.0  0.80330  0.08434  0.21541  1.0000
  C   C1179     1.0  0.55155  0.17003  0.11023  1.0000
  C   C1180     1.0  0.60011  0.99283  0.13751  1.0000
  C   C1181     1.0  0.83844  0.14789  0.22034  1.0000
  H   H1168     1.0  0.89783  0.23165  0.20199  1.0000
  H   H1169     1.0  0.92410  0.26919  0.13048  1.0000
  H   H1170     1.0  0.67285  0.21039  0.11627  1.0000
  S   S406      1.0  0.59950  0.98880  0.17520  1.0000
  H   H1171     1.0  0.77763  0.16092  0.22534  1.0000
  H   H1172     1.0  0.72590  0.09967  0.01489  1.0000
  S   S407      1.0  0.68033  0.03948  0.00178  1.0000
  H   H1173     1.0  0.61523  0.18603  0.15899  1.0000
  C   C1182     1.0  0.68937  0.20687  0.14837  1.0000
  H   H1174     1.0  0.79552  0.29000  0.00447  1.0000
  C   C1183     1.0  0.67078  0.19505  0.15750  1.0000
  C   C1184     1.0  0.89566  0.22208  0.19403  1.0000
  H   H1175     1.0  0.83349  0.27912  0.12866  1.0000
  H   H1176     1.0  0.77434  0.25662  0.21493  1.0000
  H   H1177     1.0  0.66978  0.01718  0.11503  1.0000
  C   C1185     1.0  0.90266  0.27954  0.15044  1.0000
  C   C1186     1.0  0.88138  0.27705  0.16111  1.0000
  C   C1187     1.0  0.86520  0.26247  0.16017  1.0000
  C   C1188     1.0  0.87042  0.24978  0.14874  1.0000
  C   C1189     1.0  0.89158  0.25254  0.13792  1.0000
  H   H1178     1.0  0.87740  0.28637  0.17019  1.0000
  H   H1179     1.0  0.84876  0.26109  0.16835  1.0000
  H   H1180     1.0  0.89570  0.24288  0.12898  1.0000
  H   H1181     1.0  0.67921  0.14668  0.98206  1.0000
  H   H1182     1.0  0.70512  0.22055  0.12619  1.0000
  C   C1190     1.0  0.67201  0.20673  0.12789  1.0000
  S   S408      1.0  0.61357  0.02940  0.00196  1.0000
  C   C1191     1.0  0.65341  0.19534  0.13736  1.0000
  C   C1192     1.0  0.56448  0.19641  0.08752  1.0000
  H   H1183     1.0  0.74096  0.07521  0.03702  1.0000
  C   C1193     1.0  0.66219  0.00756  0.14874  1.0000
  H   H1184     1.0  0.63949  0.19074  0.13297  1.0000
  H   H1185     1.0  0.78496  0.27195  0.98617  1.0000
  C   C1194     1.0  0.65339  0.16443  0.99853  1.0000
  C   C1195     1.0  0.64898  0.18270  0.00680  1.0000
  C   C1196     1.0  0.66696  0.19676  0.00542  1.0000
  C   C1197     1.0  0.68940  0.19297  0.99560  1.0000
  C   C1198     1.0  0.79605  0.10073  0.22508  1.0000
  H   H1186     1.0  0.87601  0.24298  0.01007  1.0000
  H   H1187     1.0  0.63165  0.18586  0.01439  1.0000
  H   H1188     1.0  0.66341  0.21072  0.01196  1.0000
  C   C1199     1.0  0.65640  0.03340  0.14590  1.0000
  Fe  Fe204     1.0  0.68582  0.07359  0.98497  1.0000
  C   C1200     1.0  0.92988  0.23892  0.17720  1.0000
  C   C1201     1.0  0.68465  0.07095  0.06357  1.0000
  C   C1202     1.0  0.67756  0.08956  0.07193  1.0000
  C   C1203     1.0  0.66492  0.11292  0.06637  1.0000
  H   H1189     1.0  0.69501  0.05311  0.06772  1.0000
  H   H1190     1.0  0.68253  0.08604  0.08248  1.0000
  H   H1191     1.0  0.78279  0.12332  0.18628  1.0000
  H   H1192     1.0  0.62868  0.06543  0.15017  1.0000
  H   H1193     1.0  0.70380  0.21063  0.15275  1.0000
  C   C1204     1.0  0.79864  0.09247  0.20135  1.0000
  H   H1194     1.0  0.92198  0.25753  0.17991  1.0000
  H   H1195     1.0  0.66114  0.10255  0.03370  1.0000
  C   C1205     1.0  0.64727  0.99775  0.98554  1.0000
  C   C1206     1.0  0.82297  0.30855  0.98932  1.0000
  H   H1196     1.0  0.60164  0.18763  0.97894  1.0000
  H   H1197     1.0  0.91888  0.21439  0.15970  1.0000
  S   S409      1.0  0.67826  0.04961  0.13382  1.0000
  H   H1198     1.0  0.52074  0.31156  0.16777  1.0000
  H   H1199     1.0  0.77039  0.15144  0.20375  1.0000
  C   C1207     1.0  0.86585  0.25990  0.00401  1.0000
  C   C1208     1.0  0.57454  0.15422  0.10815  1.0000
  H   H1200     1.0  0.52895  0.20417  0.10160  1.0000
  C   C1209     1.0  0.63384  0.17674  0.16147  1.0000
  H   H1201     1.0  0.65977  0.01044  0.98354  1.0000
  C   C1210     1.0  0.61435  0.01064  0.13011  1.0000
  H   H1202     1.0  0.56062  0.21351  0.07987  1.0000
  H   H1203     1.0  0.61196  0.17131  0.06671  1.0000
  C   C1211     1.0  0.67893  0.07560  0.04970  1.0000
  N   N99       1.0  0.70793  0.14329  0.03577  1.0000
  C   C1212     1.0  0.71658  0.13005  0.04796  1.0000
  C   C1213     1.0  0.71137  0.13273  0.02394  1.0000
  C   C1214     1.0  0.72896  0.10552  0.04851  1.0000
  C   C1215     1.0  0.72369  0.10824  0.02413  1.0000
  H   H1204     1.0  0.50024  0.28010  0.04499  1.0000
  C   C1216     1.0  0.69418  0.16870  0.03540  1.0000
  H   H1205     1.0  0.71316  0.13810  0.05754  1.0000
  H   H1206     1.0  0.70413  0.14311  0.01438  1.0000
  C   C1217     1.0  0.92994  0.31573  0.06211  1.0000
  C   C1218     1.0  0.87442  0.19535  0.18755  1.0000
  C   C1219     1.0  0.85871  0.28815  0.10855  1.0000
  H   H1207     1.0  0.70329  0.18130  0.02612  1.0000
  H   H1208     1.0  0.67490  0.16979  0.03415  1.0000
  H   H1209     1.0  0.69317  0.17529  0.04550  1.0000
  C   C1220     1.0  0.99085  0.31002  0.04872  1.0000
  H   H1210     1.0  0.86563  0.20593  0.20840  1.0000
  C   C1221     1.0  0.65065  0.02329  0.11274  1.0000
  C   C1222     1.0  0.85633  0.09661  0.22496  1.0000
  C   C1223     1.0  0.84659  0.29081  0.12259  1.0000
  S   S410      1.0  0.92350  0.29614  0.15287  1.0000
  C   C1224     1.0  0.60848  0.20435  0.97910  1.0000
  H   H1211     1.0  0.71126  0.17150  0.97974  1.0000
  N   N100      1.0  0.58702  0.18081  0.08558  1.0000
  C   C1225     1.0  0.89114  0.26858  0.97971  1.0000
  H   H1212     1.0  0.96262  0.25175  0.98145  1.0000
  C   C1226     1.0  0.77968  0.13261  0.20711  1.0000
  H   H1213     1.0  0.93833  0.24194  0.16547  1.0000
  C   C1227     1.0  0.69413  0.29664  0.21655  1.0000
  H   H1214     1.0  0.84560  0.26168  0.00838  1.0000
  C   C1228     1.0  0.54637  0.19118  0.09982  1.0000
  H   H1215     1.0  0.67104  0.18984  0.16900  1.0000
  H   H1216     1.0  0.64491  0.99172  0.02536  1.0000
  H   H1217     1.0  0.62286  0.18868  0.07648  1.0000
  C   C1229     1.0  0.80487  0.29369  0.99328  1.0000
  H   H1218     1.0  0.93727  0.29626  0.06240  1.0000
  H   H1219     1.0  0.88652  0.18910  0.16563  1.0000
  C   C1230     1.0  0.90753  0.21234  0.17049  1.0000
  C   C1231     1.0  0.64493  0.99380  0.15776  1.0000
  H   H1220     1.0  0.68005  0.99814  0.14379  1.0000
  H   H1221     1.0  0.85477  0.27463  0.10356  1.0000
  H   H1222     1.0  0.64341  0.22757  0.98043  1.0000
  H   H1223     1.0  0.59991  0.20391  0.06551  1.0000
  C   C1232     1.0  0.62183  0.00574  0.16421  1.0000
  H   H1224     1.0  0.64884  0.13533  0.04832  1.0000
  C   C1233     1.0  0.67585  0.16052  0.98867  1.0000
  C   C1234     1.0  0.85761  0.24810  0.98305  1.0000
  H   H1225     1.0  0.80454  0.08006  0.19368  1.0000
  C   C1235     1.0  0.61610  0.03164  0.16152  1.0000
  C   C1236     1.0  0.73238  0.09454  0.03653  1.0000
  H   H1226     1.0  0.57904  0.13817  0.11640  1.0000
  C   C1237     1.0  0.79880  0.28346  0.98292  1.0000
  H   H1227     1.0  0.84327  0.30935  0.14009  1.0000
  H   H1228     1.0  0.58373  0.99742  0.14561  1.0000
  H   H1229     1.0  0.65152  0.02643  0.10086  1.0000
  H   H1230     1.0  0.60860  0.02907  0.13254  1.0000
  H   H1231     1.0  0.84187  0.24082  0.98997  1.0000
  N   N101      1.0  0.78479  0.12464  0.22078  1.0000
  H   H1232     1.0  0.90236  0.27704  0.98404  1.0000
  H   H1233     1.0  0.61082  0.20283  0.99037  1.0000
  S   S411      1.0  0.82466  0.17940  0.21830  1.0000
  H   H1234     1.0  0.69681  0.28933  0.20677  1.0000
  C   C1238     1.0  0.87615  0.30268  0.10106  1.0000
  Fe  Fe205     1.0  0.94822  0.31465  0.13355  1.0000
  S   S412      1.0  0.90060  0.31618  0.00066  1.0000
  H   H1235     1.0  0.88576  0.30078  0.09014  1.0000
  S   S413      1.0  0.92295  0.31673  0.03492  1.0000
  H   H1236     1.0  0.93873  0.31534  0.08273  1.0000
  C   C1239     1.0  0.74578  0.31664  0.20691  1.0000
  H   H1237     1.0  0.99289  0.29424  0.04375  1.0000
  H   H1238     1.0  0.92586  0.09596  0.32080  1.0000
  Fe  Fe206     1.0  0.88225  0.04253  0.24651  1.0000
  H   H1239     1.0  0.53511  0.25736  0.42227  1.0000
  C   C1240     1.0  0.81994  0.29584  0.41867  1.0000
  Fe  Fe207     1.0  0.93340  0.01852  0.25309  1.0000
  C   C1241     1.0  0.96413  0.06772  0.42194  1.0000
  H   H1240     1.0  0.53269  0.25498  0.37031  1.0000
  N   N102      1.0  0.86657  0.99155  0.32009  1.0000
  S   S414      1.0  0.79253  0.21585  0.46031  1.0000
  C   C1242     1.0  0.68085  0.16017  0.46165  1.0000
  S   S415      1.0  0.63960  0.28194  0.38635  1.0000
  H   H1241     1.0  0.96343  0.06256  0.31998  1.0000
  H   H1242     1.0  0.89241  0.00699  0.40169  1.0000
  Fe  Fe208     1.0  0.94529  0.03555  0.36120  1.0000
  S   S416      1.0  0.94995  0.07361  0.34960  1.0000
  Fe  Fe209     1.0  0.92847  0.05206  0.39072  1.0000
  S   S417      1.0  0.93198  0.09105  0.38070  1.0000
  S   S418      1.0  0.91278  0.04358  0.41469  1.0000
  Fe  Fe210     1.0  0.91365  0.08544  0.36387  1.0000
  S   S419      1.0  0.88018  0.10920  0.35550  1.0000
  S   S420      1.0  0.90835  0.04727  0.37461  1.0000
  H   H1243     1.0  0.84480  0.26277  0.44767  1.0000
  C   C1243     1.0  0.91058  0.03887  0.33469  1.0000
  C   C1244     1.0  0.84462  0.13521  0.23372  1.0000
  S   S421      1.0  0.66354  0.10754  0.45510  1.0000
  C   C1245     1.0  0.89590  0.04728  0.32397  1.0000
  C   C1246     1.0  0.93582  0.00779  0.32131  1.0000
  H   H1244     1.0  0.68384  0.15396  0.45147  1.0000
  C   C1247     1.0  0.58454  0.25502  0.38235  1.0000
  H   H1245     1.0  0.64172  0.15960  0.46634  1.0000
  S   S422      1.0  0.68087  0.26086  0.41686  1.0000
  C   C1248     1.0  0.85678  0.01048  0.34532  1.0000
  H   H1246     1.0  0.91760  0.08621  0.27963  1.0000
  C   C1249     1.0  0.76716  0.28319  0.22884  1.0000
  C   C1250     1.0  0.74914  0.01958  0.47255  1.0000
  C   C1251     1.0  0.65691  0.16332  0.47004  1.0000
  Fe  Fe211     1.0  0.80917  0.20920  0.43796  1.0000
  S   S423      1.0  0.79584  0.23580  0.41872  1.0000
  C   C1252     1.0  0.84139  0.01984  0.33515  1.0000
  S   S424      1.0  0.88255  0.13806  0.44261  1.0000
  S   S425      1.0  0.81000  0.16827  0.44379  1.0000
  S   S426      1.0  0.84810  0.20653  0.44091  1.0000
  S   S427      1.0  0.96565  0.03492  0.37886  1.0000
  Fe  Fe212     1.0  0.79053  0.01792  0.38751  1.0000
  S   S428      1.0  0.81123  0.01355  0.40534  1.0000
  S   S429      1.0  0.79940  0.04304  0.36588  1.0000
  H   H1247     1.0  0.81393  0.29334  0.40933  1.0000
  H   H1248     1.0  0.72517  0.16355  0.44604  1.0000
  C   C1253     1.0  0.92835  0.08173  0.28816  1.0000
  Fe  Fe213     1.0  0.77337  0.01816  0.41927  1.0000
  S   S430      1.0  0.76802  0.04185  0.43577  1.0000
  H   H1249     1.0  0.76816  0.26825  0.39805  1.0000
  C   C1254     1.0  0.54426  0.25625  0.37752  1.0000
  S   S431      1.0  0.75239  0.02489  0.40130  1.0000
  S   S432      1.0  0.91855  0.99808  0.27502  1.0000
  Fe  Fe214     1.0  0.83140  0.21025  0.46396  1.0000
  H   H1250     1.0  0.85319  0.01821  0.35502  1.0000
  H   H1251     1.0  0.90284  0.10761  0.30047  1.0000
  C   C1255     1.0  0.99200  0.99877  0.23524  1.0000
  C   C1256     1.0  0.77727  0.14155  0.23106  1.0000
  Fe  Fe215     1.0  0.89202  0.03354  0.27741  1.0000
  H   H1252     1.0  0.94705  0.16107  0.39410  1.0000
  H   H1253     1.0  0.54664  0.28595  0.41617  1.0000
  C   C1257     1.0  0.53602  0.27393  0.41355  1.0000
  S   S433      1.0  0.90854  0.05488  0.25613  1.0000
  N   N103      1.0  0.83501  0.30201  0.44278  1.0000
  C   C1258     1.0  0.90731  0.23596  0.47659  1.0000
  H   H1254     1.0  0.82572  0.03479  0.33696  1.0000
  H   H1255     1.0  0.72340  0.27830  0.39701  1.0000
  C   C1259     1.0  0.93920  0.13580  0.41428  1.0000
  H   H1256     1.0  0.58436  0.26518  0.40241  1.0000
  C   C1260     1.0  0.75655  0.30744  0.23074  1.0000
  C   C1261     1.0  0.71301  0.25341  0.41690  1.0000
  C   C1262     1.0  0.72986  0.26496  0.40595  1.0000
  C   C1263     1.0  0.75524  0.25924  0.40657  1.0000
  C   C1264     1.0  0.76396  0.24199  0.41814  1.0000
  C   C1265     1.0  0.74713  0.23044  0.42911  1.0000
  C   C1266     1.0  0.72174  0.23613  0.42847  1.0000
  H   H1257     1.0  0.73425  0.13985  0.46103  1.0000
  H   H1258     1.0  0.51700  0.28497  0.41324  1.0000
  H   H1259     1.0  0.75368  0.21717  0.43809  1.0000
  H   H1260     1.0  0.70878  0.22722  0.43701  1.0000
  C   C1267     1.0  0.69304  0.09121  0.44843  1.0000
  C   C1268     1.0  0.69662  0.07861  0.43703  1.0000
  C   C1269     1.0  0.71974  0.06365  0.43279  1.0000
  C   C1270     1.0  0.73938  0.06173  0.43977  1.0000
  C   C1271     1.0  0.73598  0.07509  0.45075  1.0000
  C   C1272     1.0  0.71285  0.08948  0.45519  1.0000
  H   H1261     1.0  0.68134  0.07981  0.43179  1.0000
  H   H1262     1.0  0.72218  0.05336  0.42431  1.0000
  H   H1263     1.0  0.75110  0.07381  0.45615  1.0000
  H   H1264     1.0  0.71046  0.09923  0.46388  1.0000
  H   H1265     1.0  0.71409  0.26297  0.22761  1.0000
  C   C1273     1.0  0.85708  0.09150  0.35867  1.0000
  C   C1274     1.0  0.84365  0.09322  0.34792  1.0000
  C   C1275     1.0  0.82594  0.07836  0.35026  1.0000
  C   C1276     1.0  0.82142  0.06180  0.36340  1.0000
  C   C1277     1.0  0.83446  0.06055  0.37425  1.0000
  C   C1278     1.0  0.85201  0.07553  0.37195  1.0000
  H   H1266     1.0  0.84730  0.10568  0.33766  1.0000
  H   H1267     1.0  0.81583  0.07964  0.34182  1.0000
  H   H1268     1.0  0.83101  0.04826  0.38445  1.0000
  H   H1269     1.0  0.86127  0.07506  0.38061  1.0000
  C   C1279     1.0  0.89885  0.06965  0.42280  1.0000
  C   C1280     1.0  0.89741  0.06745  0.43768  1.0000
  C   C1281     1.0  0.88973  0.08845  0.44408  1.0000
  C   C1282     1.0  0.88275  0.11181  0.43578  1.0000
  C   C1283     1.0  0.88263  0.11382  0.42106  1.0000
  C   C1284     1.0  0.89060  0.09276  0.41461  1.0000
  H   H1270     1.0  0.90357  0.04968  0.44414  1.0000
  H   H1271     1.0  0.89050  0.08677  0.45536  1.0000
  H   H1272     1.0  0.87795  0.13183  0.41445  1.0000
  H   H1273     1.0  0.89087  0.09459  0.40322  1.0000
  H   H1274     1.0  0.83116  0.25699  0.42635  1.0000
  S   S434      1.0  0.83408  0.16945  0.47199  1.0000
  C   C1285     1.0  0.95383  0.06858  0.31091  1.0000
  H   H1275     1.0  0.93490  0.10659  0.43270  1.0000
  H   H1276     1.0  0.70886  0.02782  0.46253  1.0000
  C   C1286     1.0  0.57301  0.26221  0.39559  1.0000
  C   C1287     1.0  0.84657  0.01011  0.32253  1.0000
  H   H1277     1.0  0.92580  0.00784  0.30113  1.0000
  H   H1278     1.0  0.95402  0.06292  0.26523  1.0000
  C   C1288     1.0  0.88087  0.99678  0.41103  1.0000
  S   S435      1.0  0.90835  0.00741  0.24192  1.0000
  S   S436      1.0  0.88286  0.04811  0.29830  1.0000
  C   C1289     1.0  0.94402  0.11128  0.42151  1.0000
  H   H1279     1.0  0.88038  0.06253  0.32513  1.0000
  H   H1280     1.0  0.51329  0.26721  0.39385  1.0000
  Fe  Fe216     1.0  0.84771  0.16594  0.44854  1.0000
  H   H1281     1.0  0.56948  0.05744  0.45152  1.0000
  Fe  Fe217     1.0  0.89059  0.99074  0.26425  1.0000
  H   H1282     1.0  0.83101  0.29599  0.46561  1.0000
  N   N104      1.0  0.94922  0.06365  0.28773  1.0000
  H   H1283     1.0  0.97639  0.12868  0.38174  1.0000
  C   C1290     1.0  0.82959  0.27538  0.42827  1.0000
  C   C1291     1.0  0.57001  0.25213  0.37325  1.0000
  H   H1284     1.0  0.90626  0.04775  0.34396  1.0000
  C   C1292     1.0  0.61953  0.03441  0.47527  1.0000
  C   C1293     1.0  0.90138  0.03634  0.31172  1.0000
  H   H1285     1.0  0.86808  0.99652  0.29744  1.0000
  H   H1286     1.0  0.84184  0.14510  0.24244  1.0000
  H   H1287     1.0  0.85730  0.09972  0.24656  1.0000
  C   C1294     1.0  0.83718  0.27879  0.44030  1.0000
  C   C1295     1.0  0.72542  0.15947  0.45783  1.0000
  C   C1296     1.0  0.92140  0.01653  0.31044  1.0000
  C   C1297     1.0  0.87703  0.99144  0.34281  1.0000
  H   H1288     1.0  0.98342  0.06222  0.42394  1.0000
  S   S437      1.0  0.94943  0.00837  0.34670  1.0000
  H   H1289     1.0  0.80044  0.09441  0.23584  1.0000
  C   C1298     1.0  0.62080  0.05555  0.46452  1.0000
  C   C1299     1.0  0.91985  0.09388  0.29994  1.0000
  S   S438      1.0  0.50662  0.30986  0.35745  1.0000
  C   C1300     1.0  0.60280  0.06375  0.45586  1.0000
  C   C1301     1.0  0.85348  0.10957  0.23605  1.0000
  C   C1302     1.0  0.70233  0.29123  0.24060  1.0000
  N   N105      1.0  0.95959  0.09353  0.41449  1.0000
  C   C1303     1.0  0.97145  0.09971  0.40049  1.0000
  H   H1290     1.0  0.89814  0.00036  0.43374  1.0000
  N   N106      1.0  0.70028  0.16415  0.46640  1.0000
  H   H1291     1.0  0.97717  0.04197  0.27413  1.0000
  C   C1304     1.0  0.93276  0.08729  0.31136  1.0000
  Fe  Fe218     1.0  0.66555  0.28912  0.39869  1.0000
  H   H1292     1.0  0.92628  0.14964  0.41982  1.0000
  H   H1293     1.0  0.95125  0.99245  0.32026  1.0000
  Fe  Fe219     1.0  0.79647  0.17479  0.46663  1.0000
  C   C1305     1.0  0.74125  0.31465  0.43521  1.0000
  S   S439      1.0  0.86276  0.02497  0.26815  1.0000
  H   H1294     1.0  0.96135  0.05557  0.41520  1.0000
  C   C1306     1.0  0.96175  0.05678  0.29899  1.0000
  C   C1307     1.0  0.84254  0.30489  0.45569  1.0000
  C   C1308     1.0  0.69064  0.31565  0.24101  1.0000
  C   C1309     1.0  0.56289  0.01603  0.47073  1.0000
  C   C1310     1.0  0.53336  0.26335  0.39084  1.0000
  H   H1295     1.0  0.75894  0.30437  0.43782  1.0000
  H   H1296     1.0  0.60342  0.08040  0.44764  1.0000
  H   H1297     1.0  0.73707  0.17135  0.45959  1.0000
  N   N107      1.0  0.54772  0.26655  0.39959  1.0000
  C   C1311     1.0  0.95711  0.05037  0.27563  1.0000
  H   H1298     1.0  0.92520  0.22514  0.47283  1.0000
  N   N108      1.0  0.81163  0.10512  0.39754  1.0000
  C   C1312     1.0  0.79653  0.08931  0.40573  1.0000
  C   C1313     1.0  0.80833  0.11684  0.38385  1.0000
  C   C1314     1.0  0.77827  0.08408  0.39999  1.0000
  C   C1315     1.0  0.79032  0.11191  0.37776  1.0000
  C   C1316     1.0  0.77539  0.09521  0.38586  1.0000
  C   C1317     1.0  0.83093  0.11021  0.40361  1.0000
  H   H1299     1.0  0.79869  0.08036  0.41671  1.0000
  H   H1300     1.0  0.82033  0.12934  0.37732  1.0000
  H   H1301     1.0  0.76661  0.07124  0.40642  1.0000
  H   H1302     1.0  0.78854  0.12034  0.36667  1.0000
  H   H1303     1.0  0.76193  0.09057  0.38109  1.0000
  H   H1304     1.0  0.84725  0.11394  0.39499  1.0000
  H   H1305     1.0  0.82348  0.12649  0.40893  1.0000
  H   H1306     1.0  0.83782  0.09414  0.41171  1.0000
  H   H1307     1.0  0.55873  0.30888  0.35274  1.0000
  Fe  Fe220     1.0  0.96808  0.07401  0.36793  1.0000
  H   H1308     1.0  0.63539  0.06586  0.46308  1.0000
  H   H1309     1.0  0.88700  0.21600  0.46847  1.0000
  H   H1310     1.0  0.83486  0.01791  0.31451  1.0000
  C   C1318     1.0  0.93062  0.01908  0.33341  1.0000
  C   C1319     1.0  0.95080  0.14217  0.39988  1.0000
  H   H1311     1.0  0.70860  0.99519  0.46766  1.0000
  C   C1320     1.0  0.58372  0.05065  0.45809  1.0000
  C   C1321     1.0  0.96721  0.12407  0.39295  1.0000
  S   S440      1.0  0.67006  0.29601  0.34506  1.0000
  H   H1312     1.0  0.86823  0.98877  0.40701  1.0000
  H   H1313     1.0  0.98400  0.08568  0.39500  1.0000
  C   C1322     1.0  0.71956  0.00915  0.46105  1.0000
  H   H1314     1.0  0.73024  0.28307  0.43178  1.0000
  H   H1315     1.0  0.71116  0.28022  0.24948  1.0000
  H   H1316     1.0  0.57864  0.24725  0.36278  1.0000
  C   C1323     1.0  0.88567  0.23073  0.47411  1.0000
  S   S441      1.0  0.97381  0.02070  0.24552  1.0000
  H   H1317     1.0  0.60455  0.25235  0.37902  1.0000
  C   C1324     1.0  0.79036  0.99516  0.47246  1.0000
  Fe  Fe221     1.0  0.65981  0.30525  0.36728  1.0000
  H   H1318     1.0  0.68943  0.30149  0.31440  1.0000
  C   C1325     1.0  0.72522  0.30271  0.43170  1.0000
  H   H1319     1.0  0.94645  0.03546  0.27761  1.0000
  S   S442      1.0  0.68803  0.30904  0.37907  1.0000
  S   S443      1.0  0.83457  0.23817  0.47659  1.0000
  N   N109      1.0  0.74384  0.00424  0.46521  1.0000
  H   H1320     1.0  0.69058  0.30687  0.42503  1.0000
  H   H1321     1.0  0.77518  0.27010  0.23740  1.0000
  H   H1322     1.0  0.86905  0.01018  0.41775  1.0000
  S   S444      1.0  0.75443  0.31528  0.24762  1.0000
  H   H1323     1.0  0.95107  0.06459  0.43245  1.0000
  H   H1324     1.0  0.54710  0.02720  0.46559  1.0000
  C   C1326     1.0  0.77247  0.01537  0.47622  1.0000
  H   H1325     1.0  0.79036  0.13721  0.23869  1.0000
  H   H1326     1.0  0.78599  0.11907  0.47034  1.0000
  H   H1327     1.0  0.72202  0.00863  0.44936  1.0000
  H   H1328     1.0  0.97758  0.04166  0.29901  1.0000
  C   C1327     1.0  0.55048  0.31437  0.36306  1.0000
  H   H1329     1.0  0.72412  0.98651  0.38104  1.0000
  H   H1330     1.0  0.58571  0.31412  0.36829  1.0000
  H   H1331     1.0  0.57025  0.99912  0.46602  1.0000
  N   N110      1.0  0.58259  0.02998  0.46868  1.0000
  H   H1332     1.0  0.75830  0.14031  0.23728  1.0000
  H   H1333     1.0  0.80862  0.99182  0.47510  1.0000
  H   H1334     1.0  0.86232  0.29601  0.45568  1.0000
  H   H1335     1.0  0.73547  0.03550  0.47534  1.0000
  H   H1336     1.0  0.77399  0.07780  0.47628  1.0000
  S   S445      1.0  0.86291  0.06420  0.22814  1.0000
  C   C1328     1.0  0.70397  0.28156  0.22835  1.0000
  C   C1329     1.0  0.60022  0.02175  0.47719  1.0000
  C   C1330     1.0  0.56578  0.31736  0.37184  1.0000
  C   C1331     1.0  0.70279  0.31631  0.42794  1.0000
  C   C1332     1.0  0.52465  0.31743  0.36783  1.0000
  C   C1333     1.0  0.68323  0.31459  0.68350  1.0000
  S   S446      1.0  0.57145  0.03928  0.67372  1.0000
  Fe  Fe222     1.0  0.69341  0.12607  0.61927  1.0000
  S   S447      1.0  0.68600  0.08805  0.62915  1.0000
  S   S448      1.0  0.68824  0.15057  0.63560  1.0000
  Fe  Fe223     1.0  0.70454  0.11554  0.58860  1.0000
  S   S449      1.0  0.69892  0.07649  0.59614  1.0000
  S   S450      1.0  0.71566  0.12959  0.56466  1.0000
  Fe  Fe224     1.0  0.66551  0.09280  0.61115  1.0000
  S   S451      1.0  0.62798  0.08443  0.61217  1.0000
  Fe  Fe225     1.0  0.72004  0.07533  0.61334  1.0000
  S   S452      1.0  0.75065  0.04643  0.62204  1.0000
  S   S453      1.0  0.66981  0.13212  0.60249  1.0000
  S   S454      1.0  0.72874  0.11312  0.60453  1.0000
  C   C1334     1.0  0.60514  0.07893  0.54358  1.0000
  H   H1337     1.0  0.59668  0.11869  0.53845  1.0000
  H   H1338     1.0  0.66549  0.25890  0.71208  1.0000
  C   C1335     1.0  0.70517  0.30118  0.67679  1.0000
  C   C1336     1.0  0.67181  0.28809  0.72073  1.0000
  C   C1337     1.0  0.87387  0.16283  0.70909  1.0000
  C   C1338     1.0  0.89441  0.19718  0.67458  1.0000
  H   H1339     1.0  0.57904  0.07347  0.62158  1.0000
  C   C1339     1.0  0.60964  0.11792  0.66587  1.0000
  C   C1340     1.0  0.76979  0.99940  0.59370  1.0000
  H   H1340     1.0  0.76190  0.99513  0.58563  1.0000
  C   C1341     1.0  0.98268  0.07562  0.71359  1.0000
  C   C1342     1.0  0.98629  0.04275  0.70049  1.0000
  H   H1341     1.0  0.64347  0.13262  0.65832  1.0000
  H   H1342     1.0  0.86887  0.26602  0.68138  1.0000
  C   C1343     1.0  0.89229  0.29892  0.57311  1.0000
  H   H1343     1.0  0.99150  0.99321  0.59937  1.0000
  C   C1344     1.0  0.79248  0.13241  0.65375  1.0000
  S   S455      1.0  0.50080  0.06759  0.67788  1.0000
  H   H1344     1.0  0.84474  0.26171  0.65514  1.0000
  H   H1345     1.0  0.74491  0.29563  0.67226  1.0000
  H   H1346     1.0  0.91066  0.99322  0.64057  1.0000
  Fe  Fe226     1.0  0.80655  0.20224  0.68410  1.0000
  S   S456      1.0  0.83608  0.17340  0.69407  1.0000
  Fe  Fe227     1.0  0.77970  0.21069  0.65894  1.0000
  S   S457      1.0  0.77935  0.19444  0.63973  1.0000
  S   S458      1.0  0.81532  0.22014  0.66066  1.0000
  S   S459      1.0  0.77259  0.19034  0.68188  1.0000
  Fe  Fe228     1.0  0.63745  0.06612  0.50587  1.0000
  S   S460      1.0  0.60811  0.04238  0.51442  1.0000
  Fe  Fe229     1.0  0.69248  0.07031  0.50039  1.0000
  S   S461      1.0  0.73403  0.05863  0.49799  1.0000
  Fe  Fe230     1.0  0.65145  0.11214  0.50928  1.0000
  S   S462      1.0  0.64166  0.14237  0.52229  1.0000
  S   S463      1.0  0.66144  0.07249  0.51978  1.0000
  S   S464      1.0  0.98577  0.05077  0.67133  1.0000
  H   H1347     1.0  0.63589  0.10517  0.57829  1.0000
  C   C1345     1.0  0.88277  0.26879  0.48881  1.0000
  H   H1348     1.0  0.98885  0.03687  0.72297  1.0000
  C   C1346     1.0  0.70453  0.25877  0.70893  1.0000
  C   C1347     1.0  0.52234  0.10005  0.71061  1.0000
  H   H1349     1.0  0.61914  0.12374  0.55625  1.0000
  C   C1348     1.0  0.89437  0.29813  0.58736  1.0000
  H   H1350     1.0  0.59559  0.07652  0.53563  1.0000
  H   H1351     1.0  0.78623  0.20110  0.49332  1.0000
  C   C1349     1.0  0.51144  0.12032  0.71734  1.0000
  C   C1350     1.0  0.60562  0.10254  0.54521  1.0000
  H   H1352     1.0  0.90369  0.28121  0.59329  1.0000
  H   H1353     1.0  0.63473  0.17195  0.49034  1.0000
  C   C1351     1.0  0.97889  0.09313  0.70107  1.0000
  H   H1354     1.0  0.92158  0.16473  0.68030  1.0000
  C   C1352     1.0  0.60625  0.12694  0.63690  1.0000
  S   S465      1.0  0.94546  0.30535  0.54546  1.0000
  H   H1355     1.0  0.78758  0.11371  0.51846  1.0000
  C   C1353     1.0  0.57120  0.10180  0.67332  1.0000
  C   C1354     1.0  0.77166  0.11471  0.47961  1.0000
  H   H1356     1.0  0.65231  0.29512  0.72427  1.0000
  C   C1355     1.0  0.74574  0.08598  0.49475  1.0000
  C   C1356     1.0  0.73415  0.10361  0.50332  1.0000
  C   C1357     1.0  0.74054  0.12687  0.49987  1.0000
  C   C1358     1.0  0.75904  0.13266  0.48791  1.0000
  H   H1357     1.0  0.91326  0.02286  0.60482  1.0000
  C   C1359     1.0  0.68960  0.29975  0.72272  1.0000
  H   H1358     1.0  0.71971  0.09941  0.51246  1.0000
  H   H1359     1.0  0.73073  0.14055  0.50640  1.0000
  S   S466      1.0  0.71349  0.23255  0.70084  1.0000
  Fe  Fe231     1.0  0.93830  0.29236  0.49600  1.0000
  H   H1360     1.0  0.56431  0.02103  0.52038  1.0000
  C   C1360     1.0  0.63039  0.06183  0.56186  1.0000
  S   S467      1.0  0.91146  0.31463  0.51155  1.0000
  Fe  Fe232     1.0  0.75207  0.22714  0.68722  1.0000
  H   H1361     1.0  0.70466  0.28650  0.67149  1.0000
  C   C1361     1.0  0.91536  0.18433  0.68027  1.0000
  H   H1362     1.0  0.67026  0.17845  0.49893  1.0000
  H   H1363     1.0  0.71710  0.11008  0.65878  1.0000
  H   H1364     1.0  0.97619  0.11255  0.70123  1.0000
  C   C1362     1.0  0.90600  0.25496  0.48397  1.0000
  Fe  Fe233     1.0  0.94419  0.31280  0.52156  1.0000
  S   S468      1.0  0.51780  0.06533  0.48161  1.0000
  C   C1363     1.0  0.92956  0.01090  0.60000  1.0000
  C   C1364     1.0  0.98312  0.06014  0.68787  1.0000
  C   C1365     1.0  0.69337  0.13157  0.55424  1.0000
  C   C1366     1.0  0.69732  0.11487  0.54497  1.0000
  C   C1367     1.0  0.68110  0.11786  0.53544  1.0000
  C   C1368     1.0  0.66134  0.13795  0.53474  1.0000
  C   C1369     1.0  0.65717  0.15451  0.54414  1.0000
  C   C1370     1.0  0.67307  0.15125  0.55394  1.0000
  H   H1365     1.0  0.71304  0.09969  0.54506  1.0000
  H   H1366     1.0  0.68411  0.10481  0.52845  1.0000
  H   H1367     1.0  0.64183  0.17006  0.54373  1.0000
  H   H1368     1.0  0.67011  0.16442  0.56093  1.0000
  C   C1371     1.0  0.76693  0.02396  0.61169  1.0000
  C   C1372     1.0  0.75704  0.01873  0.60103  1.0000
  S   S469      1.0  0.97578  0.15882  0.71681  1.0000
  C   C1373     1.0  0.72790  0.30623  0.67738  1.0000
  H   H1369     1.0  0.63285  0.02835  0.48244  1.0000
  C   C1374     1.0  0.78979  0.01020  0.61474  1.0000
  H   H1370     1.0  0.73936  0.02922  0.59865  1.0000
  H   H1371     1.0  0.88414  0.18761  0.67026  1.0000
  C   C1375     1.0  0.89021  0.16872  0.71612  1.0000
  C   C1376     1.0  0.86722  0.21074  0.71381  1.0000
  C   C1377     1.0  0.71320  0.16381  0.63627  1.0000
  C   C1378     1.0  0.71158  0.17543  0.64787  1.0000
  C   C1379     1.0  0.73161  0.18513  0.64903  1.0000
  C   C1380     1.0  0.75331  0.18350  0.63847  1.0000
  C   C1381     1.0  0.75484  0.17205  0.62683  1.0000
  C   C1382     1.0  0.73493  0.16216  0.62575  1.0000
  H   H1372     1.0  0.69482  0.17683  0.65605  1.0000
  H   H1373     1.0  0.73024  0.19395  0.65804  1.0000
  H   H1374     1.0  0.77154  0.17077  0.61861  1.0000
  H   H1375     1.0  0.73637  0.15342  0.61673  1.0000
  C   C1383     1.0  0.58720  0.05040  0.65632  1.0000
  C   C1384     1.0  0.75003  0.16219  0.53235  1.0000
  C   C1385     1.0  0.58826  0.06766  0.63078  1.0000
  C   C1386     1.0  0.61287  0.07036  0.62908  1.0000
  C   C1387     1.0  0.62466  0.06284  0.64100  1.0000
  C   C1388     1.0  0.61184  0.05291  0.65459  1.0000
  H   H1376     1.0  0.64362  0.06467  0.63980  1.0000
  H   H1377     1.0  0.62103  0.04721  0.66380  1.0000
  S   S470      1.0  0.90556  0.31593  0.64062  1.0000
  H   H1378     1.0  0.88149  0.28340  0.49454  1.0000
  C   C1389     1.0  0.86110  0.26331  0.48653  1.0000
  C   C1390     1.0  0.92709  0.99456  0.59187  1.0000
  C   C1391     1.0  0.78052  0.13252  0.52013  1.0000
  H   H1379     1.0  0.95350  0.98847  0.64438  1.0000
  H   H1380     1.0  0.64032  0.14052  0.63249  1.0000
  C   C1392     1.0  0.67929  0.26770  0.71377  1.0000
  C   C1393     1.0  0.58824  0.11679  0.64772  1.0000
  C   C1394     1.0  0.67298  0.17393  0.48829  1.0000
  H   H1381     1.0  0.90022  0.28299  0.56800  1.0000
  C   C1395     1.0  0.54045  0.06067  0.49236  1.0000
  C   C1396     1.0  0.54224  0.04144  0.50438  1.0000
  C   C1397     1.0  0.56270  0.03633  0.51134  1.0000
  C   C1398     1.0  0.58133  0.05055  0.50646  1.0000
  C   C1399     1.0  0.57896  0.07027  0.49478  1.0000
  C   C1400     1.0  0.61762  0.05841  0.55193  1.0000
  H   H1382     1.0  0.89121  0.29877  0.61466  1.0000
  H   H1383     1.0  0.66383  0.09010  0.56786  1.0000
  Fe  Fe234     1.0  0.79136  0.25430  0.66787  1.0000
  H   H1384     1.0  0.90870  0.99415  0.59050  1.0000
  H   H1385     1.0  0.79036  0.21206  0.50850  1.0000
  S   S471      1.0  0.78536  0.23723  0.69155  1.0000
  C   C1401     1.0  0.55873  0.07521  0.48775  1.0000
  S   S472      1.0  0.52988  0.14018  0.71864  1.0000
  H   H1386     1.0  0.79757  0.01425  0.62293  1.0000
  H   H1387     1.0  0.80502  0.11855  0.66025  1.0000
  C   C1402     1.0  0.62617  0.13269  0.64076  1.0000
  C   C1403     1.0  0.61847  0.10529  0.55528  1.0000
  C   C1404     1.0  0.74499  0.09624  0.64170  1.0000
  S   S473      1.0  0.68364  0.11033  0.49084  1.0000
  C   C1405     1.0  0.72226  0.27037  0.71101  1.0000
  N   N111      1.0  0.59019  0.11227  0.66199  1.0000
  H   H1388     1.0  0.97648  0.09892  0.67851  1.0000
  H   H1389     1.0  0.57306  0.11200  0.64458  1.0000
  C   C1406     1.0  0.65301  0.17023  0.48346  1.0000
  C   C1407     1.0  0.87529  0.30991  0.64622  1.0000
  H   H1390     1.0  0.75389  0.19993  0.52459  1.0000
  H   H1391     1.0  0.73359  0.16642  0.54048  1.0000
  C   C1408     1.0  0.82714  0.29957  0.65533  1.0000
  C   C1409     1.0  0.76495  0.09132  0.48302  1.0000
  H   H1392     1.0  0.95049  0.31077  0.57334  1.0000
  H   H1393     1.0  0.92789  0.23077  0.69216  1.0000
  H   H1394     1.0  0.98896  0.02334  0.70043  1.0000
  C   C1410     1.0  0.71480  0.29083  0.71786  1.0000
  C   C1411     1.0  0.91864  0.22159  0.68694  1.0000
  C   C1412     1.0  0.88865  0.31787  0.60824  1.0000
  H   H1395     1.0  0.64036  0.04581  0.56817  1.0000
  H   H1396     1.0  0.94352  0.18663  0.69129  1.0000
  H   H1397     1.0  0.86467  0.22937  0.71555  1.0000
  H   H1398     1.0  0.57998  0.08532  0.68047  1.0000
  H   H1399     1.0  0.77605  0.08600  0.62511  1.0000
  C   C1413     1.0  0.62793  0.12818  0.65532  1.0000
  H   H1400     1.0  0.78197  0.14666  0.66025  1.0000
  C   C1414     1.0  0.88595  0.22218  0.67523  1.0000
  H   H1401     1.0  0.55635  0.05587  0.64569  1.0000
  C   C1415     1.0  0.87162  0.28557  0.64881  1.0000
  S   S474      1.0  0.62573  0.10607  0.49650  1.0000
  S   S475      1.0  0.96994  0.28722  0.50758  1.0000
  H   H1402     1.0  0.83599  0.21893  0.70301  1.0000
  H   H1403     1.0  0.86928  0.23179  0.67114  1.0000
  H   H1404     1.0  0.52830  0.03002  0.50799  1.0000
  H   H1405     1.0  0.54192  0.09708  0.70595  1.0000
  C   C1416     1.0  0.85096  0.20488  0.70672  1.0000
  N   N112      1.0  0.63045  0.08507  0.56354  1.0000
  C   C1417     1.0  0.88879  0.26016  0.68220  1.0000
  H   H1406     1.0  0.80755  0.14760  0.50288  1.0000
  C   C1418     1.0  0.97909  0.08537  0.68823  1.0000
  H   H1407     1.0  0.74172  0.26352  0.70744  1.0000
  C   C1419     1.0  0.85446  0.18096  0.70417  1.0000
  H   H1408     1.0  0.56039  0.11574  0.67993  1.0000
  H   H1409     1.0  0.88740  0.27073  0.64722  1.0000
  C   C1420     1.0  0.79385  0.19561  0.50345  1.0000
  C   C1421     1.0  0.75958  0.13782  0.53071  1.0000
  H   H1410     1.0  0.80339  0.10768  0.63216  1.0000
  H   H1411     1.0  0.81432  0.18979  0.50058  1.0000
  S   S476      1.0  0.79681  0.29377  0.66129  1.0000
  N   N113      1.0  0.78247  0.17561  0.51318  1.0000
  H   H1412     1.0  0.80368  0.14228  0.64405  1.0000
  C   C1422     1.0  0.79179  0.15176  0.51140  1.0000
  S   S477      1.0  0.66986  0.05890  0.48780  1.0000
  H   H1413     1.0  0.75056  0.12311  0.53752  1.0000
  H   H1414     1.0  0.95492  0.02257  0.60931  1.0000
  S   S478      1.0  0.93380  0.26014  0.48721  1.0000
  C   C1423     1.0  0.64466  0.08838  0.57359  1.0000
  H   H1415     1.0  0.59899  0.00573  0.48582  1.0000
  H   H1416     1.0  0.74493  0.13111  0.66572  1.0000
  H   H1417     1.0  0.61775  0.04001  0.55046  1.0000
  H   H1418     1.0  0.73293  0.08699  0.63857  1.0000
  H   H1419     1.0  0.89965  0.27166  0.67316  1.0000
  H   H1420     1.0  0.89045  0.26385  0.69269  1.0000
  H   H1421     1.0  0.87663  0.14428  0.70716  1.0000
  C   C1424     1.0  0.84757  0.28041  0.65333  1.0000
  S   S479      1.0  0.75653  0.24658  0.66402  1.0000
  S   S480      1.0  0.90847  0.20144  0.72586  1.0000
  H   H1422     1.0  0.61109  0.11443  0.67718  1.0000
  Fe  Fe235     1.0  0.53184  0.03486  0.67673  1.0000
  C   C1425     1.0  0.92766  0.19659  0.68643  1.0000
  H   H1423     1.0  0.55810  0.09537  0.66873  1.0000
  C   C1426     1.0  0.76167  0.18100  0.52338  1.0000
  C   C1427     1.0  0.98611  0.05047  0.71328  1.0000
  H   H1424     1.0  0.64557  0.07261  0.58290  1.0000
  C   C1428     1.0  0.57539  0.05775  0.64440  1.0000
  S   S481      1.0  0.51656  0.01330  0.69830  1.0000
  C   C1429     1.0  0.50813  0.08313  0.71031  1.0000
  N   N114      1.0  0.77583  0.12042  0.64942  1.0000
  C   C1430     1.0  0.78456  0.10800  0.63816  1.0000
  C   C1431     1.0  0.75204  0.12088  0.65697  1.0000
  C   C1432     1.0  0.76928  0.09574  0.63411  1.0000
  C   C1433     1.0  0.73624  0.10890  0.65317  1.0000
  H   H1425     1.0  0.66551  0.31041  0.68348  1.0000
  H   H1426     1.0  0.51681  0.06723  0.70534  1.0000
  N   N115      1.0  0.89787  0.23397  0.68153  1.0000
  H   H1427     1.0  0.84321  0.27381  0.49058  1.0000
  H   H1428     1.0  0.60506  0.12980  0.62556  1.0000
  H   H1429     1.0  0.59315  0.08121  0.49074  1.0000
  S   S482      1.0  0.51464  0.01759  0.66388  1.0000
  H   H1430     1.0  0.76507  0.31018  0.68914  1.0000
  C   C1434     1.0  0.97344  0.99418  0.59695  1.0000
  H   H1431     1.0  0.55504  0.01085  0.48245  1.0000
  S   S483      1.0  0.76434  0.16306  0.48345  1.0000
  C   C1435     1.0  0.80266  0.99115  0.60730  1.0000
  C   C1436     1.0  0.69664  0.17076  0.47958  1.0000
  Fe  Fe236     1.0  0.65956  0.09926  0.47927  1.0000
  H   H1432     1.0  0.71214  0.17318  0.48356  1.0000
  C   C1437     1.0  0.86243  0.24426  0.47918  1.0000
  H   H1433     1.0  0.77656  0.02788  0.48187  1.0000
  Fe  Fe237     1.0  0.49679  0.99839  0.68563  1.0000
  H   H1434     1.0  0.55753  0.09008  0.47846  1.0000
  H   H1435     1.0  0.90547  0.15476  0.71956  1.0000
  H   H1436     1.0  0.72860  0.29987  0.71934  1.0000
  C   C1438     1.0  0.95289  0.01064  0.60257  1.0000
  C   C1439     1.0  0.88710  0.19279  0.71830  1.0000
  S   S484      1.0  0.97380  0.98491  0.67045  1.0000
  C   C1440     1.0  0.79255  0.98549  0.59689  1.0000
  Fe  Fe238     1.0  0.86723  0.09602  0.88278  1.0000
  S   S485      1.0  0.89251  0.06838  0.89619  1.0000
  S   S486      1.0  0.83273  0.12329  0.89024  1.0000
  Fe  Fe239     1.0  0.89795  0.08148  0.85440  1.0000
  S   S487      1.0  0.92612  0.05337  0.86554  1.0000
  S   S488      1.0  0.89715  0.08352  0.83088  1.0000
  Fe  Fe240     1.0  0.89340  0.04209  0.88175  1.0000
  S   S489      1.0  0.88832  0.00229  0.89017  1.0000
  Fe  Fe241     1.0  0.92304  0.08212  0.87882  1.0000
  S   S490      1.0  0.95678  0.08823  0.88531  1.0000
  S   S491      1.0  0.86524  0.06864  0.86992  1.0000
  S   S492      1.0  0.89772  0.11130  0.86614  1.0000
  H   H1437     1.0  0.83768  0.30724  0.95320  1.0000
  H   H1438     1.0  0.93446  0.20338  0.77281  1.0000
  S   S493      1.0  0.71370  0.07515  0.96419  1.0000
  N   N116      1.0  0.53076  0.13847  0.83405  1.0000
  S   S494      1.0  0.80866  0.15824  0.95051  1.0000
  Fe  Fe242     1.0  0.60477  0.21515  0.89708  1.0000
  S   S495      1.0  0.56882  0.21158  0.91266  1.0000
  S   S496      1.0  0.60679  0.24602  0.87767  1.0000
  Fe  Fe243     1.0  0.63424  0.17166  0.91404  1.0000
  S   S497      1.0  0.60145  0.16412  0.93140  1.0000
  S   S498      1.0  0.67348  0.15044  0.91169  1.0000
  Fe  Fe244     1.0  0.58097  0.17080  0.91305  1.0000
  S   S499      1.0  0.55197  0.14747  0.91605  1.0000
  Fe  Fe245     1.0  0.59148  0.20522  0.92973  1.0000
  S   S500      1.0  0.57875  0.22161  0.94988  1.0000
  S   S501      1.0  0.61477  0.17500  0.89570  1.0000
  S   S502      1.0  0.62645  0.21211  0.91421  1.0000
  H   H1439     1.0  0.71984  0.23256  0.74525  1.0000
  Fe  Fe246     1.0  0.77965  0.24718  0.95787  1.0000
  C   C1441     1.0  0.65408  0.23755  0.84607  1.0000
  H   H1440     1.0  0.62484  0.22424  0.73468  1.0000
  S   S503      1.0  0.51459  0.24954  0.73892  1.0000
  C   C1442     1.0  0.66678  0.30505  0.93501  1.0000
  S   S504      1.0  0.53168  0.17600  0.74815  1.0000
  S   S505      1.0  0.53974  0.08592  0.87197  1.0000
  C   C1443     1.0  0.75671  0.11777  0.95453  1.0000
  C   C1444     1.0  0.67086  0.21649  0.73755  1.0000
  C   C1445     1.0  0.96677  0.25891  0.95821  1.0000
  H   H1441     1.0  0.77746  0.12334  0.90499  1.0000
  H   H1442     1.0  0.63528  0.03462  0.95815  1.0000
  H   H1443     1.0  0.68522  0.26139  0.75740  1.0000
  Fe  Fe247     1.0  0.96461  0.14909  0.75900  1.0000
  H   H1444     1.0  0.64198  0.26105  0.75651  1.0000
  S   S506      1.0  0.96353  0.14878  0.78252  1.0000
  H   H1445     1.0  0.99022  0.10382  0.89792  1.0000
  C   C1446     1.0  0.67018  0.28823  0.86833  1.0000
  C   C1447     1.0  0.64555  0.28230  0.82725  1.0000
  N   N117      1.0  0.60128  0.29239  0.91857  1.0000
  C   C1448     1.0  0.75980  0.29365  0.91211  1.0000
  Fe  Fe248     1.0  0.50471  0.21184  0.74525  1.0000
  H   H1446     1.0  0.87407  0.13811  0.79676  1.0000
  S   S507      1.0  0.94004  0.13718  0.74785  1.0000
  S   S508      1.0  0.96300  0.18641  0.74474  1.0000
  S   S509      1.0  0.73796  0.25580  0.96071  1.0000
  C   C1449     1.0  0.89694  0.26770  0.96494  1.0000
  C   C1450     1.0  0.93958  0.16077  0.88825  1.0000
  C   C1451     1.0  0.56039  0.28174  0.75172  1.0000
  C   C1452     1.0  0.50788  0.16899  0.81775  1.0000
  H   H1447     1.0  0.68359  0.30246  0.83476  1.0000
  C   C1453     1.0  0.85029  0.00821  0.86214  1.0000
  C   C1454     1.0  0.88461  0.17309  0.76300  1.0000
  H   H1448     1.0  0.88675  0.25635  0.94775  1.0000
  C   C1455     1.0  0.95734  0.16274  0.89570  1.0000
  H   H1449     1.0  0.50636  0.09717  0.78230  1.0000
  C   C1456     1.0  0.65695  0.24824  0.75139  1.0000
  C   C1457     1.0  0.67506  0.21174  0.94849  1.0000
  H   H1450     1.0  0.77072  0.12598  0.95716  1.0000
  H   H1451     1.0  0.89806  0.19657  0.90940  1.0000
  H   H1452     1.0  0.77287  0.28035  0.90627  1.0000
  C   C1458     1.0  0.62702  0.26818  0.83204  1.0000
  Fe  Fe249     1.0  0.78305  0.19470  0.95327  1.0000
  C   C1459     1.0  0.91858  0.20088  0.78195  1.0000
  C   C1460     1.0  0.88936  0.18552  0.91961  1.0000
  C   C1461     1.0  0.76830  0.11994  0.92827  1.0000
  C   C1462     1.0  0.67211  0.25230  0.84117  1.0000
  C   C1463     1.0  0.61046  0.10543  0.92425  1.0000
  N   N118      1.0  0.66783  0.27420  0.83170  1.0000
  H   H1453     1.0  0.71516  0.17558  0.92175  1.0000
  S   S510      1.0  0.74193  0.19896  0.95572  1.0000
  C   C1464     1.0  0.54289  0.10352  0.88404  1.0000
  C   C1465     1.0  0.52484  0.10672  0.89646  1.0000
  C   C1466     1.0  0.52793  0.12034  0.90608  1.0000
  C   C1467     1.0  0.54883  0.13124  0.90328  1.0000
  C   C1468     1.0  0.56674  0.12837  0.89076  1.0000
  C   C1469     1.0  0.56383  0.11441  0.88121  1.0000
  C   C1470     1.0  0.64762  0.21935  0.97088  1.0000
  H   H1454     1.0  0.61110  0.26939  0.90278  1.0000
  H   H1455     1.0  0.58294  0.13663  0.88852  1.0000
  H   H1456     1.0  0.57793  0.11191  0.87167  1.0000
  C   C1471     1.0  0.55705  0.24957  0.94861  1.0000
  C   C1472     1.0  0.54484  0.25870  0.96123  1.0000
  C   C1473     1.0  0.52785  0.28125  0.96041  1.0000
  C   C1474     1.0  0.52336  0.29494  0.94694  1.0000
  C   C1475     1.0  0.53565  0.28586  0.93431  1.0000
  C   C1476     1.0  0.55235  0.26317  0.93514  1.0000
  C   C1477     1.0  0.68659  0.28980  0.82705  1.0000
  H   H1457     1.0  0.51021  0.12540  0.85476  1.0000
  H   H1458     1.0  0.53216  0.29636  0.92387  1.0000
  H   H1459     1.0  0.56178  0.25636  0.92536  1.0000
  C   C1478     1.0  0.53013  0.15379  0.82085  1.0000
  C   C1479     1.0  0.67257  0.26447  0.87687  1.0000
  C   C1480     1.0  0.65323  0.25122  0.87987  1.0000
  C   C1481     1.0  0.63166  0.26161  0.87414  1.0000
  C   C1482     1.0  0.62986  0.28485  0.86511  1.0000
  Fe  Fe250     1.0  0.74326  0.23661  0.94216  1.0000
  H   H1460     1.0  0.68904  0.25658  0.88147  1.0000
  H   H1461     1.0  0.65512  0.23297  0.88652  1.0000
  H   H1462     1.0  0.61347  0.29290  0.86044  1.0000
  H   H1463     1.0  0.51418  0.12228  0.91584  1.0000
  C   C1483     1.0  0.68616  0.28131  0.91143  1.0000
  C   C1484     1.0  0.69633  0.27275  0.92396  1.0000
  H   H1464     1.0  0.89546  0.18958  0.92877  1.0000
  H   H1465     1.0  0.69356  0.27230  0.90221  1.0000
  C   C1485     1.0  0.70203  0.09653  0.94990  1.0000
  C   C1486     1.0  0.71354  0.09452  0.93566  1.0000
  C   C1487     1.0  0.70441  0.11110  0.92405  1.0000
  C   C1488     1.0  0.68358  0.12965  0.92660  1.0000
  C   C1489     1.0  0.67194  0.13176  0.94083  1.0000
  C   C1490     1.0  0.68148  0.11547  0.95248  1.0000
  H   H1466     1.0  0.72952  0.08006  0.93359  1.0000
  H   H1467     1.0  0.71354  0.10950  0.91305  1.0000
  H   H1468     1.0  0.65590  0.14613  0.94287  1.0000
  H   H1469     1.0  0.67321  0.11792  0.96342  1.0000
  C   C1491     1.0  0.81055  0.28829  0.96840  1.0000
  C   C1492     1.0  0.95782  0.11754  0.88817  1.0000
  C   C1493     1.0  0.93984  0.13828  0.88446  1.0000
  H   H1470     1.0  0.53664  0.11254  0.76199  1.0000
  H   H1471     1.0  0.63442  0.26670  0.92210  1.0000
  C   C1494     1.0  0.50456  0.07936  0.75190  1.0000
  C   C1495     1.0  0.74576  0.15065  0.91174  1.0000
  H   H1472     1.0  0.92578  0.13686  0.87900  1.0000
  H   H1473     1.0  0.90879  0.03525  0.82337  1.0000
  S   S511      1.0  0.72233  0.24843  0.92376  1.0000
  H   H1474     1.0  0.58814  0.06917  0.95554  1.0000
  C   C1496     1.0  0.82720  0.13308  0.90690  1.0000
  C   C1497     1.0  0.81290  0.15656  0.90823  1.0000
  C   C1498     1.0  0.80710  0.16452  0.92155  1.0000
  C   C1499     1.0  0.81567  0.14902  0.93362  1.0000
  C   C1500     1.0  0.82993  0.12553  0.93231  1.0000
  C   C1501     1.0  0.83554  0.11749  0.91902  1.0000
  H   H1475     1.0  0.80611  0.16858  0.89894  1.0000
  H   H1476     1.0  0.79596  0.18260  0.92248  1.0000
  H   H1477     1.0  0.83647  0.11341  0.94165  1.0000
  H   H1478     1.0  0.84608  0.09914  0.91819  1.0000
  H   H1479     1.0  0.85592  0.01946  0.86834  1.0000
  H   H1480     1.0  0.88095  0.17534  0.75219  1.0000
  H   H1481     1.0  0.65711  0.22062  0.85398  1.0000
  C   C1502     1.0  0.95572  0.30194  0.94700  1.0000
  C   C1503     1.0  0.68635  0.28439  0.93590  1.0000
  H   H1482     1.0  0.64891  0.10814  0.91675  1.0000
  C   C1504     1.0  0.76413  0.29669  0.92519  1.0000
  C   C1505     1.0  0.91696  0.10051  0.81762  1.0000
  C   C1506     1.0  0.92980  0.11554  0.82137  1.0000
  C   C1507     1.0  0.94457  0.12983  0.81049  1.0000
  C   C1508     1.0  0.94667  0.12903  0.79587  1.0000
  C   C1509     1.0  0.93423  0.11363  0.79213  1.0000
  C   C1510     1.0  0.91929  0.09948  0.80300  1.0000
  H   H1483     1.0  0.92811  0.11637  0.83263  1.0000
  H   H1484     1.0  0.95417  0.14172  0.81344  1.0000
  H   H1485     1.0  0.93581  0.11290  0.78087  1.0000
  H   H1486     1.0  0.90944  0.08781  0.80007  1.0000
  H   H1487     1.0  0.74288  0.15896  0.90081  1.0000
  C   C1511     1.0  0.64307  0.08277  0.93720  1.0000
  C   C1512     1.0  0.96052  0.26571  0.97182  1.0000
  H   H1488     1.0  0.59413  0.22085  0.97634  1.0000
  S   S512      1.0  0.98485  0.08399  0.72960  1.0000
  H   H1489     1.0  0.60925  0.27498  0.82866  1.0000
  C   C1513     1.0  0.61645  0.27495  0.92834  1.0000
  C   C1514     1.0  0.63548  0.09961  0.92522  1.0000
  C   C1515     1.0  0.96403  0.27703  0.94581  1.0000
  C   C1516     1.0  0.62621  0.23364  0.74323  1.0000
  Fe  Fe251     1.0  0.97561  0.12336  0.73321  1.0000
  C   C1517     1.0  0.88104  0.02342  0.84158  1.0000
  H   H1490     1.0  0.51543  0.07785  0.74118  1.0000
  H   H1491     1.0  0.92524  0.17656  0.88567  1.0000
  H   H1492     1.0  0.64182  0.29995  0.82011  1.0000
  H   H1493     1.0  0.75011  0.31536  0.94327  1.0000
  H   H1494     1.0  0.64718  0.31611  0.85543  1.0000
  H   H1495     1.0  0.68214  0.23241  0.96264  1.0000
  H   H1496     1.0  0.90576  0.20189  0.75698  1.0000
  H   H1497     1.0  0.53993  0.21831  0.76150  1.0000
  Fe  Fe252     1.0  0.73961  0.21742  0.97414  1.0000
  H   H1498     1.0  0.54039  0.10458  0.74473  1.0000
  C   C1518     1.0  0.66952  0.22220  0.96083  1.0000
  C   C1519     1.0  0.73546  0.30369  0.89296  1.0000
  C   C1520     1.0  0.50361  0.11308  0.81314  1.0000
  C   C1521     1.0  0.49536  0.13052  0.80157  1.0000
  S   S513      1.0  0.78482  0.23077  0.93798  1.0000
  N   N119      1.0  0.63187  0.20613  0.96879  1.0000
  C   C1522     1.0  0.73023  0.16004  0.92352  1.0000
  Fe  Fe253     1.0  0.98532  0.19727  0.91062  1.0000
  H   H1499     1.0  0.96799  0.27185  0.93532  1.0000
  N   N120      1.0  0.51284  0.08902  0.76115  1.0000
  H   H1500     1.0  0.91782  0.99589  0.81429  1.0000
  C   C1523     1.0  0.59332  0.09459  0.93527  1.0000
  N   N121      1.0  0.89682  0.15927  0.91888  1.0000
  C   C1524     1.0  0.88481  0.14939  0.91157  1.0000
  C   C1525     1.0  0.91690  0.14529  0.92449  1.0000
  C   C1526     1.0  0.89268  0.12483  0.90987  1.0000
  C   C1527     1.0  0.92497  0.12050  0.92321  1.0000
  C   C1528     1.0  0.91270  0.11024  0.91587  1.0000
  H   H1501     1.0  0.86934  0.16061  0.90674  1.0000
  H   H1502     1.0  0.92740  0.15353  0.92947  1.0000
  H   H1503     1.0  0.88378  0.11746  0.90352  1.0000
  H   H1504     1.0  0.94138  0.10969  0.92721  1.0000
  H   H1505     1.0  0.91950  0.09139  0.91418  1.0000
  H   H1506     1.0  0.86885  0.19138  0.92122  1.0000
  H   H1507     1.0  0.78357  0.10460  0.93000  1.0000
  C   C1529     1.0  0.76494  0.13049  0.91410  1.0000
  C   C1530     1.0  0.73400  0.14891  0.93756  1.0000
  H   H1508     1.0  0.72176  0.15615  0.94668  1.0000
  N   N122      1.0  0.75267  0.12893  0.93978  1.0000
  H   H1509     1.0  0.68921  0.24649  0.84534  1.0000
  H   H1510     1.0  0.92234  0.00191  0.86241  1.0000
  S   S514      1.0  0.98113  0.23580  0.91439  1.0000
  C   C1531     1.0  0.58721  0.31376  0.92254  1.0000
  C   C1532     1.0  0.60041  0.28657  0.90578  1.0000
  C   C1533     1.0  0.65881  0.19844  0.94638  1.0000
  H   H1511     1.0  0.91232  0.27552  0.95798  1.0000
  H   H1512     1.0  0.66283  0.19039  0.93676  1.0000
  H   H1513     1.0  0.76323  0.09747  0.95564  1.0000
  C   C1534     1.0  0.63716  0.19582  0.95671  1.0000
  C   C1535     1.0  0.66724  0.30224  0.91040  1.0000
  Fe  Fe254     1.0  0.51048  0.16357  0.73527  1.0000
  C   C1536     1.0  0.54332  0.27740  0.74459  1.0000
  S   S515      1.0  0.78088  0.21035  0.97297  1.0000
  H   H1514     1.0  0.54837  0.24826  0.97168  1.0000
  C   C1537     1.0  0.89873  0.18800  0.76578  1.0000
  C   C1538     1.0  0.64900  0.29805  0.86225  1.0000
  C   C1539     1.0  0.97616  0.11976  0.89511  1.0000
  C   C1540     1.0  0.89470  0.16761  0.79040  1.0000
  S   S516      1.0  0.80436  0.27521  0.95494  1.0000
  H   H1515     1.0  0.53584  0.29182  0.73638  1.0000
  S   S517      1.0  0.64201  0.30457  0.76750  1.0000
  C   C1541     1.0  0.88063  0.15230  0.78799  1.0000
  C   C1542     1.0  0.90376  0.99854  0.82388  1.0000
  S   S518      1.0  0.69276  0.30638  0.86579  1.0000
  C   C1543     1.0  0.68138  0.24833  0.75204  1.0000
  H   H1516     1.0  0.69396  0.27785  0.94567  1.0000
  N   N123      1.0  0.86879  0.00479  0.84896  1.0000
  C   C1544     1.0  0.95184  0.29053  0.97304  1.0000
  H   H1517     1.0  0.62077  0.28426  0.93608  1.0000
  H   H1518     1.0  0.66259  0.07838  0.93785  1.0000
  Fe  Fe255     1.0  0.50292  0.07389  0.87584  1.0000
  H   H1519     1.0  0.60425  0.11851  0.91505  1.0000
  H   H1520     1.0  0.51839  0.28811  0.97020  1.0000
  Fe  Fe256     1.0  0.94168  0.17323  0.73221  1.0000
  S   S519      1.0  0.95403  0.19014  0.90216  1.0000
  S   S520      1.0  0.51738  0.14077  0.78666  1.0000
  H   H1521     1.0  0.55810  0.12504  0.84723  1.0000
  S   S521      1.0  0.97800  0.22767  0.95715  1.0000
  S   S522      1.0  0.59246  0.26758  0.77099  1.0000
  C   C1545     1.0  0.63136  0.24566  0.84152  1.0000
  H   H1522     1.0  0.74912  0.31171  0.88392  1.0000
  H   H1523     1.0  0.89881  0.16505  0.80113  1.0000
  H   H1524     1.0  0.60643  0.26004  0.93456  1.0000
  H   H1525     1.0  0.86517  0.14298  0.77208  1.0000
  H   H1526     1.0  0.55182  0.10244  0.83901  1.0000
  C   C1546     1.0  0.97593  0.14229  0.89889  1.0000
  H   H1527     1.0  0.55188  0.08166  0.75935  1.0000
  C   C1547     1.0  0.88267  0.25682  0.95923  1.0000
  H   H1528     1.0  0.56595  0.29946  0.74900  1.0000
  C   C1548     1.0  0.70077  0.23212  0.74527  1.0000
  H   H1529     1.0  0.69184  0.21405  0.94055  1.0000
  C   C1549     1.0  0.55386  0.12199  0.83719  1.0000
  C   C1550     1.0  0.53666  0.09724  0.75660  1.0000
  H   H1530     1.0  0.57377  0.09932  0.93462  1.0000
  H   H1531     1.0  0.87741  0.04053  0.84551  1.0000
  C   C1551     1.0  0.58575  0.30268  0.89638  1.0000
  H   H1532     1.0  0.52318  0.10540  0.81252  1.0000
  C   C1552     1.0  0.87571  0.15499  0.77417  1.0000
  Fe  Fe257     1.0  0.50270  0.16439  0.76718  1.0000
  H   H1533     1.0  0.61631  0.25310  0.74071  1.0000
  C   C1553     1.0  0.53592  0.25451  0.74806  1.0000
  C   C1554     1.0  0.89880  0.02054  0.82900  1.0000
  C   C1555     1.0  0.86294  0.24684  0.96833  1.0000
  N   N124      1.0  0.62614  0.07207  0.94793  1.0000
  H   H1534     1.0  0.56990  0.12488  0.82825  1.0000
  H   H1535     1.0  0.90679  0.21912  0.78331  1.0000
  C   C1556     1.0  0.63440  0.05339  0.96002  1.0000
  N   N125      1.0  0.65200  0.23280  0.74398  1.0000
  N   N126      1.0  0.90391  0.18489  0.77929  1.0000
  Fe  Fe258     1.0  0.60358  0.30489  0.76491  1.0000
  H   H1536     1.0  0.61643  0.22482  0.75386  1.0000
  C   C1557     1.0  0.54561  0.23597  0.75873  1.0000
  H   H1537     1.0  0.92683  0.19251  0.79178  1.0000
  C   C1558     1.0  0.56269  0.24031  0.76585  1.0000
  C   C1559     1.0  0.57012  0.26319  0.76236  1.0000
  H   H1538     1.0  0.65304  0.05462  0.96139  1.0000
  H   H1539     1.0  0.54664  0.15388  0.81244  1.0000
  C   C1560     1.0  0.60154  0.07773  0.94707  1.0000
  H   H1540     1.0  0.57016  0.22591  0.77408  1.0000
  H   H1541     1.0  0.71050  0.20378  0.73239  1.0000
  C   C1561     1.0  0.74703  0.31318  0.93300  1.0000
  H   H1542     1.0  0.70561  0.27857  0.82665  1.0000
  H   H1543     1.0  0.73919  0.12052  0.96261  1.0000
  H   H1544     1.0  0.62441  0.18573  0.95494  1.0000
  H   H1545     1.0  0.61679  0.23497  0.84582  1.0000
  H   H1546     1.0  0.50731  0.18045  0.80708  1.0000
  C   C1562     1.0  0.83482  0.31328  0.97481  1.0000
  H   H1547     1.0  0.85128  0.23893  0.96394  1.0000
  C   C1563     1.0  0.69551  0.21589  0.73810  1.0000
  C   C1564     1.0  0.49946  0.09020  0.77482  1.0000
  C   C1565     1.0  0.50964  0.13779  0.84439  1.0000
  H   H1548     1.0  0.50876  0.09824  0.89879  1.0000
  C   C1566     1.0  0.94946  0.30871  0.96063  1.0000
  H   H1549     1.0  0.73747  0.28376  0.89291  1.0000
  H   H1550     1.0  0.66708  0.20441  0.73151  1.0000
  H   H1551     1.0  0.62138  0.05581  0.97041  1.0000
  H   H1552     1.0  0.83203  0.01763  0.85929  1.0000
  H   H1553     1.0  0.71657  0.31271  0.89087  1.0000
  C   C1567     1.0  0.82845  0.30339  0.96440  1.0000
  H   H1554     1.0  0.68560  0.30101  0.81601  1.0000
  H   H1555     1.0  0.84853  0.99029  0.86958  1.0000
  H   H1556     1.0  0.65932  0.31428  0.94414  1.0000
  H   H1557     1.0  0.78055  0.28621  0.92933  1.0000
  H   H1558     1.0  0.66018  0.30890  0.90046  1.0000
  C   C1568     1.0  0.65759  0.31437  0.92210  1.0000
  H   H1559     1.0  0.58528  0.29802  0.88620  1.0000
  N   N127      1.0  0.73915  0.30693  0.90686  1.0000
  H   H1560     1.0  0.95370  0.31594  0.93738  1.0000
  H   H1561     1.0  0.98972  0.14364  0.90460  1.0000
  H   H1562     1.0  0.82866  0.60063  0.20866  1.0000
  Fe  Fe259     1.0  0.88211  0.38707  0.99876  1.0000
  S   S523      1.0  0.86561  0.35989  0.01746  1.0000
  S   S524      1.0  0.87047  0.42905  0.99558  1.0000
  Fe  Fe260     1.0  0.90475  0.33847  0.01602  1.0000
  C   C1569     1.0  0.97604  0.35355  0.04850  1.0000
  Fe  Fe261     1.0  0.86269  0.33960  0.00058  1.0000
  H   H1563     1.0  0.68576  0.35028  0.19921  1.0000
  S   S525      1.0  0.92149  0.36679  0.99835  1.0000
  C   C1570     1.0  0.81602  0.63549  0.21577  1.0000
  H   H1564     1.0  0.98021  0.36605  0.06704  1.0000
  S   S526      1.0  0.83053  0.32014  0.00295  1.0000
  Fe  Fe262     1.0  0.92764  0.54435  0.99848  1.0000
  S   S527      1.0  0.89294  0.57310  0.00242  1.0000
  S   S528      1.0  0.93228  0.50246  0.00523  1.0000
  C   C1571     1.0  0.53099  0.37104  0.14426  1.0000
  Fe  Fe263     1.0  0.91665  0.59128  0.01094  1.0000
  S   S529      1.0  0.90380  0.60718  0.03143  1.0000
  H   H1565     1.0  0.51838  0.32370  0.02792  1.0000
  C   C1572     1.0  0.51442  0.34641  0.13271  1.0000
  S   S530      1.0  0.95018  0.56127  0.00850  1.0000
  Fe  Fe264     1.0  0.53159  0.39251  0.19864  1.0000
  H   H1566     1.0  0.91733  0.56752  0.05606  1.0000
  Fe  Fe265     1.0  0.53810  0.44217  0.18003  1.0000
  S   S531      1.0  0.57305  0.42625  0.16610  1.0000
  H   H1567     1.0  0.55317  0.34788  0.12933  1.0000
  Fe  Fe266     1.0  0.58332  0.40371  0.18697  1.0000
  Fe  Fe267     1.0  0.94733  0.34669  0.10373  1.0000
  S   S532      1.0  0.51689  0.41426  0.17887  1.0000
  S   S533      1.0  0.54981  0.42204  0.20104  1.0000
  S   S534      1.0  0.55667  0.38090  0.14673  1.0000
  C   C1573     1.0  0.96798  0.44535  0.19076  1.0000
  C   C1574     1.0  0.98372  0.35053  0.06160  1.0000
  H   H1568     1.0  0.84899  0.61903  0.98396  1.0000
  H   H1569     1.0  0.51102  0.60898  0.99364  1.0000
  S   S535      1.0  0.53316  0.54336  0.11314  1.0000
  H   H1570     1.0  0.98913  0.47282  0.22186  1.0000
  N   N128      1.0  0.68266  0.32060  0.21706  1.0000
  H   H1571     1.0  0.89986  0.63154  0.05511  1.0000
  C   C1575     1.0  0.51607  0.48422  0.11374  1.0000
  C   C1576     1.0  0.66047  0.39977  0.21965  1.0000
  H   H1572     1.0  0.95976  0.43655  0.18440  1.0000
  C   C1577     1.0  0.92660  0.61377  0.03896  1.0000
  Fe  Fe268     1.0  0.91376  0.34628  0.98318  1.0000
  H   H1573     1.0  0.87740  0.56474  0.05440  1.0000
  C   C1578     1.0  0.89970  0.63055  0.16739  1.0000
  C   C1579     1.0  0.95186  0.60626  0.03364  1.0000
  C   C1580     1.0  0.96250  0.62280  0.05204  1.0000
  C   C1581     1.0  0.63004  0.39944  0.20561  1.0000
  C   C1582     1.0  0.97055  0.48179  0.22581  1.0000
  H   H1574     1.0  0.93933  0.44975  0.01079  1.0000
  S   S536      1.0  0.62335  0.39841  0.18894  1.0000
  S   S537      1.0  0.92839  0.61498  0.98951  1.0000
  C   C1583     1.0  0.50700  0.37961  0.15136  1.0000
  C   C1584     1.0  0.67353  0.33669  0.20440  1.0000
  H   H1575     1.0  0.54743  0.46209  0.10204  1.0000
  C   C1585     1.0  0.96968  0.61052  0.04025  1.0000
  H   H1576     1.0  0.86267  0.48188  0.99059  1.0000
  C   C1586     1.0  0.93081  0.32650  0.07362  1.0000
  H   H1577     1.0  0.87278  0.53706  0.05029  1.0000
  H   H1578     1.0  0.96641  0.37142  0.04371  1.0000
  C   C1587     1.0  0.59002  0.49537  0.16006  1.0000
  H   H1579     1.0  0.60755  0.44885  0.19385  1.0000
  H   H1580     1.0  0.90359  0.36659  0.04036  1.0000
  H   H1581     1.0  0.90092  0.46952  0.22549  1.0000
  C   C1588     1.0  0.82478  0.60990  0.21775  1.0000
  S   S538      1.0  0.50913  0.36961  0.21691  1.0000
  C   C1589     1.0  0.56614  0.48202  0.20004  1.0000
  H   H1582     1.0  0.88666  0.51111  0.99374  1.0000
  C   C1590     1.0  0.57559  0.49689  0.17384  1.0000
  Fe  Fe269     1.0  0.50724  0.63561  0.09963  1.0000
  H   H1583     1.0  0.52997  0.35185  0.01928  1.0000
  H   H1584     1.0  0.49778  0.53151  0.16516  1.0000
  H   H1585     1.0  0.74238  0.65017  0.15842  1.0000
  H   H1586     1.0  0.50886  0.58922  0.03534  1.0000
  H   H1587     1.0  0.97089  0.63362  0.98693  1.0000
  C   C1591     1.0  0.61153  0.40001  0.21804  1.0000
  H   H1588     1.0  0.98781  0.43626  0.19023  1.0000
  H   H1589     1.0  0.88236  0.35511  0.12042  1.0000
  Fe  Fe270     1.0  0.98095  0.63656  0.11109  1.0000
  H   H1590     1.0  0.63338  0.44507  0.16978  1.0000
  C   C1592     1.0  0.53056  0.52742  0.13114  1.0000
  C   C1593     1.0  0.54453  0.50358  0.13416  1.0000
  C   C1594     1.0  0.54116  0.48955  0.14823  1.0000
  Fe  Fe271     1.0  0.96046  0.58371  0.98643  1.0000
  S   S539      1.0  0.97946  0.39428  0.12983  1.0000
  H   H1591     1.0  0.55757  0.49573  0.12552  1.0000
  H   H1592     1.0  0.55165  0.47105  0.15034  1.0000
  C   C1595     1.0  0.87520  0.33974  0.12855  1.0000
  H   H1593     1.0  0.92986  0.61591  0.15136  1.0000
  C   C1596     1.0  0.91937  0.62572  0.05089  1.0000
  C   C1597     1.0  0.95745  0.50019  0.21652  1.0000
  N   N129      1.0  0.49975  0.48562  0.12659  1.0000
  C   C1598     1.0  0.53464  0.35454  0.13488  1.0000
  C   C1599     1.0  0.65446  0.39949  0.20642  1.0000
  H   H1594     1.0  0.56970  0.49742  0.20401  1.0000
  H   H1595     1.0  0.54982  0.42661  0.12286  1.0000
  C   C1600     1.0  0.97978  0.33324  0.04193  1.0000
  C   C1601     1.0  0.51081  0.52364  0.15651  1.0000
  S   S540      1.0  0.52016  0.48241  0.17721  1.0000
  H   H1596     1.0  0.93151  0.63989  0.06643  1.0000
  S   S541      1.0  0.93506  0.35510  0.12609  1.0000
  Fe  Fe272     1.0  0.55282  0.39648  0.16665  1.0000
  H   H1597     1.0  0.52015  0.42956  0.14595  1.0000
  C   C1602     1.0  0.51898  0.44481  0.13684  1.0000
  C   C1603     1.0  0.78309  0.51566  0.22381  1.0000
  C   C1604     1.0  0.91818  0.45668  0.22297  1.0000
  S   S542      1.0  0.97073  0.50925  0.19834  1.0000
  S   S543      1.0  0.98679  0.31874  0.13402  1.0000
  H   H1598     1.0  0.90443  0.38557  0.06086  1.0000
  C   C1605     1.0  0.88749  0.44915  0.99877  1.0000
  C   C1606     1.0  0.90922  0.44024  0.00442  1.0000
  C   C1607     1.0  0.92266  0.45685  0.00630  1.0000
  C   C1608     1.0  0.91469  0.48251  0.00244  1.0000
  C   C1609     1.0  0.89306  0.49143  0.99668  1.0000
  C   C1610     1.0  0.87949  0.47482  0.99493  1.0000
  H   H1599     1.0  0.91560  0.42056  0.00741  1.0000
  H   H1600     1.0  0.73815  0.34302  0.22096  1.0000
  H   H1601     1.0  0.96133  0.55732  0.22046  1.0000
  Fe  Fe273     1.0  0.97418  0.35888  0.12479  1.0000
  H   H1602     1.0  0.59269  0.39981  0.21753  1.0000
  H   H1603     1.0  0.58469  0.50839  0.15061  1.0000
  H   H1604     1.0  0.67935  0.39979  0.22019  1.0000
  H   H1605     1.0  0.85860  0.34809  0.13580  1.0000
  C   C1611     1.0  0.91154  0.36603  0.06125  1.0000
  S   S544      1.0  0.50707  0.61084  0.12140  1.0000
  C   C1612     1.0  0.91097  0.35532  0.04966  1.0000
  H   H1606     1.0  0.98093  0.51526  0.04095  1.0000
  C   C1613     1.0  0.61089  0.47661  0.15854  1.0000
  C   C1614     1.0  0.88395  0.55181  0.04666  1.0000
  H   H1607     1.0  0.62199  0.47489  0.14790  1.0000
  C   C1615     1.0  0.53436  0.46304  0.11218  1.0000
  H   H1608     1.0  0.56981  0.46470  0.20809  1.0000
  C   C1616     1.0  0.92188  0.35178  0.07312  1.0000
  C   C1617     1.0  0.52429  0.49952  0.15944  1.0000
  H   H1609     1.0  0.89500  0.33069  0.10200  1.0000
  H   H1610     1.0  0.88960  0.33001  0.13509  1.0000
  H   H1611     1.0  0.52458  0.56479  0.99202  1.0000
  H   H1612     1.0  0.95770  0.59694  0.02452  1.0000
  H   H1613     1.0  0.66880  0.39928  0.19678  1.0000
  C   C1618     1.0  0.51970  0.57834  0.98264  1.0000
  S   S545      1.0  0.56616  0.37240  0.18629  1.0000
  H   H1614     1.0  0.97301  0.33522  0.03202  1.0000
  H   H1615     1.0  0.89563  0.61252  0.17270  1.0000
  N   N130      1.0  0.91045  0.54122  0.04568  1.0000
  C   C1619     1.0  0.92518  0.55161  0.05093  1.0000
  C   C1620     1.0  0.92052  0.52162  0.03883  1.0000
  C   C1621     1.0  0.95070  0.54242  0.04936  1.0000
  C   C1622     1.0  0.94593  0.51177  0.03722  1.0000
  C   C1623     1.0  0.96111  0.52233  0.04247  1.0000
  C   C1624     1.0  0.92049  0.33020  0.04997  1.0000
  C   C1625     1.0  0.93200  0.45877  0.20883  1.0000
  H   H1616     1.0  0.90901  0.51377  0.03430  1.0000
  C   C1626     1.0  0.96307  0.42504  0.21639  1.0000
  S   S546      1.0  0.98589  0.62874  0.05933  1.0000
  H   H1617     1.0  0.79015  0.51364  0.21263  1.0000
  H   H1618     1.0  0.96233  0.55121  0.05321  1.0000
  H   H1619     1.0  0.97910  0.43557  0.14189  1.0000
  C   C1627     1.0  0.88126  0.31966  0.10781  1.0000
  C   C1628     1.0  0.99030  0.41971  0.14752  1.0000
  C   C1629     1.0  0.53575  0.44321  0.12383  1.0000
  S   S547      1.0  0.92390  0.36630  0.08690  1.0000
  S   S548      1.0  0.51188  0.60492  0.08755  1.0000
  C   C1630     1.0  0.74628  0.32430  0.21962  1.0000
  H   H1620     1.0  0.98566  0.57344  0.15757  1.0000
  H   H1621     1.0  0.59019  0.64082  0.08853  1.0000
  S   S549      1.0  0.97970  0.61178  0.13302  1.0000
  N   N131      1.0  0.86911  0.32233  0.12152  1.0000
  H   H1622     1.0  0.92514  0.47333  0.20041  1.0000
  C   C1631     1.0  0.51379  0.53754  0.14235  1.0000
  C   C1632     1.0  0.61729  0.45990  0.17079  1.0000
  N   N132      1.0  0.95421  0.44317  0.20573  1.0000
  H   H1623     1.0  0.98917  0.60426  0.03624  1.0000
  H   H1624     1.0  0.51738  0.33348  0.12557  1.0000
  H   H1625     1.0  0.53320  0.34334  0.17588  1.0000
  H   H1626     1.0  0.54617  0.48543  0.19942  1.0000
  C   C1633     1.0  0.60246  0.46201  0.18440  1.0000
  Fe  Fe274     1.0  0.50828  0.58077  0.10972  1.0000
  H   H1627     1.0  0.55909  0.51124  0.17490  1.0000
  N   N133      1.0  0.58166  0.48006  0.18574  1.0000
  N   N134      1.0  0.49654  0.33583  0.18114  1.0000
  H   H1628     1.0  0.50293  0.55596  0.14009  1.0000
  H   H1629     1.0  0.92325  0.52626  0.21465  1.0000
  C   C1634     1.0  0.51447  0.34207  0.02081  1.0000
  C   C1635     1.0  0.51689  0.34329  0.18495  1.0000
  C   C1636     1.0  0.86527  0.64889  0.18468  1.0000
  H   H1630     1.0  0.49426  0.60358  0.05885  1.0000
  H   H1631     1.0  0.88050  0.56249  0.03588  1.0000
  H   H1632     1.0  0.51123  0.36230  0.18719  1.0000
  C   C1637     1.0  0.93342  0.51194  0.22180  1.0000
  S   S550      1.0  0.87557  0.36863  0.98207  1.0000
  H   H1633     1.0  0.73724  0.32955  0.19850  1.0000
  H   H1634     1.0  0.95384  0.49655  0.03149  1.0000
  H   H1635     1.0  0.54218  0.63946  0.11928  1.0000
  C   C1638     1.0  0.93725  0.63040  0.05736  1.0000
  Fe  Fe275     1.0  0.97932  0.64693  0.07889  1.0000
  H   H1636     1.0  0.52242  0.33068  0.19481  1.0000
  C   C1639     1.0  0.91902  0.63232  0.15534  1.0000
  H   H1637     1.0  0.65432  0.34682  0.20764  1.0000
  H   H1638     1.0  0.50390  0.39229  0.15860  1.0000
  Fe  Fe276     1.0  0.90818  0.59431  0.98057  1.0000
  H   H1639     1.0  0.61503  0.64313  0.10612  1.0000
  H   H1640     1.0  0.51536  0.49975  0.10472  1.0000
  H   H1641     1.0  0.96753  0.46509  0.18560  1.0000
  H   H1642     1.0  0.84920  0.64569  0.18110  1.0000
  H   H1643     1.0  0.67317  0.32615  0.19614  1.0000
  S   S551      1.0  0.94969  0.64410  0.09903  1.0000
  S   S552      1.0  0.98544  0.35361  0.10168  1.0000
  C   C1640     1.0  0.50089  0.46620  0.13803  1.0000
  C   C1641     1.0  0.98708  0.63830  0.97929  1.0000
  H   H1644     1.0  0.80535  0.64037  0.98315  1.0000
  H   H1645     1.0  0.80891  0.53816  0.22390  1.0000
  N   N135      1.0  0.88591  0.65127  0.17231  1.0000
  H   H1646     1.0  0.98059  0.41253  0.21390  1.0000
  C   C1642     1.0  0.51195  0.60320  0.98358  1.0000
  H   H1647     1.0  0.87069  0.63326  0.19341  1.0000
  H   H1648     1.0  0.81328  0.64583  0.20520  1.0000
  H   H1649     1.0  0.51345  0.33829  0.01021  1.0000
  C   C1643     1.0  0.50171  0.31885  0.17237  1.0000
  C   C1644     1.0  0.99277  0.39637  0.14419  1.0000
  H   H1650     1.0  0.56311  0.64996  0.13617  1.0000
  H   H1651     1.0  0.49483  0.34103  0.04884  1.0000
  H   H1652     1.0  0.65734  0.35148  0.43309  1.0000
  H   H1653     1.0  0.75865  0.35019  0.31743  1.0000
  H   H1654     1.0  0.56225  0.63622  0.45431  1.0000
  S   S553      1.0  0.70236  0.41673  0.26165  1.0000
  Fe  Fe277     1.0  0.82879  0.49773  0.27674  1.0000
  S   S554      1.0  0.85813  0.49361  0.28972  1.0000
  S   S555      1.0  0.79977  0.47374  0.28392  1.0000
  Fe  Fe278     1.0  0.84562  0.54182  0.25525  1.0000
  S   S556      1.0  0.87638  0.54184  0.26634  1.0000
  H   H1655     1.0  0.87954  0.33956  0.45663  1.0000
  Fe  Fe279     1.0  0.88347  0.50077  0.26824  1.0000
  S   S557      1.0  0.92218  0.47886  0.26389  1.0000
  Fe  Fe280     1.0  0.84865  0.53480  0.28703  1.0000
  S   S558      1.0  0.84289  0.55107  0.30706  1.0000
  S   S559      1.0  0.85512  0.50108  0.25545  1.0000
  S   S560      1.0  0.81700  0.53861  0.27572  1.0000
  S   S561      1.0  0.63434  0.34103  0.37071  1.0000
  S   S562      1.0  0.67294  0.37857  0.38326  1.0000
  Fe  Fe281     1.0  0.80054  0.44800  0.40899  1.0000
  S   S563      1.0  0.80286  0.44436  0.43232  1.0000
  S   S564      1.0  0.81023  0.48048  0.39171  1.0000
  Fe  Fe282     1.0  0.77862  0.40154  0.41469  1.0000
  S   S565      1.0  0.77836  0.39478  0.43848  1.0000
  S   S566      1.0  0.77063  0.37056  0.40663  1.0000
  Fe  Fe283     1.0  0.76472  0.43565  0.43672  1.0000
  S   S567      1.0  0.73116  0.45235  0.45168  1.0000
  Fe  Fe284     1.0  0.81637  0.40388  0.43186  1.0000
  Fe  Fe285     1.0  0.66087  0.34296  0.38428  1.0000
  S   S568      1.0  0.76151  0.44165  0.41338  1.0000
  S   S569      1.0  0.81746  0.40844  0.40807  1.0000
  Fe  Fe286     1.0  0.93271  0.57078  0.35003  1.0000
  S   S570      1.0  0.95022  0.54140  0.36650  1.0000
  S   S571      1.0  0.93626  0.56559  0.32714  1.0000
  Fe  Fe287     1.0  0.91360  0.60686  0.37046  1.0000
  S   S572      1.0  0.92917  0.58062  0.38888  1.0000
  H   H1656     1.0  0.87716  0.49088  0.33186  1.0000
  Fe  Fe288     1.0  0.96326  0.57182  0.37202  1.0000
  Fe  Fe289     1.0  0.91517  0.55213  0.38205  1.0000
  S   S573      1.0  0.90012  0.52177  0.39886  1.0000
  S   S574      1.0  0.94888  0.60051  0.35408  1.0000
  S   S575      1.0  0.89647  0.57910  0.36511  1.0000
  C   C1645     1.0  0.75513  0.50657  0.24654  1.0000
  H   H1657     1.0  0.92576  0.61885  0.32658  1.0000
  C   C1646     1.0  0.75669  0.52182  0.26794  1.0000
  N   N136      1.0  0.69651  0.34116  0.42774  1.0000
  C   C1647     1.0  0.73199  0.47971  0.45691  1.0000
  C   C1648     1.0  0.75448  0.48569  0.45711  1.0000
  C   C1649     1.0  0.75468  0.50785  0.46107  1.0000
  C   C1650     1.0  0.74113  0.34627  0.33988  1.0000
  H   H1658     1.0  0.60321  0.40055  0.24091  1.0000
  H   H1659     1.0  0.96414  0.51466  0.26326  1.0000
  H   H1660     1.0  0.77171  0.47312  0.45436  1.0000
  S   S576      1.0  0.75340  0.37411  0.26249  1.0000
  C   C1651     1.0  0.64600  0.38902  0.28979  1.0000
  Fe  Fe290     1.0  0.69664  0.57598  0.47657  1.0000
  C   C1652     1.0  0.83492  0.49227  0.39380  1.0000
  C   C1653     1.0  0.84919  0.47973  0.40424  1.0000
  C   C1654     1.0  0.86888  0.48928  0.40582  1.0000
  C   C1655     1.0  0.87463  0.51121  0.39685  1.0000
  C   C1656     1.0  0.86031  0.52385  0.38642  1.0000
  C   C1657     1.0  0.84038  0.51442  0.38495  1.0000
  H   H1661     1.0  0.84527  0.46252  0.41102  1.0000
  H   H1662     1.0  0.87996  0.47945  0.41388  1.0000
  H   H1663     1.0  0.86458  0.54083  0.37951  1.0000
  H   H1664     1.0  0.82926  0.52425  0.37691  1.0000
  H   H1665     1.0  0.57052  0.57396  0.45886  1.0000
  H   H1666     1.0  0.63964  0.36318  0.27867  1.0000
  C   C1658     1.0  0.73451  0.33990  0.43521  1.0000
  C   C1659     1.0  0.70041  0.37643  0.38943  1.0000
  C   C1660     1.0  0.71676  0.35387  0.39187  1.0000
  C   C1661     1.0  0.73856  0.35254  0.39677  1.0000
  C   C1662     1.0  0.74387  0.37363  0.39961  1.0000
  C   C1663     1.0  0.72746  0.39619  0.39730  1.0000
  C   C1664     1.0  0.70588  0.39761  0.39206  1.0000
  H   H1667     1.0  0.71266  0.33739  0.39004  1.0000
  H   H1668     1.0  0.75114  0.33500  0.39863  1.0000
  H   H1669     1.0  0.73144  0.41252  0.39948  1.0000
  H   H1670     1.0  0.69324  0.41512  0.39021  1.0000
  S   S577      1.0  0.73339  0.55217  0.46919  1.0000
  C   C1665     1.0  0.62204  0.34026  0.32850  1.0000
  N   N137      1.0  0.76598  0.51951  0.25275  1.0000
  C   C1666     1.0  0.93561  0.48700  0.24567  1.0000
  C   C1667     1.0  0.86947  0.55302  0.31281  1.0000
  C   C1668     1.0  0.89214  0.55343  0.30317  1.0000
  C   C1669     1.0  0.91254  0.55723  0.30772  1.0000
  C   C1670     1.0  0.91046  0.56034  0.32194  1.0000
  C   C1671     1.0  0.88797  0.55926  0.33168  1.0000
  C   C1672     1.0  0.86752  0.55564  0.32711  1.0000
  H   H1671     1.0  0.89376  0.55143  0.29212  1.0000
  H   H1672     1.0  0.92995  0.55790  0.30016  1.0000
  H   H1673     1.0  0.88622  0.56124  0.34271  1.0000
  H   H1674     1.0  0.85004  0.55519  0.33463  1.0000
  C   C1673     1.0  0.69101  0.36118  0.32670  1.0000
  C   C1674     1.0  0.82324  0.60828  0.24317  1.0000
  H   H1675     1.0  0.96975  0.46095  0.24760  1.0000
  C   C1675     1.0  0.86530  0.61463  0.31220  1.0000
  H   H1676     1.0  0.82595  0.59785  0.25376  1.0000
  C   C1676     1.0  0.64515  0.39450  0.30324  1.0000
  H   H1677     1.0  0.62988  0.32068  0.32754  1.0000
  Fe  Fe291     1.0  0.71576  0.38176  0.27630  1.0000
  H   H1678     1.0  0.72129  0.64252  0.46821  1.0000
  H   H1679     1.0  0.61072  0.63960  0.43041  1.0000
  C   C1677     1.0  0.88677  0.35790  0.47182  1.0000
  C   C1678     1.0  0.78478  0.53112  0.24468  1.0000
  C   C1679     1.0  0.77546  0.44370  0.25062  1.0000
  C   C1680     1.0  0.76335  0.44041  0.26513  1.0000
  C   C1681     1.0  0.77141  0.44920  0.27528  1.0000
  C   C1682     1.0  0.79166  0.46121  0.27105  1.0000
  C   C1683     1.0  0.80421  0.46391  0.25664  1.0000
  C   C1684     1.0  0.79618  0.45508  0.24646  1.0000
  H   H1680     1.0  0.74740  0.43162  0.26845  1.0000
  H   H1681     1.0  0.76160  0.44713  0.28640  1.0000
  H   H1682     1.0  0.81989  0.47302  0.25327  1.0000
  C   C1685     1.0  0.96029  0.53816  0.24260  1.0000
  Fe  Fe292     1.0  0.68917  0.39258  0.25094  1.0000
  H   H1683     1.0  0.67703  0.34294  0.34815  1.0000
  H   H1684     1.0  0.91592  0.50726  0.32462  1.0000
  N   N138      1.0  0.59892  0.64183  0.45265  1.0000
  H   H1685     1.0  0.85395  0.46027  0.36917  1.0000
  H   H1686     1.0  0.92081  0.49568  0.36952  1.0000
  N   N139      1.0  0.94697  0.38298  0.45130  1.0000
  H   H1687     1.0  0.62824  0.34311  0.33798  1.0000
  C   C1686     1.0  0.94217  0.39671  0.46188  1.0000
  H   H1688     1.0  0.75563  0.49310  0.22736  1.0000
  C   C1687     1.0  0.68081  0.33016  0.22908  1.0000
  C   C1688     1.0  0.92252  0.50541  0.23638  1.0000
  H   H1689     1.0  0.79320  0.54173  0.24948  1.0000
  C   C1689     1.0  0.91181  0.49399  0.36113  1.0000
  N   N140      1.0  0.76507  0.52198  0.42437  1.0000
  C   C1690     1.0  0.79029  0.51488  0.42226  1.0000
  C   C1691     1.0  0.75365  0.54306  0.42962  1.0000
  C   C1692     1.0  0.80488  0.52896  0.42537  1.0000
  C   C1693     1.0  0.76762  0.55740  0.43309  1.0000
  C   C1694     1.0  0.79340  0.55030  0.43090  1.0000
  C   C1695     1.0  0.75051  0.50687  0.42077  1.0000
  H   H1690     1.0  0.79921  0.49809  0.41826  1.0000
  H   H1691     1.0  0.73361  0.54845  0.43165  1.0000
  H   H1692     1.0  0.82494  0.52322  0.42357  1.0000
  H   H1693     1.0  0.75841  0.57355  0.43779  1.0000
  H   H1694     1.0  0.80444  0.56120  0.43360  1.0000
  H   H1695     1.0  0.73030  0.51250  0.42478  1.0000
  H   H1696     1.0  0.75406  0.50806  0.40884  1.0000
  H   H1697     1.0  0.75583  0.48727  0.42596  1.0000
  C   C1696     1.0  0.84521  0.62041  0.33642  1.0000
  C   C1697     1.0  0.92112  0.50241  0.34656  1.0000
  H   H1698     1.0  0.70712  0.37268  0.43117  1.0000
  H   H1699     1.0  0.83907  0.48926  0.35987  1.0000
  S   S578      1.0  0.57406  0.32351  0.39772  1.0000
  S   S579      1.0  0.70947  0.38433  0.29976  1.0000
  H   H1700     1.0  0.86316  0.41785  0.47451  1.0000
  C   C1698     1.0  0.60981  0.62732  0.44122  1.0000
  C   C1699     1.0  0.84456  0.61436  0.32335  1.0000
  H   H1701     1.0  0.66970  0.34941  0.41429  1.0000
  H   H1702     1.0  0.77215  0.51236  0.46123  1.0000
  H   H1703     1.0  0.76218  0.38770  0.30148  1.0000
  S   S580      1.0  0.64901  0.39946  0.24900  1.0000
  C   C1700     1.0  0.82563  0.32223  0.43338  1.0000
  C   C1701     1.0  0.88655  0.62078  0.31433  1.0000
  C   C1702     1.0  0.88714  0.49108  0.34014  1.0000
  N   N141      1.0  0.87833  0.48253  0.35444  1.0000
  N   N142      1.0  0.63074  0.35694  0.31517  1.0000
  H   H1704     1.0  0.63684  0.38258  0.32631  1.0000
  H   H1705     1.0  0.86520  0.60919  0.30218  1.0000
  H   H1706     1.0  0.52467  0.58600  0.46562  1.0000
  H   H1707     1.0  0.67223  0.34928  0.22938  1.0000
  N   N143      1.0  0.88699  0.62679  0.32714  1.0000
  H   H1708     1.0  0.72152  0.34843  0.36170  1.0000
  C   C1703     1.0  0.75654  0.39910  0.31006  1.0000
  H   H1709     1.0  0.89872  0.34173  0.47660  1.0000
  H   H1710     1.0  0.80571  0.45749  0.23528  1.0000
  H   H1711     1.0  0.69117  0.37790  0.33015  1.0000
  H   H1712     1.0  0.95563  0.64896  0.38131  1.0000
  C   C1704     1.0  0.72633  0.38416  0.34904  1.0000
  H   H1713     1.0  0.85268  0.46386  0.35044  1.0000
  C   C1705     1.0  0.98736  0.36482  0.45692  1.0000
  H   H1714     1.0  0.62615  0.33465  0.30143  1.0000
  H   H1715     1.0  0.74967  0.50508  0.27441  1.0000
  S   S581      1.0  0.76363  0.43570  0.23742  1.0000
  N   N144      1.0  0.74713  0.38494  0.32424  1.0000
  H   H1716     1.0  0.81121  0.33554  0.41360  1.0000
  C   C1706     1.0  0.79370  0.52925  0.23014  1.0000
  C   C1707     1.0  0.85506  0.39934  0.45953  1.0000
  H   H1717     1.0  0.96205  0.60691  0.39651  1.0000
  H   H1718     1.0  0.65229  0.40134  0.27987  1.0000
  C   C1708     1.0  0.95962  0.47517  0.24039  1.0000
  H   H1719     1.0  0.67256  0.37516  0.42077  1.0000
  C   C1709     1.0  0.63898  0.36746  0.28914  1.0000
  H   H1720     1.0  0.84290  0.41538  0.45477  1.0000
  C   C1710     1.0  0.85989  0.37732  0.45438  1.0000
  H   H1721     1.0  0.91053  0.39711  0.44638  1.0000
  C   C1711     1.0  0.69909  0.35930  0.31211  1.0000
  C   C1712     1.0  0.94980  0.42256  0.23067  1.0000
  Fe  Fe293     1.0  0.73903  0.40759  0.24704  1.0000
  C   C1713     1.0  0.97297  0.64127  0.38513  1.0000
  H   H1722     1.0  0.88346  0.47708  0.37621  1.0000
  C   C1714     1.0  0.73242  0.52429  0.46465  1.0000
  H   H1723     1.0  0.91500  0.63528  0.39400  1.0000
  S   S582      1.0  0.83888  0.56410  0.23346  1.0000
  C   C1715     1.0  0.86652  0.40071  0.47068  1.0000
  S   S583      1.0  0.67235  0.60155  0.46187  1.0000
  S   S584      1.0  0.69979  0.35817  0.26682  1.0000
  H   H1724     1.0  0.74172  0.41459  0.30654  1.0000
  C   C1716     1.0  0.97161  0.54422  0.22811  1.0000
  H   H1725     1.0  0.74168  0.53832  0.26872  1.0000
  H   H1726     1.0  0.69011  0.32355  0.25027  1.0000
  Fe  Fe294     1.0  0.73623  0.35374  0.25134  1.0000
  C   C1717     1.0  0.63139  0.35149  0.30202  1.0000
  H   H1727     1.0  0.70513  0.33607  0.29645  1.0000
  H   H1728     1.0  0.69263  0.53079  0.46741  1.0000
  C   C1718     1.0  0.85492  0.47352  0.35865  1.0000
  S   S585      1.0  0.88963  0.64483  0.36971  1.0000
  C   C1719     1.0  0.81444  0.63394  0.24117  1.0000
  H   H1729     1.0  0.93747  0.51076  0.34347  1.0000
  H   H1730     1.0  0.90404  0.51474  0.24041  1.0000
  H   H1731     1.0  0.77179  0.52340  0.27303  1.0000
  C   C1720     1.0  0.97649  0.61774  0.39370  1.0000
  C   C1721     1.0  0.89047  0.48372  0.36487  1.0000
  H   H1732     1.0  0.82932  0.61994  0.34524  1.0000
  C   C1722     1.0  0.75006  0.35982  0.32635  1.0000
  C   C1723     1.0  0.82832  0.59622  0.23145  1.0000
  S   S586      1.0  0.61065  0.58061  0.47001  1.0000
  H   H1733     1.0  0.69223  0.49129  0.46075  1.0000
  H   H1734     1.0  0.82831  0.60878  0.32196  1.0000
  C   C1724     1.0  0.55532  0.32350  0.38545  1.0000
  H   H1735     1.0  0.74704  0.34954  0.43762  1.0000
  C   C1725     1.0  0.86667  0.62676  0.33812  1.0000
  H   H1736     1.0  0.77273  0.40652  0.31057  1.0000
  C   C1726     1.0  0.81819  0.31945  0.42114  1.0000
  C   C1727     1.0  0.70990  0.51825  0.46461  1.0000
  C   C1728     1.0  0.52941  0.32765  0.38992  1.0000
  C   C1729     1.0  0.97323  0.52024  0.25213  1.0000
  C   C1730     1.0  0.67282  0.35498  0.42388  1.0000
  H   H1737     1.0  0.82387  0.34069  0.43526  1.0000
  C   C1731     1.0  0.73563  0.39712  0.33540  1.0000
  H   H1738     1.0  0.74047  0.49705  0.25295  1.0000
  C   C1732     1.0  0.76356  0.50437  0.23201  1.0000
  C   C1733     1.0  0.90898  0.50055  0.33597  1.0000
  H   H1739     1.0  0.84046  0.32461  0.45628  1.0000
  C   C1734     1.0  0.96927  0.36728  0.44871  1.0000
  C   C1735     1.0  0.69859  0.33776  0.30767  1.0000
  H   H1740     1.0  0.90802  0.63640  0.34006  1.0000
  H   H1741     1.0  0.90291  0.62015  0.30579  1.0000
  S   S587      1.0  0.84772  0.37504  0.43975  1.0000
  C   C1736     1.0  0.92826  0.38483  0.44266  1.0000
  Fe  Fe295     1.0  0.67082  0.62960  0.47506  1.0000
  H   H1742     1.0  0.65127  0.41089  0.30382  1.0000
  C   C1737     1.0  0.68279  0.34145  0.33688  1.0000
  C   C1738     1.0  0.71187  0.35293  0.43149  1.0000
  C   C1739     1.0  0.64202  0.40004  0.23213  1.0000
  C   C1740     1.0  0.63719  0.37829  0.31590  1.0000
  H   H1743     1.0  0.97299  0.35618  0.44045  1.0000
  H   H1744     1.0  0.94117  0.54660  0.24631  1.0000
  H   H1745     1.0  0.59881  0.61312  0.44187  1.0000
  C   C1741     1.0  0.90937  0.63366  0.32887  1.0000
  C   C1742     1.0  0.87569  0.35663  0.46058  1.0000
  H   H1746     1.0  0.60148  0.34323  0.33080  1.0000
  H   H1747     1.0  0.86704  0.63144  0.34833  1.0000
  H   H1748     1.0  0.91706  0.43731  0.24505  1.0000
  C   C1743     1.0  0.51411  0.32455  0.38118  1.0000
  C   C1744     1.0  0.61753  0.40035  0.23127  1.0000
  S   S588      1.0  0.63992  0.32346  0.40470  1.0000
  H   H1749     1.0  0.93511  0.39227  0.43110  1.0000
  H   H1750     1.0  0.62872  0.61696  0.44256  1.0000
  C   C1745     1.0  0.98239  0.37831  0.46794  1.0000
  H   H1751     1.0  0.74280  0.32644  0.34140  1.0000
  C   C1746     1.0  0.72909  0.35859  0.35126  1.0000
  C   C1747     1.0  0.70970  0.49589  0.46084  1.0000
  H   H1752     1.0  0.73333  0.41701  0.33373  1.0000
  S   S589      1.0  0.72462  0.38668  0.23461  1.0000
  H   H1753     1.0  0.95707  0.40853  0.23917  1.0000
  C   C1748     1.0  0.57397  0.64502  0.45807  1.0000
  H   H1754     1.0  0.92391  0.36635  0.44368  1.0000
  H   H1755     1.0  0.52118  0.33267  0.40037  1.0000
  C   C1749     1.0  0.53648  0.58998  0.47175  1.0000
  H   H1756     1.0  0.92444  0.40904  0.46406  1.0000
  H   H1757     1.0  0.71677  0.39385  0.35783  1.0000
  C   C1750     1.0  0.95965  0.39435  0.47047  1.0000
  H   H1758     1.0  0.81039  0.64322  0.25027  1.0000
  C   C1751     1.0  0.56247  0.58317  0.46796  1.0000
  C   C1752     1.0  0.68203  0.31998  0.33247  1.0000
  H   H1759     1.0  0.49423  0.32711  0.38491  1.0000
  H   H1760     1.0  0.63339  0.65073  0.45302  1.0000
  C   C1753     1.0  0.92724  0.43855  0.23395  1.0000
  C   C1754     1.0  0.88253  0.38001  0.47676  1.0000
  C   C1755     1.0  0.57810  0.58826  0.47580  1.0000
  H   H1761     1.0  0.91240  0.65114  0.32131  1.0000
  Fe  Fe296     1.0  0.61585  0.31815  0.39060  1.0000
  C   C1756     1.0  0.68990  0.31814  0.31784  1.0000
  C   C1757     1.0  0.81069  0.64759  0.22748  1.0000
  H   H1762     1.0  0.76226  0.33638  0.67454  1.0000
  H   H1763     1.0  0.69770  0.58663  0.56900  1.0000
  C   C1758     1.0  0.54150  0.60679  0.49140  1.0000
  H   H1764     1.0  0.70554  0.48555  0.49519  1.0000
  H   H1765     1.0  0.97768  0.46329  0.62124  1.0000
  Fe  Fe297     1.0  0.74671  0.60535  0.60773  1.0000
  Fe  Fe298     1.0  0.94062  0.39461  0.62379  1.0000
  S   S590      1.0  0.91475  0.42170  0.61046  1.0000
  S   S591      1.0  0.56273  0.55444  0.72091  1.0000
  Fe  Fe299     1.0  0.90839  0.35569  0.63098  1.0000
  S   S592      1.0  0.87986  0.37992  0.61858  1.0000
  S   S593      1.0  0.63705  0.62005  0.49117  1.0000
  Fe  Fe300     1.0  0.91224  0.38956  0.60153  1.0000
  S   S594      1.0  0.90814  0.39542  0.57826  1.0000
  Fe  Fe301     1.0  0.88462  0.40993  0.62855  1.0000
  S   S595      1.0  0.85062  0.43601  0.63734  1.0000
  S   S596      1.0  0.94081  0.36327  0.61311  1.0000
  S   S597      1.0  0.91047  0.38487  0.64267  1.0000
  S   S598      1.0  0.75856  0.54658  0.59116  1.0000
  S   S599      1.0  0.75752  0.56742  0.62048  1.0000
  Fe  Fe302     1.0  0.78468  0.56019  0.60023  1.0000
  S   S600      1.0  0.82497  0.54182  0.59880  1.0000
  Fe  Fe303     1.0  0.73025  0.55738  0.61037  1.0000
  S   S601      1.0  0.70603  0.53118  0.62452  1.0000
  Fe  Fe304     1.0  0.57477  0.55379  0.66721  1.0000
  S   S602      1.0  0.59466  0.57733  0.64808  1.0000
  S   S603      1.0  0.59336  0.53079  0.68527  1.0000
  H   H1766     1.0  0.81029  0.61194  0.64131  1.0000
  H   H1767     1.0  0.66441  0.62734  0.64097  1.0000
  C   C1759     1.0  0.60032  0.61987  0.71512  1.0000
  C   C1760     1.0  0.53043  0.46966  0.67725  1.0000
  C   C1761     1.0  0.53736  0.46956  0.65168  1.0000
  H   H1768     1.0  0.66751  0.51019  0.64516  1.0000
  Fe  Fe305     1.0  0.92501  0.34706  0.49613  1.0000
  S   S604      1.0  0.55592  0.52427  0.66551  1.0000
  H   H1769     1.0  0.82043  0.63718  0.60894  1.0000
  H   H1770     1.0  0.60970  0.48011  0.71069  1.0000
  S   S605      1.0  0.95563  0.34704  0.50734  1.0000
  C   C1762     1.0  0.51192  0.47742  0.65209  1.0000
  C   C1763     1.0  0.66876  0.60837  0.64652  1.0000
  C   C1764     1.0  0.59885  0.42095  0.70829  1.0000
  C   C1765     1.0  0.68426  0.33290  0.69063  1.0000
  S   S606      1.0  0.97628  0.40602  0.62423  1.0000
  C   C1766     1.0  0.69700  0.65004  0.52789  1.0000
  H   H1771     1.0  0.91551  0.46930  0.67301  1.0000
  H   H1772     1.0  0.56646  0.45931  0.66421  1.0000
  H   H1773     1.0  0.66603  0.63930  0.71522  1.0000
  C   C1767     1.0  0.67438  0.54339  0.62998  1.0000
  C   C1768     1.0  0.65962  0.52899  0.64077  1.0000
  C   C1769     1.0  0.63486  0.53902  0.64615  1.0000
  C   C1770     1.0  0.62473  0.56344  0.64065  1.0000
  C   C1771     1.0  0.63923  0.57757  0.62957  1.0000
  C   C1772     1.0  0.66401  0.56760  0.62429  1.0000
  H   H1774     1.0  0.62371  0.52792  0.65461  1.0000
  H   H1775     1.0  0.63140  0.59639  0.62519  1.0000
  H   H1776     1.0  0.67505  0.57873  0.61587  1.0000
  C   C1773     1.0  0.87473  0.34028  0.58578  1.0000
  C   C1774     1.0  0.92117  0.37102  0.56874  1.0000
  C   C1775     1.0  0.91791  0.37400  0.55445  1.0000
  C   C1776     1.0  0.92615  0.35420  0.54701  1.0000
  H   H1777     1.0  0.66330  0.64448  0.52347  1.0000
  C   C1777     1.0  0.90975  0.45367  0.64232  1.0000
  C   C1778     1.0  0.93340  0.34831  0.57542  1.0000
  H   H1778     1.0  0.90849  0.39153  0.54921  1.0000
  H   H1779     1.0  0.92286  0.35650  0.53616  1.0000
  H   H1780     1.0  0.60318  0.62248  0.69224  1.0000
  H   H1781     1.0  0.93614  0.34588  0.58639  1.0000
  C   C1779     1.0  0.84407  0.46613  0.62725  1.0000
  C   C1780     1.0  0.82002  0.48020  0.62981  1.0000
  C   C1781     1.0  0.81396  0.50367  0.62129  1.0000
  C   C1782     1.0  0.83214  0.51339  0.61042  1.0000
  C   C1783     1.0  0.85636  0.49966  0.60819  1.0000
  C   C1784     1.0  0.86225  0.47601  0.61647  1.0000
  H   H1782     1.0  0.80590  0.47274  0.63821  1.0000
  H   H1783     1.0  0.79523  0.51419  0.62308  1.0000
  H   H1784     1.0  0.87046  0.50714  0.59979  1.0000
  H   H1785     1.0  0.88086  0.46557  0.61449  1.0000
  C   C1785     1.0  0.79485  0.62671  0.63901  1.0000
  S   S607      1.0  0.74750  0.59635  0.55624  1.0000
  Fe  Fe306     1.0  0.52446  0.54134  0.68137  1.0000
  H   H1786     1.0  0.73937  0.50749  0.49326  1.0000
  H   H1787     1.0  0.66738  0.34291  0.69631  1.0000
  H   H1788     1.0  0.75138  0.34027  0.69317  1.0000
  C   C1786     1.0  0.97196  0.41868  0.66459  1.0000
  C   C1787     1.0  0.68006  0.55947  0.66002  1.0000
  H   H1789     1.0  0.66381  0.52079  0.53071  1.0000
  H   H1790     1.0  0.85749  0.34787  0.64619  1.0000
  C   C1788     1.0  0.85483  0.32908  0.64804  1.0000
  C   C1789     1.0  0.83082  0.32390  0.65259  1.0000
  C   C1790     1.0  0.68156  0.58633  0.55085  1.0000
  H   H1791     1.0  0.68402  0.54008  0.66491  1.0000
  C   C1791     1.0  0.96671  0.41110  0.65297  1.0000
  C   C1792     1.0  0.54669  0.46541  0.66435  1.0000
  C   C1793     1.0  0.79218  0.64919  0.64339  1.0000
  C   C1794     1.0  0.70839  0.59137  0.52732  1.0000
  H   H1792     1.0  0.94962  0.40474  0.65419  1.0000
  H   H1793     1.0  0.95883  0.41807  0.67475  1.0000
  C   C1795     1.0  0.70389  0.64361  0.71218  1.0000
  H   H1794     1.0  0.62621  0.62836  0.66429  1.0000
  H   H1795     1.0  0.74084  0.65093  0.70598  1.0000
  H   H1796     1.0  0.61567  0.41569  0.70071  1.0000
  H   H1797     1.0  0.88033  0.32192  0.55393  1.0000
  H   H1798     1.0  0.95527  0.40449  0.47925  1.0000
  Fe  Fe307     1.0  0.55927  0.54672  0.69981  1.0000
  C   C1796     1.0  0.52587  0.60183  0.48351  1.0000
  N   N145      1.0  0.72085  0.52581  0.51083  1.0000
  C   C1797     1.0  0.69997  0.52949  0.52123  1.0000
  C   C1798     1.0  0.72298  0.51011  0.50164  1.0000
  C   C1799     1.0  0.68052  0.51730  0.52263  1.0000
  C   C1800     1.0  0.70389  0.49762  0.50271  1.0000
  C   C1801     1.0  0.68251  0.50131  0.51327  1.0000
  C   C1802     1.0  0.74031  0.54001  0.50883  1.0000
  H   H1799     1.0  0.69809  0.54211  0.52842  1.0000
  C   C1803     1.0  0.57730  0.57957  0.71857  1.0000
  C   C1804     1.0  0.56749  0.60010  0.48757  1.0000
  S   S608      1.0  0.69785  0.60514  0.48838  1.0000
  H   H1800     1.0  0.66737  0.49209  0.51405  1.0000
  H   H1801     1.0  0.54827  0.46693  0.71179  1.0000
  N   N146      1.0  0.50560  0.47801  0.67748  1.0000
  H   H1802     1.0  0.74071  0.54543  0.51909  1.0000
  C   C1805     1.0  0.72377  0.59146  0.54886  1.0000
  H   H1803     1.0  0.49438  0.58234  0.51994  1.0000
  H   H1804     1.0  0.71652  0.55905  0.64681  1.0000
  H   H1805     1.0  0.50439  0.48093  0.64229  1.0000
  Fe  Fe308     1.0  0.64037  0.58996  0.47896  1.0000
  C   C1806     1.0  0.69273  0.59477  0.64304  1.0000
  C   C1807     1.0  0.58556  0.59234  0.70468  1.0000
  C   C1808     1.0  0.58273  0.44337  0.70465  1.0000
  H   H1806     1.0  0.86455  0.35909  0.56524  1.0000
  Fe  Fe309     1.0  0.57138  0.50279  0.68517  1.0000
  S   S609      1.0  0.66515  0.56189  0.49264  1.0000
  H   H1807     1.0  0.90518  0.32562  0.60778  1.0000
  S   S610      1.0  0.59008  0.46269  0.68774  1.0000
  H   H1808     1.0  0.98431  0.47485  0.63526  1.0000
  C   C1809     1.0  0.70734  0.33730  0.69113  1.0000
  H   H1809     1.0  0.66371  0.58387  0.55751  1.0000
  C   C1810     1.0  0.98330  0.41236  0.63970  1.0000
  S   S611      1.0  0.73782  0.63951  0.61768  1.0000
  H   H1810     1.0  0.61293  0.60128  0.66757  1.0000
  S   S612      1.0  0.89848  0.38231  0.48978  1.0000
  H   H1811     1.0  0.95397  0.47991  0.65688  1.0000
  H   H1812     1.0  0.81507  0.33880  0.65411  1.0000
  C   C1811     1.0  0.62584  0.61233  0.65969  1.0000
  H   H1813     1.0  0.70790  0.35086  0.69722  1.0000
  H   H1814     1.0  0.86884  0.35684  0.59042  1.0000
  S   S613      1.0  0.61463  0.64522  0.71268  1.0000
  H   H1815     1.0  0.57929  0.60414  0.49368  1.0000
  Fe  Fe310     1.0  0.66461  0.59302  0.50349  1.0000
  N   N147      1.0  0.94723  0.46910  0.63867  1.0000
  C   C1812     1.0  0.93162  0.45982  0.63342  1.0000
  C   C1813     1.0  0.94145  0.47284  0.65264  1.0000
  H   H1816     1.0  0.64197  0.56490  0.67083  1.0000
  H   H1817     1.0  0.54984  0.46679  0.64155  1.0000
  C   C1814     1.0  0.75298  0.32802  0.68545  1.0000
  C   C1815     1.0  0.96971  0.47606  0.62903  1.0000
  H   H1818     1.0  0.93632  0.45666  0.62238  1.0000
  S   S614      1.0  0.94995  0.32510  0.47997  1.0000
  H   H1819     1.0  0.88692  0.45227  0.66358  1.0000
  C   C1816     1.0  0.91975  0.46678  0.66185  1.0000
  C   C1817     1.0  0.90382  0.45716  0.65661  1.0000
  H   H1820     1.0  0.87212  0.32870  0.61432  1.0000
  H   H1821     1.0  0.70671  0.60311  0.63489  1.0000
  H   H1822     1.0  0.53346  0.61593  0.50053  1.0000
  C   C1818     1.0  0.77815  0.62344  0.63123  1.0000
  H   H1823     1.0  0.50218  0.53487  0.63084  1.0000
  H   H1824     1.0  0.53786  0.46654  0.68703  1.0000
  C   C1819     1.0  0.69832  0.57014  0.64981  1.0000
  Fe  Fe311     1.0  0.74770  0.58609  0.58040  1.0000
  S   S615      1.0  0.71729  0.59599  0.59895  1.0000
  N   N148      1.0  0.65091  0.59772  0.65650  1.0000
  S   S616      1.0  0.66033  0.58753  0.52784  1.0000
  C   C1820     1.0  0.72756  0.59295  0.53383  1.0000
  H   H1825     1.0  0.89753  0.44608  0.63821  1.0000
  H   H1826     1.0  0.71152  0.59291  0.51575  1.0000
  S   S617      1.0  0.53841  0.51725  0.70090  1.0000
  H   H1827     1.0  0.69415  0.63975  0.53894  1.0000
  N   N149      1.0  0.82982  0.45342  0.59758  1.0000
  C   C1821     1.0  0.81919  0.47709  0.59223  1.0000
  C   C1822     1.0  0.85356  0.44362  0.59166  1.0000
  C   C1823     1.0  0.83269  0.49186  0.58096  1.0000
  C   C1824     1.0  0.86759  0.45786  0.58039  1.0000
  C   C1825     1.0  0.85709  0.48219  0.57509  1.0000
  C   C1826     1.0  0.81529  0.43810  0.60925  1.0000
  H   H1828     1.0  0.80044  0.48501  0.59695  1.0000
  H   H1829     1.0  0.86194  0.42477  0.59572  1.0000
  H   H1830     1.0  0.82450  0.51096  0.57719  1.0000
  H   H1831     1.0  0.88653  0.45002  0.57588  1.0000
  H   H1832     1.0  0.86787  0.49363  0.56654  1.0000
  H   H1833     1.0  0.82742  0.42450  0.61618  1.0000
  H   H1834     1.0  0.80165  0.44952  0.61656  1.0000
  H   H1835     1.0  0.80527  0.42816  0.60462  1.0000
  C   C1827     1.0  0.59705  0.61247  0.70297  1.0000
  H   H1836     1.0  0.74529  0.59583  0.52717  1.0000
  C   C1828     1.0  0.70081  0.58778  0.55740  1.0000
  C   C1829     1.0  0.87226  0.34168  0.57153  1.0000
  S   S618      1.0  0.54223  0.57249  0.68180  1.0000
  C   C1830     1.0  0.75834  0.64250  0.62806  1.0000
  H   H1837     1.0  0.75890  0.52906  0.50519  1.0000
  H   H1838     1.0  0.51254  0.54321  0.65245  1.0000
  C   C1831     1.0  0.93767  0.33127  0.55385  1.0000
  C   C1832     1.0  0.65629  0.57360  0.66326  1.0000
  S   S619      1.0  0.77605  0.59910  0.58815  1.0000
  H   H1839     1.0  0.58357  0.50366  0.71491  1.0000
  H   H1840     1.0  0.61800  0.61887  0.64963  1.0000
  C   C1833     1.0  0.56100  0.44997  0.71449  1.0000
  H   H1841     1.0  0.58290  0.58684  0.69527  1.0000
  H   H1842     1.0  0.73697  0.55694  0.50046  1.0000
  C   C1834     1.0  0.68517  0.58846  0.53578  1.0000
  H   H1843     1.0  0.78079  0.60625  0.62758  1.0000
  C   C1835     1.0  0.88110  0.32084  0.56519  1.0000
  H   H1844     1.0  0.60604  0.38819  0.72458  1.0000
  C   C1836     1.0  0.59342  0.40535  0.72177  1.0000
  C   C1837     1.0  0.83486  0.64617  0.61045  1.0000
  H   H1845     1.0  0.70591  0.63469  0.72319  1.0000
  N   N150      1.0  0.72878  0.32382  0.68467  1.0000
  C   C1838     1.0  0.59964  0.49115  0.71914  1.0000
  C   C1839     1.0  0.68142  0.64648  0.70779  1.0000
  Fe  Fe312     1.0  0.97947  0.32176  0.49274  1.0000
  H   H1846     1.0  0.96531  0.49518  0.62291  1.0000
  H   H1847     1.0  0.84153  0.63540  0.62047  1.0000
  H   H1848     1.0  0.85043  0.64511  0.60104  1.0000
  C   C1840     1.0  0.49619  0.48139  0.66520  1.0000
  H   H1849     1.0  0.61177  0.50262  0.72077  1.0000
  C   C1841     1.0  0.94157  0.32847  0.56800  1.0000
  C   C1842     1.0  0.49392  0.54119  0.65271  1.0000
  H   H1850     1.0  0.49738  0.49226  0.69689  1.0000
  N   N151      1.0  0.88539  0.31859  0.59355  1.0000
  Fe  Fe313     1.0  0.67200  0.34379  0.87028  1.0000
  S   S620      1.0  0.63259  0.34173  0.88043  1.0000
  H   H1851     1.0  0.96548  0.41906  0.97101  1.0000
  Fe  Fe314     1.0  0.66405  0.39786  0.87428  1.0000
  S   S621      1.0  0.62415  0.39809  0.88489  1.0000
  S   S622      1.0  0.68177  0.43160  0.86925  1.0000
  Fe  Fe315     1.0  0.63877  0.36012  0.89688  1.0000
  S   S623      1.0  0.63446  0.34131  0.92041  1.0000
  Fe  Fe316     1.0  0.62366  0.37913  0.86688  1.0000
  S   S624      1.0  0.59538  0.38720  0.85237  1.0000
  S   S625      1.0  0.67861  0.36107  0.88724  1.0000
  S   S626      1.0  0.66299  0.38063  0.85583  1.0000
  S   S627      1.0  0.89231  0.61449  0.96064  1.0000
  H   H1852     1.0  0.87047  0.65116  0.93913  1.0000
  H   H1853     1.0  0.56160  0.34742  0.91651  1.0000
  H   H1854     1.0  0.65530  0.63047  0.92704  1.0000
  C   C1843     1.0  0.80269  0.62238  0.93918  1.0000
  H   H1855     1.0  0.96084  0.61026  0.95956  1.0000
  Fe  Fe317     1.0  0.66704  0.60042  0.88692  1.0000
  S   S628      1.0  0.63043  0.59101  0.89917  1.0000
  C   C1844     1.0  0.72077  0.63148  0.90718  1.0000
  Fe  Fe318     1.0  0.65290  0.60699  0.85759  1.0000
  S   S629      1.0  0.61495  0.59887  0.86726  1.0000
  S   S630      1.0  0.66900  0.61926  0.83405  1.0000
  Fe  Fe319     1.0  0.61398  0.62235  0.88316  1.0000
  H   H1856     1.0  0.81928  0.63643  0.91725  1.0000
  Fe  Fe320     1.0  0.63449  0.56796  0.88238  1.0000
  S   S631      1.0  0.62107  0.53166  0.88874  1.0000
  S   S632      1.0  0.67272  0.57445  0.87154  1.0000
  S   S633      1.0  0.65033  0.63329  0.87210  1.0000
  N   N152      1.0  0.50584  0.61299  0.95895  1.0000
  C   C1845     1.0  0.57027  0.48403  0.74204  1.0000
  C   C1846     1.0  0.50483  0.62036  0.97160  1.0000
  C   C1847     1.0  0.72600  0.32665  0.92758  1.0000
  S   S634      1.0  0.60868  0.61739  0.78681  1.0000
  H   H1857     1.0  0.56862  0.43312  0.76882  1.0000
  H   H1858     1.0  0.95557  0.38472  0.96280  1.0000
  S   S635      1.0  0.63123  0.36420  0.75637  1.0000
  H   H1859     1.0  0.51078  0.62837  0.93646  1.0000
  C   C1848     1.0  0.94792  0.42125  0.96770  1.0000
  S   S636      1.0  0.64190  0.33862  0.79656  1.0000
  H   H1860     1.0  0.54484  0.47576  0.76223  1.0000
  S   S637      1.0  0.94123  0.56419  0.97607  1.0000
  C   C1849     1.0  0.91930  0.40487  0.95936  1.0000
  H   H1861     1.0  0.69652  0.64695  0.84353  1.0000
  S   S638      1.0  0.56461  0.39352  0.74874  1.0000
  H   H1862     1.0  0.70588  0.33378  0.91034  1.0000
  C   C1850     1.0  0.51376  0.58869  0.95788  1.0000
  H   H1863     1.0  0.67493  0.63890  0.80359  1.0000
  Fe  Fe321     1.0  0.59355  0.36006  0.75473  1.0000
  H   H1864     1.0  0.62810  0.61703  0.92958  1.0000
  C   C1851     1.0  0.60482  0.45224  0.73663  1.0000
  C   C1852     1.0  0.56182  0.46908  0.75514  1.0000
  H   H1865     1.0  0.78426  0.63302  0.93826  1.0000
  C   C1853     1.0  0.57527  0.44531  0.75893  1.0000
  H   H1866     1.0  0.71238  0.33936  0.93361  1.0000
  C   C1854     1.0  0.57188  0.32483  0.90015  1.0000
  H   H1867     1.0  0.60731  0.41830  0.75247  1.0000
  C   C1855     1.0  0.52066  0.57098  0.96971  1.0000
  H   H1868     1.0  0.83256  0.56057  0.96829  1.0000
  C   C1856     1.0  0.72326  0.60565  0.85653  1.0000
  H   H1869     1.0  0.94365  0.61841  0.94504  1.0000
  H   H1870     1.0  0.93429  0.45796  0.97228  1.0000
  C   C1857     1.0  0.59709  0.43695  0.74973  1.0000
  H   H1871     1.0  0.87118  0.44718  0.95086  1.0000
  S   S639      1.0  0.60759  0.32858  0.74264  1.0000
  H   H1872     1.0  0.87736  0.41481  0.95055  1.0000
  H   H1873     1.0  0.62641  0.59740  0.83592  1.0000
  C   C1858     1.0  0.80713  0.60753  0.95242  1.0000
  H   H1874     1.0  0.58764  0.31831  0.93275  1.0000
  C   C1859     1.0  0.49725  0.63081  0.94664  1.0000
  C   C1860     1.0  0.61889  0.60587  0.81423  1.0000
  H   H1875     1.0  0.58715  0.61878  0.91499  1.0000
  H   H1876     1.0  0.86860  0.58737  0.94370  1.0000
  C   C1861     1.0  0.65919  0.62979  0.80662  1.0000
  S   S640      1.0  0.68086  0.32672  0.73002  1.0000
  H   H1877     1.0  0.51414  0.58281  0.94792  1.0000
  H   H1878     1.0  0.74573  0.61989  0.87344  1.0000
  C   C1862     1.0  0.66573  0.45873  0.87586  1.0000
  C   C1863     1.0  0.67636  0.47991  0.87168  1.0000
  C   C1864     1.0  0.66323  0.50229  0.87587  1.0000
  C   C1865     1.0  0.63936  0.50359  0.88431  1.0000
  C   C1866     1.0  0.62901  0.48226  0.88879  1.0000
  C   C1867     1.0  0.64212  0.45994  0.88460  1.0000
  H   H1879     1.0  0.69467  0.47910  0.86497  1.0000
  H   H1880     1.0  0.67142  0.51858  0.87239  1.0000
  H   H1881     1.0  0.61064  0.48307  0.89542  1.0000
  H   H1882     1.0  0.63385  0.44376  0.88809  1.0000
  C   C1868     1.0  0.60719  0.37370  0.83672  1.0000
  C   C1869     1.0  0.59304  0.37693  0.82599  1.0000
  C   C1870     1.0  0.60313  0.36635  0.81348  1.0000
  C   C1871     1.0  0.62754  0.35293  0.81161  1.0000
  C   C1872     1.0  0.64145  0.34997  0.82230  1.0000
  C   C1873     1.0  0.63119  0.35978  0.83484  1.0000
  H   H1883     1.0  0.57434  0.38755  0.82736  1.0000
  C   C1874     1.0  0.57160  0.41198  0.73155  1.0000
  H   H1884     1.0  0.64200  0.35643  0.84307  1.0000
  N   N153      1.0  0.59123  0.47530  0.73286  1.0000
  N   N154      1.0  0.72141  0.63099  0.85826  1.0000
  H   H1885     1.0  0.74181  0.59891  0.85028  1.0000
  Fe  Fe322     1.0  0.64483  0.33058  0.74619  1.0000
  H   H1886     1.0  0.60336  0.59649  0.81721  1.0000
  H   H1887     1.0  0.61400  0.65030  0.94610  1.0000
  H   H1888     1.0  0.59481  0.61254  0.73842  1.0000
  H   H1889     1.0  0.55981  0.50257  0.73913  1.0000
  H   H1890     1.0  0.57443  0.57697  0.74147  1.0000
  H   H1891     1.0  0.49852  0.63961  0.97250  1.0000
  C   C1875     1.0  0.70136  0.63084  0.90058  1.0000
  C   C1876     1.0  0.81966  0.64307  0.97362  1.0000
  H   H1892     1.0  0.64433  0.62743  0.91175  1.0000
  S   S641      1.0  0.50219  0.32319  0.94553  1.0000
  C   C1877     1.0  0.62588  0.61748  0.79981  1.0000
  N   N155      1.0  0.90228  0.42634  0.96006  1.0000
  H   H1893     1.0  0.72038  0.59333  0.86733  1.0000
  H   H1894     1.0  0.62136  0.44525  0.72933  1.0000
  C   C1878     1.0  0.72243  0.32342  0.91436  1.0000
  C   C1879     1.0  0.84614  0.61148  0.92903  1.0000
  C   C1880     1.0  0.87756  0.42852  0.95701  1.0000
  C   C1881     1.0  0.64606  0.62945  0.79604  1.0000
  H   H1895     1.0  0.53855  0.43947  0.73542  1.0000
  H   H1896     1.0  0.65186  0.63810  0.78492  1.0000
  S   S642      1.0  0.58638  0.33611  0.77688  1.0000
  C   C1882     1.0  0.57472  0.63554  0.91740  1.0000
  C   C1883     1.0  0.70703  0.65025  0.85071  1.0000
  H   H1897     1.0  0.91494  0.38963  0.95611  1.0000
  C   C1884     1.0  0.86260  0.63342  0.96156  1.0000
  C   C1885     1.0  0.55540  0.43427  0.72786  1.0000
  C   C1886     1.0  0.94237  0.40202  0.96312  1.0000
  N   N156      1.0  0.62819  0.47397  0.85119  1.0000
  C   C1887     1.0  0.61142  0.49267  0.85679  1.0000
  C   C1888     1.0  0.65037  0.47822  0.84270  1.0000
  C   C1889     1.0  0.61689  0.51627  0.85417  1.0000
  C   C1890     1.0  0.65636  0.50165  0.83976  1.0000
  C   C1891     1.0  0.63950  0.52075  0.84558  1.0000
  C   C1892     1.0  0.62221  0.44935  0.85393  1.0000
  H   H1898     1.0  0.59402  0.48925  0.86373  1.0000
  H   H1899     1.0  0.66387  0.46323  0.83853  1.0000
  H   H1900     1.0  0.60410  0.53075  0.85922  1.0000
  H   H1901     1.0  0.67423  0.50477  0.83335  1.0000
  H   H1902     1.0  0.64419  0.53883  0.84377  1.0000
  H   H1903     1.0  0.60812  0.44618  0.86399  1.0000
  H   H1904     1.0  0.61509  0.44691  0.84469  1.0000
  H   H1905     1.0  0.63896  0.43486  0.85546  1.0000
  H   H1906     1.0  0.59215  0.36868  0.80531  1.0000
  N   N157      1.0  0.83058  0.59521  0.95395  1.0000
  C   C1893     1.0  0.65208  0.61841  0.82107  1.0000
  C   C1894     1.0  0.57246  0.33037  0.91336  1.0000
  C   C1895     1.0  0.63188  0.60643  0.82485  1.0000
  C   C1896     1.0  0.59221  0.60701  0.72901  1.0000
  C   C1897     1.0  0.83489  0.57959  0.96787  1.0000
  S   S643      1.0  0.69770  0.60234  0.89786  1.0000
  C   C1898     1.0  0.90764  0.44535  0.96444  1.0000
  N   N158      1.0  0.95871  0.64714  0.94834  1.0000
  C   C1899     1.0  0.85642  0.64918  0.94886  1.0000
  H   H1907     1.0  0.66038  0.34009  0.82088  1.0000
  Fe  Fe323     1.0  0.62523  0.33792  0.77761  1.0000
  C   C1900     1.0  0.84435  0.63104  0.97410  1.0000
  H   H1908     1.0  0.89374  0.46194  0.96561  1.0000
  C   C1901     1.0  0.58072  0.58687  0.73072  1.0000
  H   H1909     1.0  0.70904  0.60430  0.85068  1.0000
  H   H1910     1.0  0.86415  0.42531  0.96740  1.0000
  H   H1911     1.0  0.73284  0.61445  0.91090  1.0000
  C   C1902     1.0  0.84993  0.59678  0.94242  1.0000
  C   C1903     1.0  0.73476  0.63522  0.86722  1.0000
  H   H1912     1.0  0.57002  0.62306  0.94057  1.0000
  S   S644      1.0  0.64541  0.63568  0.74639  1.0000
  C   C1904     1.0  0.82236  0.62441  0.92744  1.0000
  S   S645      1.0  0.93884  0.33993  0.96196  1.0000
  C   C1905     1.0  0.56493  0.63794  0.93186  1.0000
  Fe  Fe324     1.0  0.61616  0.64397  0.76567  1.0000
  H   H1913     1.0  0.79183  0.60681  0.96160  1.0000
  H   H1914     1.0  0.86166  0.61336  0.92006  1.0000
  H   H1915     1.0  0.84876  0.32467  0.97159  1.0000
  H   H1916     1.0  0.97700  0.61327  0.94113  1.0000
  C   C1906     1.0  0.63829  0.63157  0.92286  1.0000
  H   H1917     1.0  0.55720  0.62918  0.79756  1.0000
  C   C1907     1.0  0.93052  0.44314  0.96831  1.0000
  H   H1918     1.0  0.52634  0.55165  0.96892  1.0000
  C   C1908     1.0  0.96016  0.62102  0.94846  1.0000
  H   H1919     1.0  0.52993  0.63146  0.78057  1.0000
  H   H1920     1.0  0.49526  0.65013  0.94794  1.0000
  H   H1921     1.0  0.85388  0.57897  0.96951  1.0000
  H   H1922     1.0  0.56074  0.33766  0.89284  1.0000
  C   C1909     1.0  0.53433  0.64822  0.78198  1.0000
  H   H1923     1.0  0.57510  0.64870  0.81042  1.0000
  C   C1910     1.0  0.54982  0.64705  0.79157  1.0000
  H   H1924     1.0  0.82178  0.58710  0.97705  1.0000
  H   H1925     1.0  0.63613  0.82187  0.13500  1.0000
  C   C1911     1.0  0.89054  0.67409  0.16530  1.0000
  H   H1926     1.0  0.55066  0.84693  0.03564  1.0000
  S   S646      1.0  0.64420  0.86937  0.00254  1.0000
  H   H1927     1.0  0.87884  0.69062  0.16871  1.0000
  S   S647      1.0  0.97750  0.68761  0.07677  1.0000
  S   S648      1.0  0.60147  0.84016  0.00115  1.0000
  C   C1912     1.0  0.56130  0.70314  0.11112  1.0000
  Fe  Fe325     1.0  0.60391  0.87023  0.01174  1.0000
  S   S649      1.0  0.58816  0.87292  0.03505  1.0000
  Fe  Fe326     1.0  0.64080  0.84194  0.99015  1.0000
  H   H1928     1.0  0.83499  0.85741  0.21770  1.0000
  S   S650      1.0  0.59035  0.90076  0.99436  1.0000
  Fe  Fe327     1.0  0.95029  0.68388  0.09799  1.0000
  H   H1929     1.0  0.61540  0.96335  0.03144  1.0000
  C   C1913     1.0  0.85553  0.68849  0.14077  1.0000
  C   C1914     1.0  0.81800  0.78541  0.21693  1.0000
  Fe  Fe328     1.0  0.63644  0.75733  0.12292  1.0000
  S   S651      1.0  0.60605  0.74972  0.14198  1.0000
  H   H1930     1.0  0.50414  0.89212  0.17912  1.0000
  Fe  Fe329     1.0  0.60189  0.76845  0.10124  1.0000
  S   S652      1.0  0.56841  0.76298  0.11860  1.0000
  S   S653      1.0  0.60180  0.76989  0.07778  1.0000
  Fe  Fe330     1.0  0.58348  0.78360  0.13065  1.0000
  S   S654      1.0  0.55972  0.80976  0.14499  1.0000
  Fe  Fe331     1.0  0.59381  0.72977  0.12820  1.0000
  H   H1931     1.0  0.52247  0.87638  0.16496  1.0000
  S   S655      1.0  0.61467  0.79253  0.11226  1.0000
  S   S656      1.0  0.62654  0.73398  0.11028  1.0000
  Fe  Fe332     1.0  0.60672  0.94746  0.17682  1.0000
  S   S657      1.0  0.63834  0.92784  0.16236  1.0000
  C   C1915     1.0  0.63748  0.80897  0.14551  1.0000
  Fe  Fe333     1.0  0.58853  0.89991  0.19246  1.0000
  S   S658      1.0  0.61900  0.87677  0.17912  1.0000
  S   S659      1.0  0.56389  0.87743  0.20966  1.0000
  Fe  Fe334     1.0  0.64369  0.89954  0.18239  1.0000
  S   S660      1.0  0.68290  0.88257  0.18528  1.0000
  Fe  Fe335     1.0  0.61066  0.90709  0.16051  1.0000
  S   S661      1.0  0.61062  0.90025  0.13868  1.0000
  S   S662      1.0  0.61402  0.92071  0.19724  1.0000
  S   S663      1.0  0.57817  0.92870  0.17342  1.0000
  Fe  Fe336     1.0  0.78923  0.74887  0.18316  1.0000
  S   S664      1.0  0.78710  0.78924  0.18242  1.0000
  S   S665      1.0  0.71508  0.71386  0.18233  1.0000
  S   S666      1.0  0.77988  0.73582  0.16515  1.0000
  C   C1916     1.0  0.68526  0.74737  0.14060  1.0000
  C   C1917     1.0  0.67229  0.73223  0.15189  1.0000
  C   C1918     1.0  0.68125  0.72263  0.16484  1.0000
  C   C1919     1.0  0.70323  0.72803  0.16652  1.0000
  C   C1920     1.0  0.71575  0.74382  0.15540  1.0000
  C   C1921     1.0  0.78320  0.70437  0.13442  1.0000
  H   H1932     1.0  0.65575  0.72736  0.15051  1.0000
  H   H1933     1.0  0.67142  0.71052  0.17346  1.0000
  C   C1922     1.0  0.61468  0.70018  0.08504  1.0000
  C   C1923     1.0  0.49927  0.70843  0.12826  1.0000
  C   C1924     1.0  0.57286  0.83566  0.14303  1.0000
  C   C1925     1.0  0.58510  0.84616  0.12947  1.0000
  C   C1926     1.0  0.59626  0.86636  0.12812  1.0000
  C   C1927     1.0  0.59526  0.87603  0.14032  1.0000
  C   C1928     1.0  0.58280  0.86569  0.15386  1.0000
  C   C1929     1.0  0.57162  0.84553  0.15521  1.0000
  H   H1934     1.0  0.58572  0.83894  0.11998  1.0000
  H   H1935     1.0  0.60580  0.87437  0.11762  1.0000
  H   H1936     1.0  0.58185  0.87314  0.16332  1.0000
  H   H1937     1.0  0.56269  0.83715  0.16577  1.0000
  H   H1938     1.0  0.55950  0.80146  0.03977  1.0000
  C   C1930     1.0  0.66852  0.88692  0.21382  1.0000
  C   C1931     1.0  0.68833  0.88207  0.20249  1.0000
  C   C1932     1.0  0.84447  0.89188  0.21798  1.0000
  C   C1933     1.0  0.53622  0.81401  0.00887  1.0000
  C   C1934     1.0  0.55159  0.81201  0.03045  1.0000
  C   C1935     1.0  0.78606  0.81991  0.20065  1.0000
  C   C1936     1.0  0.79587  0.79663  0.19693  1.0000
  H   H1939     1.0  0.87867  0.73990  0.12298  1.0000
  H   H1940     1.0  0.77365  0.83330  0.19436  1.0000
  C   C1937     1.0  0.68485  0.82696  0.16801  1.0000
  C   C1938     1.0  0.53179  0.83977  0.00671  1.0000
  C   C1939     1.0  0.63923  0.95886  0.98273  1.0000
  C   C1940     1.0  0.89323  0.70363  0.11793  1.0000
  H   H1941     1.0  0.64576  0.85371  0.14451  1.0000
  C   C1941     1.0  0.70928  0.94195  0.19507  1.0000
  C   C1942     1.0  0.71717  0.87848  0.21833  1.0000
  H   H1942     1.0  0.67806  0.96300  0.17712  1.0000
  C   C1943     1.0  0.61539  0.96423  0.99093  1.0000
  H   H1943     1.0  0.65541  0.75941  0.97757  1.0000
  Fe  Fe337     1.0  0.80894  0.70235  0.17054  1.0000
  C   C1944     1.0  0.59783  0.65715  0.08738  1.0000
  C   C1945     1.0  0.71269  0.87744  0.20482  1.0000
  H   H1944     1.0  0.59678  0.95486  0.14043  1.0000
  S   S667      1.0  0.79936  0.67967  0.22524  1.0000
  H   H1945     1.0  0.91291  0.69466  0.14740  1.0000
  C   C1946     1.0  0.53193  0.88393  0.20977  1.0000
  C   C1947     1.0  0.51968  0.90767  0.20459  1.0000
  H   H1946     1.0  0.77779  0.72929  0.11436  1.0000
  H   H1947     1.0  0.58055  0.67684  0.06942  1.0000
  H   H1948     1.0  0.52944  0.72547  0.13840  1.0000
  H   H1949     1.0  0.53016  0.92212  0.19954  1.0000
  C   C1948     1.0  0.92405  0.65547  0.14824  1.0000
  S   S668      1.0  0.97950  0.67608  0.11146  1.0000
  H   H1950     1.0  0.53723  0.88602  0.00161  1.0000
  C   C1949     1.0  0.59406  0.72063  0.06460  1.0000
  H   H1951     1.0  0.66788  0.91297  0.00769  1.0000
  H   H1952     1.0  0.85912  0.66579  0.18950  1.0000
  C   C1950     1.0  0.76964  0.71690  0.12365  1.0000
  S   S669      1.0  0.67585  0.75790  0.12382  1.0000
  C   C1951     1.0  0.87164  0.67150  0.13277  1.0000
  H   H1953     1.0  0.66701  0.93479  0.18581  1.0000
  C   C1952     1.0  0.59351  0.84455  0.04706  1.0000
  C   C1953     1.0  0.58612  0.84345  0.06205  1.0000
  C   C1954     1.0  0.58924  0.82065  0.07167  1.0000
  C   C1955     1.0  0.59927  0.79890  0.06626  1.0000
  C   C1956     1.0  0.60662  0.80004  0.05128  1.0000
  C   C1957     1.0  0.60407  0.82282  0.04172  1.0000
  H   H1954     1.0  0.57793  0.86022  0.06624  1.0000
  H   H1955     1.0  0.58346  0.81986  0.08324  1.0000
  H   H1956     1.0  0.61463  0.78329  0.04705  1.0000
  H   H1957     1.0  0.61023  0.82348  0.03022  1.0000
  H   H1958     1.0  0.98779  0.66797  0.03383  1.0000
  H   H1959     1.0  0.60974  0.73062  0.06011  1.0000
  H   H1960     1.0  0.52407  0.85049  0.99737  1.0000
  C   C1958     1.0  0.66692  0.79691  0.16209  1.0000
  H   H1961     1.0  0.83053  0.77204  0.22315  1.0000
  H   H1962     1.0  0.66496  0.77791  0.16357  1.0000
  C   C1959     1.0  0.63381  0.95788  0.02530  1.0000
  Fe  Fe338     1.0  0.63068  0.89823  0.98435  1.0000
  H   H1963     1.0  0.60292  0.95152  0.99297  1.0000
  H   H1964     1.0  0.59010  0.81994  0.97960  1.0000
  S   S670      1.0  0.76126  0.73159  0.20055  1.0000
  C   C1960     1.0  0.68260  0.80248  0.16960  1.0000
  H   H1965     1.0  0.68671  0.98028  0.01059  1.0000
  H   H1966     1.0  0.50457  0.72636  0.15407  1.0000
  C   C1961     1.0  0.67276  0.95020  0.21266  1.0000
  H   H1967     1.0  0.52764  0.86550  0.18336  1.0000
  C   C1962     1.0  0.77227  0.68880  0.14645  1.0000
  C   C1963     1.0  0.62920  0.96299  0.12474  1.0000
  Fe  Fe339     1.0  0.59156  0.87029  0.98278  1.0000
  H   H1968     1.0  0.97182  0.69188  0.02140  1.0000
  H   H1969     1.0  0.57818  0.73343  0.06979  1.0000
  H   H1970     1.0  0.83293  0.90282  0.21034  1.0000
  H   H1971     1.0  0.93857  0.65710  0.13865  1.0000
  C   C1964     1.0  0.72401  0.93764  0.20552  1.0000
  H   H1972     1.0  0.51350  0.88566  0.01788  1.0000
  H   H1973     1.0  0.54537  0.88492  0.01856  1.0000
  H   H1974     1.0  0.73638  0.78893  0.20838  1.0000
  H   H1975     1.0  0.52102  0.83083  0.16792  1.0000
  S   S671      1.0  0.58183  0.69299  0.13552  1.0000
  C   C1965     1.0  0.54699  0.65738  0.11709  1.0000
  H   H1976     1.0  0.78293  0.67912  0.15477  1.0000
  C   C1966     1.0  0.73521  0.69769  0.13712  1.0000
  H   H1977     1.0  0.74423  0.66981  0.17027  1.0000
  C   C1967     1.0  0.55910  0.66327  0.12658  1.0000
  C   C1968     1.0  0.68028  0.94543  0.00855  1.0000
  C   C1969     1.0  0.98212  0.67251  0.02310  1.0000
  H   H1978     1.0  0.76653  0.75745  0.22099  1.0000
  H   H1979     1.0  0.53207  0.80497  0.00124  1.0000
  Fe  Fe340     1.0  0.75402  0.71637  0.18297  1.0000
  C   C1970     1.0  0.54189  0.67442  0.10462  1.0000
  C   C1971     1.0  0.67158  0.84545  0.15890  1.0000
  C   C1972     1.0  0.53312  0.87831  0.01343  1.0000
  H   H1980     1.0  0.63025  0.68162  0.10403  1.0000
  C   C1973     1.0  0.90977  0.67652  0.15323  1.0000
  H   H1981     1.0  0.71810  0.93964  0.18410  1.0000
  S   S672      1.0  0.52796  0.66725  0.09205  1.0000
  H   H1982     1.0  0.80205  0.70676  0.13352  1.0000
  C   C1974     1.0  0.66314  0.92978  0.01208  1.0000
  C   C1975     1.0  0.64311  0.98120  0.11762  1.0000
  C   C1976     1.0  0.72772  0.81215  0.22434  1.0000
  H   H1983     1.0  0.71699  0.67509  0.16296  1.0000
  N   N159      1.0  0.65428  0.81512  0.15299  1.0000
  S   S673      1.0  0.78220  0.68174  0.18708  1.0000
  N   N160      1.0  0.68404  0.94860  0.19866  1.0000
  C   C1977     1.0  0.65047  0.97399  0.02195  1.0000
  H   H1984     1.0  0.58885  0.71575  0.05541  1.0000
  C   C1978     1.0  0.51325  0.87362  0.17657  1.0000
  H   H1985     1.0  0.55030  0.78009  0.02240  1.0000
  H   H1986     1.0  0.52767  0.84694  0.22036  1.0000
  C   C1979     1.0  0.60757  0.96891  0.13474  1.0000
  N   N161      1.0  0.50546  0.69986  0.14165  1.0000
  C   C1980     1.0  0.54892  0.69738  0.10173  1.0000
  N   N162      1.0  0.74844  0.68597  0.14779  1.0000
  C   C1981     1.0  0.70674  0.75351  0.14247  1.0000
  H   H1987     1.0  0.69669  0.83171  0.17389  1.0000
  C   C1982     1.0  0.54674  0.83780  0.02800  1.0000
  H   H1988     1.0  0.69949  0.76219  0.98085  1.0000
  C   C1983     1.0  0.84550  0.86650  0.22218  1.0000
  N   N163      1.0  0.53762  0.85131  0.01603  1.0000
  C   C1984     1.0  0.49883  0.67859  0.15008  1.0000
  H   H1989     1.0  0.84565  0.72643  0.14336  1.0000
  H   H1990     1.0  0.56721  0.72062  0.10854  1.0000
  H   H1991     1.0  0.73248  0.74839  0.15667  1.0000
  H   H1992     1.0  0.71670  0.76542  0.13379  1.0000
  N   N164      1.0  0.60103  0.69874  0.07542  1.0000
  C   C1985     1.0  0.61165  0.65849  0.09727  1.0000
  H   H1993     1.0  0.62086  0.71715  0.08438  1.0000
  H   H1994     1.0  0.64972  0.88959  0.21231  1.0000
  H   H1995     1.0  0.64954  0.97399  0.15964  1.0000
  H   H1996     1.0  0.65271  0.95439  0.21564  1.0000
  C   C1986     1.0  0.85788  0.90329  0.22402  1.0000
  S   S674      1.0  0.83327  0.67774  0.15544  1.0000
  C   C1987     1.0  0.71271  0.93977  0.21975  1.0000
  C   C1988     1.0  0.87674  0.72078  0.12574  1.0000
  C   C1989     1.0  0.51821  0.86536  0.21638  1.0000
  C   C1990     1.0  0.80759  0.80840  0.22092  1.0000
  H   H1997     1.0  0.64419  0.79016  0.14297  1.0000
  H   H1998     1.0  0.54511  0.71063  0.09209  1.0000
  H   H1999     1.0  0.61870  0.80983  0.15240  1.0000
  C   C1991     1.0  0.51825  0.71409  0.14732  1.0000
  C   C1992     1.0  0.54643  0.80008  0.02074  1.0000
  C   C1993     1.0  0.50264  0.83554  0.17433  1.0000
  S   S675      1.0  0.91710  0.71329  0.10392  1.0000
  H   H2000     1.0  0.78343  0.84338  0.21573  1.0000
  H   H2001     1.0  0.69285  0.78788  0.17664  1.0000
  N   N165      1.0  0.64038  0.93597  0.02050  1.0000
  C   C1994     1.0  0.79158  0.82564  0.21276  1.0000
  C   C1995     1.0  0.81184  0.77937  0.20512  1.0000
  H   H2002     1.0  0.81959  0.76144  0.20227  1.0000
  H   H2003     1.0  0.72811  0.87341  0.19611  1.0000
  S   S676      1.0  0.66578  0.80475  0.98941  1.0000
  H   H2004     1.0  0.73456  0.72345  0.11679  1.0000
  H   H2005     1.0  0.67297  0.86457  0.15776  1.0000
  S   S677      1.0  0.82104  0.71717  0.18681  1.0000
  C   C1996     1.0  0.85803  0.71319  0.13724  1.0000
  C   C1997     1.0  0.89056  0.67899  0.12147  1.0000
  H   H2006     1.0  0.53159  0.70161  0.15391  1.0000
  C   C1998     1.0  0.56643  0.68610  0.12357  1.0000
  C   C1999     1.0  0.65620  0.83918  0.15146  1.0000
  H   H2007     1.0  0.71628  0.69553  0.13816  1.0000
  Fe  Fe341     1.0  0.79218  0.69882  0.20298  1.0000
  C   C2000     1.0  0.74552  0.71348  0.12495  1.0000
  C   C2001     1.0  0.62018  0.68010  0.09611  1.0000
  H   H2008     1.0  0.65028  0.96394  0.19058  1.0000
  H   H2009     1.0  0.96899  0.66056  0.02336  1.0000
  H   H2010     1.0  0.69807  0.94070  0.00158  1.0000
  H   H2011     1.0  0.85661  0.92312  0.22084  1.0000
  H   H2012     1.0  0.74398  0.93208  0.20271  1.0000
  C   C2002     1.0  0.59246  0.67765  0.07654  1.0000
  H   H2013     1.0  0.90292  0.66572  0.11542  1.0000
  H   H2014     1.0  0.60611  0.92485  0.03198  1.0000
  H   H2015     1.0  0.61645  0.91912  0.01381  1.0000
  H   H2016     1.0  0.97727  0.67666  0.98098  1.0000
  H   H2017     1.0  0.63156  0.90022  0.02825  1.0000
  C   C2003     1.0  0.73750  0.66932  0.16043  1.0000
  C   C2004     1.0  0.62274  0.91932  0.02381  1.0000
  C   C2005     1.0  0.66907  0.95277  0.18753  1.0000
  N   N166      1.0  0.49547  0.85722  0.17938  1.0000
  C   C2006     1.0  0.67388  0.96763  0.01357  1.0000
  H   H2018     1.0  0.63514  0.94431  0.12264  1.0000
  H   H2019     1.0  0.86976  0.65237  0.13545  1.0000
  C   C2007     1.0  0.65496  0.97592  0.97985  1.0000
  H   H2020     1.0  0.50451  0.72527  0.12157  1.0000
  C   C2008     1.0  0.73971  0.79116  0.21856  1.0000
  H   H2021     1.0  0.62974  0.78433  0.97927  1.0000
  C   C2009     1.0  0.68693  0.94595  0.22339  1.0000
  H   H2022     1.0  0.73598  0.87522  0.21998  1.0000
  C   C2010     1.0  0.75687  0.77343  0.22569  1.0000
  H   H2023     1.0  0.71458  0.82618  0.21883  1.0000
  H   H2024     1.0  0.50344  0.67196  0.16077  1.0000
  H   H2025     1.0  0.66001  0.97644  0.10993  1.0000
  C   C2011     1.0  0.49366  0.91303  0.20665  1.0000
  H   H2026     1.0  0.58423  0.77830  0.97926  1.0000
  C   C2012     1.0  0.50992  0.82180  0.26219  1.0000
  H   H2027     1.0  0.76891  0.75030  0.37694  1.0000
  C   C2013     1.0  0.85005  0.93831  0.43036  1.0000
  C   C2014     1.0  0.52389  0.86086  0.25068  1.0000
  C   C2015     1.0  0.69727  0.88425  0.22948  1.0000
  H   H2028     1.0  0.65878  0.91916  0.32044  1.0000
  C   C2016     1.0  0.57826  0.66983  0.47410  1.0000
  C   C2017     1.0  0.92010  0.96421  0.43870  1.0000
  H   H2029     1.0  0.91040  0.65900  0.41338  1.0000
  S   S678      1.0  0.87802  0.95426  0.27174  1.0000
  H   H2030     1.0  0.75883  0.90718  0.30735  1.0000
  C   C2018     1.0  0.56949  0.87608  0.32187  1.0000
  C   C2019     1.0  0.69502  0.92504  0.33140  1.0000
  H   H2031     1.0  0.85578  0.68823  0.37707  1.0000
  C   C2020     1.0  0.71340  0.97209  0.38363  1.0000
  Fe  Fe342     1.0  0.78728  0.90201  0.24639  1.0000
  S   S679      1.0  0.80684  0.86671  0.25823  1.0000
  S   S680      1.0  0.76941  0.70564  0.46373  1.0000
  Fe  Fe343     1.0  0.74126  0.88137  0.24917  1.0000
  S   S681      1.0  0.75671  0.84465  0.26153  1.0000
  H   H2032     1.0  0.83268  0.97510  0.43377  1.0000
  Fe  Fe344     1.0  0.77021  0.86649  0.27347  1.0000
  S   S682      1.0  0.76754  0.85783  0.29758  1.0000
  Fe  Fe345     1.0  0.79154  0.84823  0.24508  1.0000
  H   H2033     1.0  0.53435  0.89586  0.24013  1.0000
  S   S683      1.0  0.75165  0.90319  0.26259  1.0000
  C   C2021     1.0  0.71001  0.75982  0.39435  1.0000
  C   C2022     1.0  0.67371  0.92629  0.31188  1.0000
  C   C2023     1.0  0.71216  0.95630  0.39715  1.0000
  H   H2034     1.0  0.72382  0.83146  0.24171  1.0000
  H   H2035     1.0  0.50651  0.81876  0.27423  1.0000
  C   C2024     1.0  0.99198  0.65472  0.38136  1.0000
  H   H2036     1.0  0.71509  0.92351  0.34810  1.0000
  H   H2037     1.0  0.60637  0.85767  0.34694  1.0000
  H   H2038     1.0  0.89905  0.95083  0.40665  1.0000
  C   C2025     1.0  0.85975  0.85289  0.23240  1.0000
  C   C2026     1.0  0.85112  0.96665  0.24984  1.0000
  C   C2027     1.0  0.90111  0.65193  0.39450  1.0000
  C   C2028     1.0  0.73961  0.91497  0.32837  1.0000
  H   H2039     1.0  0.67712  0.93004  0.33821  1.0000
  H   H2040     1.0  0.69632  0.73982  0.43075  1.0000
  S   S684      1.0  0.93579  0.87369  0.45859  1.0000
  Fe  Fe346     1.0  0.65367  0.86250  0.38444  1.0000
  S   S685      1.0  0.62902  0.89801  0.38935  1.0000
  S   S686      1.0  0.66698  0.83383  0.40288  1.0000
  Fe  Fe347     1.0  0.64995  0.87614  0.35263  1.0000
  S   S687      1.0  0.62540  0.91278  0.35492  1.0000
  S   S688      1.0  0.65647  0.86612  0.33072  1.0000
  Fe  Fe348     1.0  0.65147  0.91533  0.36869  1.0000
  Fe  Fe349     1.0  0.60532  0.89196  0.37518  1.0000
  S   S689      1.0  0.56386  0.89287  0.38218  1.0000
  S   S690      1.0  0.67769  0.88022  0.36468  1.0000
  S   S691      1.0  0.62838  0.85498  0.37200  1.0000
  C   C2029     1.0  0.70691  0.74192  0.41977  1.0000
  C   C2030     1.0  0.85444  0.95565  0.45009  1.0000
  H   H2041     1.0  0.72382  0.93569  0.22809  1.0000
  C   C2031     1.0  0.74328  0.67028  0.46483  1.0000
  C   C2032     1.0  0.71649  0.92140  0.33704  1.0000
  H   H2042     1.0  0.67679  0.76645  0.41046  1.0000
  N   N167      1.0  0.76220  0.77667  0.23811  1.0000
  Fe  Fe350     1.0  0.79010  0.73075  0.44559  1.0000
  S   S692      1.0  0.80376  0.72101  0.42350  1.0000
  H   H2043     1.0  0.67800  0.94647  0.23458  1.0000
  Fe  Fe351     1.0  0.81600  0.77515  0.43776  1.0000
  S   S693      1.0  0.83192  0.76835  0.41523  1.0000
  S   S694      1.0  0.82159  0.81067  0.44223  1.0000
  Fe  Fe352     1.0  0.79429  0.76193  0.41547  1.0000
  S   S695      1.0  0.77889  0.77954  0.39523  1.0000
  Fe  Fe353     1.0  0.84007  0.72833  0.42534  1.0000
  S   S696      1.0  0.87732  0.70357  0.42004  1.0000
  S   S697      1.0  0.77750  0.77126  0.43740  1.0000
  S   S698      1.0  0.82728  0.73550  0.44805  1.0000
  N   N168      1.0  0.89696  0.97744  0.41943  1.0000
  H   H2044     1.0  0.79306  0.76706  0.24870  1.0000
  C   C2033     1.0  0.89844  0.66534  0.40547  1.0000
  C   C2034     1.0  0.74403  0.69551  0.46101  1.0000
  H   H2045     1.0  0.74066  0.71915  0.42584  1.0000
  S   S699      1.0  0.67177  0.66939  0.46458  1.0000
  H   H2046     1.0  0.65752  0.89224  0.23593  1.0000
  C   C2035     1.0  0.90518  0.95481  0.41554  1.0000
  H   H2047     1.0  0.68454  0.71735  0.45585  1.0000
  H   H2048     1.0  0.66746  0.94631  0.30799  1.0000
  C   C2036     1.0  0.69876  0.82116  0.40080  1.0000
  C   C2037     1.0  0.71434  0.82375  0.38719  1.0000
  C   C2038     1.0  0.73924  0.81159  0.38567  1.0000
  C   C2039     1.0  0.74856  0.79675  0.39771  1.0000
  C   C2040     1.0  0.73311  0.79458  0.41135  1.0000
  C   C2041     1.0  0.70829  0.80686  0.41290  1.0000
  H   H2049     1.0  0.70707  0.83453  0.37779  1.0000
  H   H2050     1.0  0.75115  0.81331  0.37508  1.0000
  H   H2051     1.0  0.73995  0.78280  0.42064  1.0000
  H   H2052     1.0  0.69623  0.80474  0.42343  1.0000
  C   C2042     1.0  0.70013  0.96963  0.37359  1.0000
  C   C2043     1.0  0.88005  0.68672  0.40640  1.0000
  C   C2044     1.0  0.86450  0.69473  0.39623  1.0000
  H   H2053     1.0  0.79207  0.74532  0.23826  1.0000
  C   C2045     1.0  0.49466  0.89868  0.24523  1.0000
  H   H2054     1.0  0.72319  0.73196  0.45479  1.0000
  H   H2055     1.0  0.85039  0.71126  0.39680  1.0000
  H   H2056     1.0  0.49767  0.81217  0.25896  1.0000
  H   H2057     1.0  0.69705  0.92544  0.41085  1.0000
  C   C2046     1.0  0.88729  0.80918  0.46272  1.0000
  C   C2047     1.0  0.87924  0.78724  0.46360  1.0000
  C   C2048     1.0  0.85880  0.78753  0.45761  1.0000
  C   C2049     1.0  0.84596  0.80986  0.45094  1.0000
  C   C2050     1.0  0.85332  0.83194  0.45061  1.0000
  C   C2051     1.0  0.87400  0.83162  0.45644  1.0000
  H   H2058     1.0  0.86026  0.83319  0.23588  1.0000
  H   H2059     1.0  0.85310  0.77045  0.45806  1.0000
  H   H2060     1.0  0.84339  0.84932  0.44553  1.0000
  H   H2061     1.0  0.88006  0.84863  0.45571  1.0000
  C   C2052     1.0  0.87490  0.91376  0.44801  1.0000
  H   H2062     1.0  0.86947  0.90088  0.42995  1.0000
  H   H2063     1.0  0.88656  0.89662  0.45193  1.0000
  H   H2064     1.0  0.93445  0.72353  0.45190  1.0000
  C   C2053     1.0  0.87007  0.93367  0.45509  1.0000
  H   H2065     1.0  0.57857  0.84716  0.37093  1.0000
  S   S700      1.0  0.84035  0.94157  0.41394  1.0000
  C   C2054     1.0  0.86759  0.68168  0.38505  1.0000
  C   C2055     1.0  0.53219  0.91478  0.34625  1.0000
  C   C2056     1.0  0.54906  0.91085  0.35561  1.0000
  C   C2057     1.0  0.54381  0.89777  0.36980  1.0000
  C   C2058     1.0  0.52182  0.88843  0.37448  1.0000
  C   C2059     1.0  0.78461  0.97926  0.46527  1.0000
  H   H2066     1.0  0.53622  0.92510  0.33533  1.0000
  H   H2067     1.0  0.56585  0.91832  0.35194  1.0000
  H   H2068     1.0  0.51771  0.87824  0.38541  1.0000
  S   S701      1.0  0.70197  0.88825  0.24601  1.0000
  C   C2060     1.0  0.73695  0.85763  0.30689  1.0000
  C   C2061     1.0  0.71773  0.86157  0.29928  1.0000
  C   C2062     1.0  0.69311  0.86327  0.30676  1.0000
  C   C2063     1.0  0.68758  0.86158  0.32181  1.0000
  C   C2064     1.0  0.70682  0.85728  0.32944  1.0000
  C   C2065     1.0  0.73150  0.85509  0.32200  1.0000
  H   H2069     1.0  0.72178  0.86359  0.28762  1.0000
  H   H2070     1.0  0.67829  0.86647  0.30082  1.0000
  H   H2071     1.0  0.70275  0.85549  0.34107  1.0000
  H   H2072     1.0  0.74634  0.85200  0.32791  1.0000
  H   H2073     1.0  0.58052  0.81855  0.36519  1.0000
  S   S702      1.0  0.79211  0.97714  0.39014  1.0000
  H   H2074     1.0  0.55084  0.83717  0.37147  1.0000
  H   H2075     1.0  0.92686  0.91811  0.42040  1.0000
  C   C2066     1.0  0.51911  0.88620  0.24509  1.0000
  C   C2067     1.0  0.92833  0.94100  0.43493  1.0000
  S   S703      1.0  0.72758  0.95921  0.41039  1.0000
  H   H2076     1.0  0.74282  0.77084  0.37080  1.0000
  H   H2077     1.0  0.88007  0.92235  0.23801  1.0000
  H   H2078     1.0  0.77058  0.74692  0.25522  1.0000
  C   C2068     1.0  0.54894  0.86630  0.32996  1.0000
  H   H2079     1.0  0.75660  0.97159  0.45628  1.0000
  C   C2069     1.0  0.86511  0.91616  0.43560  1.0000
  C   C2070     1.0  0.56994  0.83768  0.36516  1.0000
  N   N169      1.0  0.56969  0.85100  0.35024  1.0000
  C   C2071     1.0  0.85622  0.95032  0.26254  1.0000
  C   C2072     1.0  0.84441  0.93001  0.26775  1.0000
  C   C2073     1.0  0.82782  0.92585  0.26022  1.0000
  C   C2074     1.0  0.82310  0.94189  0.24736  1.0000
  C   C2075     1.0  0.83469  0.96236  0.24224  1.0000
  S   S704      1.0  0.91568  0.80746  0.46785  1.0000
  H   H2080     1.0  0.84818  0.91741  0.27762  1.0000
  H   H2081     1.0  0.81880  0.91019  0.26436  1.0000
  C   C2076     1.0  0.73179  0.73038  0.41702  1.0000
  S   S705      1.0  0.81441  0.81465  0.23641  1.0000
  C   C2077     1.0  0.74099  0.91263  0.31415  1.0000
  H   H2082     1.0  0.88926  0.76986  0.46860  1.0000
  C   C2078     1.0  0.69589  0.75669  0.40838  1.0000
  H   H2083     1.0  0.75640  0.91170  0.33267  1.0000
  C   C2079     1.0  0.68525  0.93495  0.39028  1.0000
  H   H2084     1.0  0.85070  0.97111  0.45552  1.0000
  C   C2080     1.0  0.87272  0.86494  0.23835  1.0000
  C   C2081     1.0  0.72159  0.66198  0.46520  1.0000
  H   H2085     1.0  0.76487  0.72542  0.40084  1.0000
  C   C2082     1.0  0.68589  0.95117  0.37691  1.0000
  S   S706      1.0  0.77515  0.88365  0.23173  1.0000
  N   N170      1.0  0.89977  0.77889  0.42786  1.0000
  C   C2083     1.0  0.89536  0.75574  0.42917  1.0000
  C   C2084     1.0  0.91724  0.78238  0.43447  1.0000
  C   C2085     1.0  0.90781  0.73548  0.43778  1.0000
  C   C2086     1.0  0.92998  0.76255  0.44320  1.0000
  C   C2087     1.0  0.92509  0.73899  0.44492  1.0000
  C   C2088     1.0  0.88619  0.79992  0.41898  1.0000
  H   H2086     1.0  0.88191  0.75280  0.42371  1.0000
  H   H2087     1.0  0.92057  0.80075  0.43363  1.0000
  H   H2088     1.0  0.90379  0.71726  0.43897  1.0000
  H   H2089     1.0  0.94281  0.76573  0.44904  1.0000
  H   H2090     1.0  0.83108  0.97487  0.23232  1.0000
  H   H2091     1.0  0.88497  0.81744  0.42259  1.0000
  H   H2092     1.0  0.89540  0.80140  0.40742  1.0000
  H   H2093     1.0  0.86674  0.79780  0.42011  1.0000
  C   C2089     1.0  0.59032  0.87280  0.32800  1.0000
  H   H2094     1.0  0.88252  0.89623  0.25238  1.0000
  H   H2095     1.0  0.54301  0.85127  0.25019  1.0000
  C   C2090     1.0  0.69817  0.93767  0.40040  1.0000
  H   H2096     1.0  0.72042  0.91417  0.29785  1.0000
  H   H2097     1.0  0.67653  0.91627  0.30286  1.0000
  C   C2091     1.0  0.78031  0.75802  0.24547  1.0000
  C   C2092     1.0  0.71912  0.91650  0.30884  1.0000
  H   H2098     1.0  0.53321  0.84651  0.35048  1.0000
  N   N171      1.0  0.69651  0.92215  0.31755  1.0000
  C   C2093     1.0  0.54944  0.85359  0.34418  1.0000
  C   C2094     1.0  0.84427  0.95793  0.43779  1.0000
  H   H2099     1.0  0.88350  0.85429  0.24643  1.0000
  C   C2095     1.0  0.51039  0.90503  0.35088  1.0000
  C   C2096     1.0  0.59013  0.86005  0.34227  1.0000
  C   C2097     1.0  0.88586  0.66025  0.38416  1.0000
  C   C2098     1.0  0.74536  0.73392  0.40284  1.0000
  Fe  Fe354     1.0  0.80949  0.97363  0.40929  1.0000
  S   S707      1.0  0.77367  0.97763  0.42502  1.0000
  N   N172      1.0  0.77790  0.88999  0.41449  1.0000
  C   C2099     1.0  0.75940  0.89583  0.40662  1.0000
  C   C2100     1.0  0.78567  0.86604  0.42087  1.0000
  C   C2101     1.0  0.74759  0.87762  0.40537  1.0000
  C   C2102     1.0  0.77440  0.84733  0.41974  1.0000
  C   C2103     1.0  0.75518  0.85323  0.41199  1.0000
  C   C2104     1.0  0.79010  0.90945  0.41547  1.0000
  H   H2100     1.0  0.75359  0.91470  0.40131  1.0000
  H   H2101     1.0  0.80060  0.86121  0.42693  1.0000
  H   H2102     1.0  0.73263  0.88242  0.39933  1.0000
  H   H2103     1.0  0.78056  0.82837  0.42487  1.0000
  H   H2104     1.0  0.74620  0.83895  0.41108  1.0000
  H   H2105     1.0  0.80423  0.91328  0.40552  1.0000
  H   H2106     1.0  0.77631  0.92676  0.41671  1.0000
  H   H2107     1.0  0.79944  0.90425  0.42497  1.0000
  H   H2108     1.0  0.67430  0.92071  0.39296  1.0000
  N   N173      1.0  0.50480  0.84830  0.25620  1.0000
  C   C2105     1.0  0.74889  0.75203  0.37694  1.0000
  S   S708      1.0  0.66885  0.94899  0.36428  1.0000
  H   H2109     1.0  0.53235  0.86920  0.32547  1.0000
  H   H2110     1.0  0.60654  0.88016  0.32184  1.0000
  N   N174      1.0  0.73448  0.74869  0.39176  1.0000
  C   C2106     1.0  0.73296  0.81512  0.23716  1.0000
  H   H2111     1.0  0.70148  0.77193  0.38564  1.0000
  C   C2107     1.0  0.92092  0.93624  0.42325  1.0000
  C   C2108     1.0  0.75032  0.79702  0.24396  1.0000
  C   C2109     1.0  0.70023  0.67893  0.46215  1.0000
  H   H2112     1.0  0.92539  0.96792  0.44793  1.0000
  H   H2113     1.0  0.94008  0.92662  0.44122  1.0000
  C   C2110     1.0  0.50531  0.89179  0.36504  1.0000
  H   H2114     1.0  0.97005  0.97083  0.24501  1.0000
  H   H2115     1.0  0.56914  0.88637  0.31093  1.0000
  C   C2111     1.0  0.88575  0.90191  0.24038  1.0000
  H   H2116     1.0  0.75455  0.79942  0.25383  1.0000
  S   S709      1.0  0.80395  0.93598  0.23709  1.0000
  C   C2112     1.0  0.72300  0.71241  0.45734  1.0000
  C   C2113     1.0  0.70112  0.70413  0.45798  1.0000
  H   H2117     1.0  0.98954  0.67291  0.37456  1.0000
  S   S710      1.0  0.88459  0.93183  0.46962  1.0000
  H   H2118     1.0  0.79837  0.96346  0.46229  1.0000
  C   C2114     1.0  0.60356  0.66706  0.46822  1.0000
  C   C2115     1.0  0.56330  0.65884  0.46896  1.0000
  H   H2119     1.0  0.74670  0.73809  0.37124  1.0000
  C   C2116     1.0  0.98647  0.97531  0.23741  1.0000
  H   H2120     1.0  0.75940  0.65713  0.46781  1.0000
  H   H2121     1.0  0.52935  0.81308  0.25819  1.0000
  N   N175      1.0  0.87156  0.88986  0.23418  1.0000
  H   H2122     1.0  0.90585  0.89702  0.23589  1.0000
  H   H2123     1.0  0.89753  0.96742  0.32816  1.0000
  Fe  Fe355     1.0  0.96423  0.86877  0.47243  1.0000
  C   C2117     1.0  0.61364  0.65294  0.45743  1.0000
  Fe  Fe356     1.0  0.92322  0.84074  0.47398  1.0000
  H   H2124     1.0  0.54363  0.66057  0.47354  1.0000
  H   H2125     1.0  0.89094  0.97182  0.30420  1.0000
  H   H2126     1.0  0.85901  0.96832  0.30802  1.0000
  Fe  Fe357     1.0  0.91051  0.89543  0.47481  1.0000
  C   C2118     1.0  0.90446  0.98238  0.43073  1.0000
  H   H2127     1.0  0.61546  0.67551  0.47209  1.0000
  C   C2119     1.0  0.87138  0.98147  0.30685  1.0000
  C   C2120     1.0  0.88156  0.98198  0.33012  1.0000
  H   H2128     1.0  0.70068  0.98224  0.36327  1.0000
  H   H2129     1.0  0.86012  0.98240  0.24575  1.0000
  Fe  Fe358     1.0  0.75594  0.98356  0.40566  1.0000
  C   C2121     1.0  0.76102  0.98400  0.46183  1.0000
  H   H2130     1.0  0.88948  0.98451  0.35048  1.0000
  C   C2122     1.0  0.67297  0.88809  0.22726  1.0000
  S   S711      1.0  0.86231  0.86432  0.63393  1.0000
  H   H2131     1.0  0.49590  0.90652  0.69561  1.0000
  H   H2132     1.0  0.75495  0.68329  0.51036  1.0000
  Fe  Fe359     1.0  0.88225  0.94490  0.61181  1.0000
  C   C2123     1.0  0.53201  0.75130  0.72444  1.0000
  C   C2124     1.0  0.67749  0.76007  0.72373  1.0000
  C   C2125     1.0  0.87642  0.91430  0.51073  1.0000
  C   C2126     1.0  0.93929  0.94803  0.62125  1.0000
  Fe  Fe360     1.0  0.83121  0.71474  0.67747  1.0000
  S   S712      1.0  0.80665  0.75143  0.67131  1.0000
  S   S713      1.0  0.86075  0.70618  0.69118  1.0000
  Fe  Fe361     1.0  0.81193  0.68954  0.65866  1.0000
  S   S714      1.0  0.78674  0.72427  0.65077  1.0000
  H   H2133     1.0  0.85205  0.78961  0.70039  1.0000
  Fe  Fe362     1.0  0.81812  0.74330  0.64877  1.0000
  S   S715      1.0  0.82961  0.76889  0.62782  1.0000
  Fe  Fe363     1.0  0.77751  0.72898  0.67390  1.0000
  S   S716      1.0  0.73654  0.73992  0.68188  1.0000
  S   S717      1.0  0.84448  0.70802  0.65469  1.0000
  S   S718      1.0  0.80093  0.69282  0.68207  1.0000
  C   C2127     1.0  0.92318  0.89907  0.55404  1.0000
  Fe  Fe364     1.0  0.92719  0.85896  0.50052  1.0000
  S   S719      1.0  0.92018  0.84755  0.52489  1.0000
  H   H2134     1.0  0.86803  0.91887  0.56033  1.0000
  H   H2135     1.0  0.94194  0.91999  0.53474  1.0000
  H   H2136     1.0  0.69304  0.76571  0.71564  1.0000
  Fe  Fe365     1.0  0.96904  0.79797  0.72505  1.0000
  C   C2128     1.0  0.96355  0.94547  0.62334  1.0000
  H   H2137     1.0  0.86076  0.89220  0.54668  1.0000
  S   S720      1.0  0.84641  0.93161  0.61981  1.0000
  H   H2138     1.0  0.78876  0.90511  0.60408  1.0000
  C   C2129     1.0  0.77199  0.66804  0.64053  1.0000
  S   S721      1.0  0.86147  0.90274  0.59227  1.0000
  H   H2139     1.0  0.96997  0.92600  0.67674  1.0000
  H   H2140     1.0  0.88877  0.73290  0.65625  1.0000
  C   C2130     1.0  0.74521  0.68214  0.50188  1.0000
  H   H2141     1.0  0.76486  0.94482  0.61023  1.0000
  N   N176      1.0  0.72222  0.67272  0.50815  1.0000
  C   C2131     1.0  0.96872  0.96004  0.63168  1.0000
  N   N177      1.0  0.94739  0.97866  0.58626  1.0000
  S   S722      1.0  0.95374  0.83397  0.48653  1.0000
  H   H2142     1.0  0.60717  0.78175  0.71828  1.0000
  C   C2132     1.0  0.69873  0.66791  0.68431  1.0000
  H   H2143     1.0  0.82034  0.98082  0.60969  1.0000
  H   H2144     1.0  0.73510  0.69155  0.67099  1.0000
  C   C2133     1.0  0.69990  0.71969  0.70113  1.0000
  C   C2134     1.0  0.72480  0.72184  0.69820  1.0000
  C   C2135     1.0  0.97581  0.90029  0.65623  1.0000
  C   C2136     1.0  0.88092  0.75211  0.65793  1.0000
  C   C2137     1.0  0.92178  0.86756  0.53586  1.0000
  C   C2138     1.0  0.91185  0.86249  0.55072  1.0000
  C   C2139     1.0  0.91227  0.87835  0.55977  1.0000
  H   H2145     1.0  0.90363  0.84630  0.55524  1.0000
  H   H2146     1.0  0.90455  0.87429  0.57122  1.0000
  C   C2140     1.0  0.85238  0.83864  0.63176  1.0000
  C   C2141     1.0  0.84242  0.82310  0.64417  1.0000
  C   C2142     1.0  0.83515  0.80186  0.64300  1.0000
  C   C2143     1.0  0.83769  0.79606  0.62941  1.0000
  C   C2144     1.0  0.84716  0.81193  0.61693  1.0000
  C   C2145     1.0  0.85449  0.83326  0.61809  1.0000
  H   H2147     1.0  0.84031  0.82748  0.65475  1.0000
  H   H2148     1.0  0.82757  0.79003  0.65264  1.0000
  H   H2149     1.0  0.84913  0.80754  0.60637  1.0000
  H   H2150     1.0  0.86219  0.84519  0.60847  1.0000
  C   C2146     1.0  0.70492  0.67614  0.49972  1.0000
  H   H2151     1.0  0.60342  0.75026  0.72542  1.0000
  S   S723      1.0  0.80746  0.96011  0.58853  1.0000
  H   H2152     1.0  0.98628  0.96497  0.58482  1.0000
  H   H2153     1.0  0.73970  0.67943  0.63055  1.0000
  C   C2147     1.0  0.86647  0.72825  0.69951  1.0000
  C   C2148     1.0  0.85434  0.75290  0.69701  1.0000
  H   H2154     1.0  0.83998  0.75850  0.69059  1.0000
  H   H2155     1.0  0.73252  0.65630  0.52872  1.0000
  H   H2156     1.0  0.89306  0.95824  0.67778  1.0000
  H   H2157     1.0  0.67030  0.66816  0.49809  1.0000
  H   H2158     1.0  0.87954  0.96177  0.52545  1.0000
  H   H2159     1.0  0.78638  0.92529  0.65141  1.0000
  N   N178      1.0  0.82498  0.67196  0.61188  1.0000
  C   C2149     1.0  0.96667  0.86391  0.71339  1.0000
  C   C2150     1.0  0.92022  0.96534  0.62740  1.0000
  H   H2160     1.0  0.53280  0.74638  0.71417  1.0000
  C   C2151     1.0  0.86596  0.90511  0.53682  1.0000
  S   S724      1.0  0.49754  0.95775  0.68772  1.0000
  H   H2161     1.0  0.77678  0.71847  0.60508  1.0000
  C   C2152     1.0  0.91171  0.74391  0.67349  1.0000
  C   C2153     1.0  0.97033  0.97817  0.58880  1.0000
  H   H2162     1.0  0.89305  0.93642  0.65826  1.0000
  S   S725      1.0  0.87631  0.95713  0.58894  1.0000
  C   C2154     1.0  0.82964  0.70880  0.61823  1.0000
  H   H2163     1.0  0.87908  0.90908  0.50030  1.0000
  N   N179      1.0  0.77416  0.93735  0.63120  1.0000
  H   H2164     1.0  0.88568  0.94998  0.50149  1.0000
  H   H2165     1.0  0.93957  0.94400  0.58619  1.0000
  C   C2155     1.0  0.96202  0.88961  0.71208  1.0000
  S   S726      1.0  0.81538  0.65360  0.65143  1.0000
  S   S727      1.0  0.92392  0.91929  0.56512  1.0000
  C   C2156     1.0  0.93252  0.88840  0.53010  1.0000
  C   C2157     1.0  0.86556  0.93516  0.55148  1.0000
  C   C2158     1.0  0.92514  0.75182  0.68139  1.0000
  C   C2159     1.0  0.94420  0.96081  0.57843  1.0000
  C   C2160     1.0  0.92188  0.77693  0.68136  1.0000
  H   H2166     1.0  0.87984  0.79852  0.65931  1.0000
  H   H2167     1.0  0.81005  0.88488  0.64574  1.0000
  H   H2168     1.0  0.97149  0.83162  0.51381  1.0000
  H   H2169     1.0  0.93690  0.73849  0.68814  1.0000
  C   C2161     1.0  0.99034  0.83092  0.51482  1.0000
  H   H2170     1.0  0.93111  0.78319  0.68810  1.0000
  H   H2171     1.0  0.87976  0.76406  0.64711  1.0000
  H   H2172     1.0  0.75905  0.71156  0.70616  1.0000
  H   H2173     1.0  0.97946  0.88293  0.66425  1.0000
  C   C2162     1.0  0.90979  0.94623  0.67347  1.0000
  H   H2174     1.0  0.93137  0.90931  0.64853  1.0000
  S   S728      1.0  0.93992  0.89341  0.48741  1.0000
  S   S729      1.0  0.97487  0.93485  0.70425  1.0000
  H   H2175     1.0  0.93549  0.93702  0.61465  1.0000
  H   H2176     1.0  0.85494  0.67411  0.62114  1.0000
  C   C2163     1.0  0.75506  0.66465  0.63294  1.0000
  C   C2164     1.0  0.86118  0.77048  0.70259  1.0000
  H   H2177     1.0  0.67080  0.70415  0.71637  1.0000
  C   C2165     1.0  0.88011  0.93734  0.51142  1.0000
  C   C2166     1.0  0.76040  0.96118  0.63476  1.0000
  C   C2167     1.0  0.90974  0.93387  0.66260  1.0000
  H   H2178     1.0  0.97839  0.93240  0.61835  1.0000
  H   H2179     1.0  0.84001  0.71825  0.62255  1.0000
  C   C2168     1.0  0.88495  0.72123  0.70799  1.0000
  C   C2169     1.0  0.80061  0.89213  0.62464  1.0000
  C   C2170     1.0  0.90559  0.79383  0.67330  1.0000
  C   C2171     1.0  0.78652  0.92076  0.64110  1.0000
  C   C2172     1.0  0.67873  0.65871  0.69380  1.0000
  C   C2173     1.0  0.98039  0.90307  0.70448  1.0000
  C   C2174     1.0  0.92537  0.97972  0.63586  1.0000
  H   H2180     1.0  0.80074  0.74062  0.61469  1.0000
  C   C2175     1.0  0.87665  0.94382  0.52496  1.0000
  H   H2181     1.0  0.75790  0.66993  0.49468  1.0000
  C   C2176     1.0  0.77446  0.93166  0.61817  1.0000
  S   S730      1.0  0.90515  0.90803  0.60844  1.0000
  C   C2177     1.0  0.88009  0.76359  0.71075  1.0000
  Fe  Fe366     1.0  0.89603  0.91890  0.58608  1.0000
  H   H2182     1.0  0.86193  0.75243  0.66449  1.0000
  C   C2178     1.0  0.73983  0.70979  0.70834  1.0000
  C   C2179     1.0  0.93343  0.90399  0.53921  1.0000
  N   N180      1.0  0.95295  0.91623  0.66202  1.0000
  C   C2180     1.0  0.93157  0.91867  0.65705  1.0000
  C   C2181     1.0  0.95307  0.92807  0.67276  1.0000
  C   C2182     1.0  0.93154  0.94318  0.67868  1.0000
  S   S731      1.0  0.89574  0.86287  0.48916  1.0000
  Fe  Fe367     1.0  0.84246  0.94045  0.59661  1.0000
  C   C2183     1.0  0.74158  0.67443  0.67855  1.0000
  H   H2183     1.0  0.89435  0.70216  0.71000  1.0000
  H   H2184     1.0  0.86718  0.87974  0.52303  1.0000
  H   H2185     1.0  0.81132  0.87467  0.62199  1.0000
  C   C2184     1.0  0.80335  0.68418  0.60737  1.0000
  C   C2185     1.0  0.98969  0.85155  0.70708  1.0000
  C   C2186     1.0  0.79420  0.70900  0.60836  1.0000
  H   H2186     1.0  0.75299  0.97371  0.62539  1.0000
  H   H2187     1.0  0.93189  0.95254  0.68720  1.0000
  H   H2188     1.0  0.79273  0.67461  0.60329  1.0000
  H   H2189     1.0  0.95260  0.85371  0.71953  1.0000
  H   H2190     1.0  0.99176  0.90984  0.65391  1.0000
  H   H2191     1.0  0.97475  0.89571  0.64587  1.0000
  H   H2192     1.0  0.75381  0.67945  0.68438  1.0000
  H   H2193     1.0  0.94034  0.89238  0.51867  1.0000
  H   H2194     1.0  0.91317  0.72426  0.67429  1.0000
  C   C2187     1.0  0.89275  0.78532  0.66535  1.0000
  C   C2188     1.0  0.67960  0.65282  0.51922  1.0000
  C   C2189     1.0  0.80755  0.72138  0.61376  1.0000
  H   H2195     1.0  0.90233  0.81331  0.67360  1.0000
  H   H2196     1.0  0.84645  0.94600  0.55398  1.0000
  N   N181      1.0  0.86982  0.92769  0.53744  1.0000
  C   C2190     1.0  0.86939  0.89800  0.52347  1.0000
  H   H2197     1.0  0.68829  0.72891  0.69325  1.0000
  N   N182      1.0  0.72067  0.66517  0.68874  1.0000
  N   N183      1.0  0.89593  0.76064  0.66550  1.0000
  H   H2198     1.0  0.97918  0.84602  0.53431  1.0000
  H   H2199     1.0  0.96125  0.95526  0.57052  1.0000
  C   C2191     1.0  0.68995  0.70564  0.71423  1.0000
  C   C2192     1.0  0.72972  0.69611  0.72158  1.0000
  H   H2200     1.0  0.76967  0.68539  0.64387  1.0000
  S   S732      1.0  0.89006  0.97025  0.62416  1.0000
  Fe  Fe368     1.0  0.86869  0.89527  0.61497  1.0000
  C   C2193     1.0  0.78789  0.90911  0.61463  1.0000
  H   H2201     1.0  0.94432  0.89900  0.71723  1.0000
  H   H2202     1.0  0.74452  0.95845  0.64384  1.0000
  H   H2203     1.0  0.87919  0.94637  0.55154  1.0000
  C   C2194     1.0  0.79985  0.89789  0.63800  1.0000
  H   H2204     1.0  0.57026  0.68038  0.48265  1.0000
  H   H2205     1.0  0.75269  0.66015  0.67225  1.0000
  H   H2206     1.0  0.74134  0.70097  0.49523  1.0000
  C   C2195     1.0  0.70473  0.69413  0.72457  1.0000
  C   C2196     1.0  0.65341  0.76706  0.72085  1.0000
  H   H2207     1.0  0.90626  0.73333  0.71994  1.0000
  H   H2208     1.0  0.65053  0.77847  0.71047  1.0000
  C   C2197     1.0  0.83808  0.68393  0.61727  1.0000
  H   H2209     1.0  0.92904  0.96863  0.57216  1.0000
  C   C2198     1.0  0.89173  0.73882  0.71363  1.0000
  H   H2210     1.0  0.77279  0.97080  0.63784  1.0000
  C   C2199     1.0  0.68355  0.66598  0.50502  1.0000
  S   S733      1.0  0.88985  0.78680  0.71610  1.0000
  H   H2211     1.0  0.70771  0.68666  0.48877  1.0000
  S   S734      1.0  0.96115  0.76446  0.71978  1.0000
  C   C2200     1.0  0.94957  0.97696  0.63808  1.0000
  H   H2212     1.0  0.69658  0.67736  0.67342  1.0000
  H   H2213     1.0  0.66116  0.66106  0.69043  1.0000
  C   C2201     1.0  0.71862  0.65963  0.52205  1.0000
  C   C2202     1.0  0.72351  0.65298  0.70242  1.0000
  S   S735      1.0  0.92913  0.81422  0.73196  1.0000
  Fe  Fe369     1.0  0.92175  0.88297  0.85549  1.0000
  S   S736      1.0  0.95764  0.85534  0.85514  1.0000
  S   S737      1.0  0.92481  0.92343  0.84897  1.0000
  Fe  Fe370     1.0  0.89101  0.84222  0.86390  1.0000
  S   S738      1.0  0.92451  0.81199  0.86431  1.0000
  S   S739      1.0  0.85208  0.83450  0.86916  1.0000
  Fe  Fe371     1.0  0.93786  0.83497  0.87568  1.0000
  S   S740      1.0  0.95007  0.82002  0.89717  1.0000
  Fe  Fe372     1.0  0.94075  0.83519  0.84365  1.0000
  S   S741      1.0  0.96302  0.81629  0.82515  1.0000
  S   S742      1.0  0.90298  0.86389  0.87682  1.0000
  S   S743      1.0  0.90627  0.86423  0.84244  1.0000
  C   C2203     1.0  0.98130  0.89541  0.87061  1.0000
  Fe  Fe373     1.0  0.79699  0.72170  0.90960  1.0000
  S   S744      1.0  0.79188  0.72963  0.93181  1.0000
  S   S745      1.0  0.83393  0.72524  0.89491  1.0000
  Fe  Fe374     1.0  0.74492  0.71035  0.91496  1.0000
  S   S746      1.0  0.73562  0.71812  0.93759  1.0000
  S   S747      1.0  0.71474  0.70513  0.90470  1.0000
  Fe  Fe375     1.0  0.75433  0.75054  0.92805  1.0000
  Fe  Fe376     1.0  0.77415  0.69646  0.93928  1.0000
  H   H2214     1.0  0.52531  0.71003  0.76906  1.0000
  S   S748      1.0  0.76060  0.74475  0.90526  1.0000
  S   S749      1.0  0.78223  0.68634  0.91728  1.0000
  C   C2204     1.0  0.89961  0.93948  0.87437  1.0000
  H   H2215     1.0  0.50951  0.94822  0.84715  1.0000
  C   C2205     1.0  0.53363  0.81219  0.96590  1.0000
  C   C2206     1.0  0.93414  0.76213  0.82346  1.0000
  H   H2216     1.0  0.62674  0.66614  0.89997  1.0000
  Fe  Fe377     1.0  0.93371  0.79382  0.75430  1.0000
  S   S750      1.0  0.97450  0.78004  0.74768  1.0000
  S   S751      1.0  0.91488  0.81481  0.77249  1.0000
  H   H2217     1.0  0.59520  0.77243  0.73717  1.0000
  S   S752      1.0  0.54781  0.76107  0.97077  1.0000
  Fe  Fe378     1.0  0.96320  0.74778  0.74309  1.0000
  H   H2218     1.0  0.69272  0.77194  0.92770  1.0000
  C   C2207     1.0  0.61144  0.66296  0.93602  1.0000
  S   S753      1.0  0.92237  0.76015  0.75147  1.0000
  H   H2219     1.0  0.89298  0.92227  0.87764  1.0000
  C   C2208     1.0  0.50545  0.75801  0.88284  1.0000
  C   C2209     1.0  0.63784  0.74414  0.74372  1.0000
  H   H2220     1.0  0.51624  0.93892  0.88917  1.0000
  H   H2221     1.0  0.67117  0.65274  0.89049  1.0000
  C   C2210     1.0  0.54934  0.74552  0.74598  1.0000
  H   H2222     1.0  0.49724  0.79052  0.74651  1.0000
  H   H2223     1.0  0.94854  0.94622  0.88382  1.0000
  C   C2211     1.0  0.91571  0.94425  0.86109  1.0000
  N   N184      1.0  0.55619  0.66799  0.79304  1.0000
  H   H2224     1.0  0.92253  0.78123  0.84130  1.0000
  C   C2212     1.0  0.69245  0.82159  0.96263  1.0000
  C   C2213     1.0  0.65318  0.82113  0.93991  1.0000
  S   S754      1.0  0.63083  0.87043  0.97094  1.0000
  H   H2225     1.0  0.69357  0.68962  0.84649  1.0000
  Fe  Fe379     1.0  0.59787  0.69642  0.75108  1.0000
  Fe  Fe380     1.0  0.61626  0.65596  0.73334  1.0000
  C   C2214     1.0  0.68985  0.67547  0.89749  1.0000
  H   H2226     1.0  0.88690  0.81294  0.84381  1.0000
  H   H2227     1.0  0.87088  0.79484  0.81326  1.0000
  H   H2228     1.0  0.51785  0.81004  0.96212  1.0000
  C   C2215     1.0  0.97784  0.68266  0.94243  1.0000
  C   C2216     1.0  0.83187  0.66156  0.94846  1.0000
  C   C2217     1.0  0.93724  0.66041  0.95489  1.0000
  C   C2218     1.0  0.90497  0.76992  0.80753  1.0000
  C   C2219     1.0  0.67104  0.80779  0.93052  1.0000
  C   C2220     1.0  0.55008  0.73888  0.73283  1.0000
  H   H2229     1.0  0.97818  0.93444  0.86223  1.0000
  H   H2230     1.0  0.71743  0.69756  0.86304  1.0000
  H   H2231     1.0  0.59225  0.66762  0.79591  1.0000
  N   N185      1.0  0.89490  0.78952  0.82822  1.0000
  Fe  Fe381     1.0  0.92122  0.77943  0.72842  1.0000
  H   H2232     1.0  0.90032  0.76767  0.79771  1.0000
  C   C2221     1.0  0.88850  0.78546  0.81631  1.0000
  H   H2233     1.0  0.97356  0.79370  0.92096  1.0000
  H   H2234     1.0  0.50506  0.72284  0.90680  1.0000
  C   C2222     1.0  0.98760  0.79377  0.91118  1.0000
  C   C2223     1.0  0.53024  0.76416  0.75086  1.0000
  N   N186      1.0  0.95929  0.86883  0.75072  1.0000
  C   C2224     1.0  0.60373  0.69523  0.91042  1.0000
  C   C2225     1.0  0.66170  0.73657  0.74689  1.0000
  C   C2226     1.0  0.95556  0.92681  0.88351  1.0000
  C   C2227     1.0  0.91598  0.98457  0.86581  1.0000
  H   H2235     1.0  0.92542  0.93611  0.90706  1.0000
  H   H2236     1.0  0.82714  0.67301  0.93848  1.0000
  C   C2228     1.0  0.64306  0.80881  0.95354  1.0000
  H   H2237     1.0  0.58684  0.69131  0.94688  1.0000
  C   C2229     1.0  0.60878  0.76634  0.72772  1.0000
  C   C2230     1.0  0.64027  0.77113  0.97208  1.0000
  H   H2238     1.0  0.66492  0.72379  0.75685  1.0000
  Fe  Fe382     1.0  0.51599  0.70088  0.95564  1.0000
  H   H2239     1.0  0.93230  0.86787  0.77009  1.0000
  H   H2240     1.0  0.72882  0.75587  0.95793  1.0000
  C   C2231     1.0  0.92409  0.96671  0.85696  1.0000
  C   C2232     1.0  0.81329  0.65793  0.96071  1.0000
  H   H2241     1.0  0.52100  0.90401  0.87664  1.0000
  H   H2242     1.0  0.92480  0.89367  0.75581  1.0000
  C   C2233     1.0  0.52525  0.67101  0.77392  1.0000
  C   C2234     1.0  0.84730  0.80388  0.87566  1.0000
  C   C2235     1.0  0.82310  0.79972  0.88131  1.0000
  C   C2236     1.0  0.81883  0.77572  0.88738  1.0000
  C   C2237     1.0  0.83867  0.75560  0.88746  1.0000
  C   C2238     1.0  0.86279  0.75969  0.88149  1.0000
  C   C2239     1.0  0.86712  0.78375  0.87577  1.0000
  H   H2243     1.0  0.80759  0.81510  0.88121  1.0000
  H   H2244     1.0  0.80015  0.77281  0.89189  1.0000
  H   H2245     1.0  0.87822  0.74421  0.88149  1.0000
  H   H2246     1.0  0.88580  0.78655  0.87142  1.0000
  C   C2240     1.0  0.95047  0.81799  0.80979  1.0000
  C   C2241     1.0  0.96401  0.80437  0.79910  1.0000
  C   C2242     1.0  0.95361  0.80363  0.78738  1.0000
  C   C2243     1.0  0.92961  0.81659  0.78628  1.0000
  C   C2244     1.0  0.91641  0.83086  0.79668  1.0000
  C   C2245     1.0  0.92676  0.83152  0.80841  1.0000
  H   H2247     1.0  0.60040  0.70740  0.90031  1.0000
  H   H2248     1.0  0.96393  0.79252  0.77945  1.0000
  H   H2249     1.0  0.89787  0.84104  0.79584  1.0000
  H   H2250     1.0  0.91622  0.84215  0.81650  1.0000
  H   H2251     1.0  0.62774  0.75952  0.97107  1.0000
  H   H2252     1.0  0.55312  0.70690  0.78591  1.0000
  H   H2253     1.0  0.51365  0.67216  0.76621  1.0000
  H   H2254     1.0  0.64764  0.84097  0.93684  1.0000
  C   C2246     1.0  0.50549  0.90730  0.88546  1.0000
  H   H2255     1.0  0.74395  0.66249  0.87628  1.0000
  H   H2256     1.0  0.95541  0.71527  0.94978  1.0000
  C   C2247     1.0  0.87740  0.80609  0.83715  1.0000
  H   H2257     1.0  0.58032  0.72031  0.92391  1.0000
  C   C2248     1.0  0.97896  0.65786  0.94229  1.0000
  Fe  Fe383     1.0  0.51779  0.74921  0.96353  1.0000
  C   C2249     1.0  0.97103  0.84494  0.75035  1.0000
  H   H2258     1.0  0.74125  0.68725  0.72955  1.0000
  C   C2250     1.0  0.70930  0.81804  0.94973  1.0000
  H   H2259     1.0  0.87887  0.95369  0.89346  1.0000
  H   H2260     1.0  0.86369  0.96842  0.84976  1.0000
  N   N187      1.0  0.94742  0.90902  0.89467  1.0000
  S   S755      1.0  0.53855  0.66325  0.95316  1.0000
  C   C2251     1.0  0.95611  0.69628  0.94918  1.0000
  H   H2261     1.0  0.95225  0.75380  0.82613  1.0000
  C   C2252     1.0  0.71877  0.77420  0.95920  1.0000
  H   H2262     1.0  0.67415  0.75099  0.95186  1.0000
  S   S756      1.0  0.58217  0.65367  0.88798  1.0000
  C   C2253     1.0  0.59619  0.68618  0.93654  1.0000
  S   S757      1.0  0.62595  0.67998  0.76535  1.0000
  H   H2263     1.0  0.91080  0.91142  0.90678  1.0000
  H   H2264     1.0  0.52956  0.76934  0.76104  1.0000
  C   C2254     1.0  0.70535  0.67448  0.85230  1.0000
  H   H2265     1.0  0.52983  0.69562  0.92624  1.0000
  C   C2255     1.0  0.49724  0.71885  0.89860  1.0000
  Fe  Fe384     1.0  0.65277  0.67328  0.74492  1.0000
  N   N188      1.0  0.49594  0.73512  0.88576  1.0000
  C   C2256     1.0  0.54222  0.67883  0.92381  1.0000
  N   N189      1.0  0.82270  0.82516  0.90927  1.0000
  C   C2257     1.0  0.80372  0.81397  0.91747  1.0000
  C   C2258     1.0  0.84651  0.81202  0.90724  1.0000
  C   C2259     1.0  0.80840  0.78910  0.92404  1.0000
  C   C2260     1.0  0.85175  0.78696  0.91342  1.0000
  C   C2261     1.0  0.83251  0.77545  0.92185  1.0000
  C   C2262     1.0  0.81711  0.85093  0.90190  1.0000
  H   H2266     1.0  0.78471  0.82410  0.91885  1.0000
  H   H2267     1.0  0.86147  0.82062  0.90033  1.0000
  H   H2268     1.0  0.79323  0.78045  0.93055  1.0000
  H   H2269     1.0  0.87047  0.77640  0.91133  1.0000
  H   H2270     1.0  0.83621  0.75589  0.92644  1.0000
  H   H2271     1.0  0.83407  0.85910  0.89808  1.0000
  H   H2272     1.0  0.80921  0.85192  0.89224  1.0000
  H   H2273     1.0  0.80366  0.86229  0.90929  1.0000
  C   C2263     1.0  0.66786  0.77065  0.94848  1.0000
  H   H2274     1.0  0.67973  0.81716  0.92012  1.0000
  C   C2264     1.0  0.68159  0.74474  0.73685  1.0000
  C   C2265     1.0  0.61872  0.67181  0.91030  1.0000
  C   C2266     1.0  0.89956  0.98002  0.87897  1.0000
  H   H2275     1.0  0.93664  0.97051  0.84673  1.0000
  C   C2267     1.0  0.99088  0.66264  0.97603  1.0000
  H   H2276     1.0  0.74006  0.65447  0.91372  1.0000
  H   H2277     1.0  0.94938  0.87036  0.90284  1.0000
  H   H2278     1.0  0.96238  0.90680  0.74449  1.0000
  C   C2268     1.0  0.93340  0.87382  0.75820  1.0000
  H   H2279     1.0  0.68229  0.83988  0.96387  1.0000
  C   C2269     1.0  0.59242  0.70241  0.92364  1.0000
  N   N190      1.0  0.62244  0.65604  0.92301  1.0000
  H   H2280     1.0  0.86304  0.79631  0.84454  1.0000
  H   H2281     1.0  0.62960  0.81942  0.96089  1.0000
  N   N191      1.0  0.65066  0.78392  0.95772  1.0000
  C   C2270     1.0  0.55200  0.67640  0.90937  1.0000
  H   H2282     1.0  0.96119  0.82998  0.75544  1.0000
  C   C2271     1.0  0.53177  0.69226  0.77551  1.0000
  C   C2272     1.0  0.93561  0.68514  0.95544  1.0000
  C   C2273     1.0  0.57347  0.66647  0.80253  1.0000
  S   S758      1.0  0.57220  0.73127  0.75650  1.0000
  C   C2274     1.0  0.54751  0.69037  0.78510  1.0000
  H   H2283     1.0  0.67340  0.97195  0.97346  1.0000
  S   S759      1.0  0.52735  0.73569  0.94245  1.0000
  H   H2284     1.0  0.67798  0.69252  0.89358  1.0000
  C   C2275     1.0  0.91723  0.77781  0.83198  1.0000
  C   C2276     1.0  0.87316  0.98334  0.84386  1.0000
  H   H2285     1.0  0.54737  0.69143  0.90065  1.0000
  H   H2286     1.0  0.71193  0.83364  0.94103  1.0000
  C   C2277     1.0  0.97324  0.87742  0.88215  1.0000
  C   C2278     1.0  0.54905  0.65977  0.93506  1.0000
  S   S760      1.0  0.69224  0.67800  0.74150  1.0000
  H   H2287     1.0  0.86822  0.82266  0.83027  1.0000
  C   C2279     1.0  0.98105  0.80517  0.89773  1.0000
  C   C2280     1.0  0.55723  0.83882  0.97121  1.0000
  S   S761      1.0  0.65041  0.93076  0.97634  1.0000
  C   C2281     1.0  0.72209  0.79429  0.94790  1.0000
  C   C2282     1.0  0.67832  0.78236  0.93477  1.0000
  C   C2283     1.0  0.56856  0.65493  0.90614  1.0000
  C   C2284     1.0  0.92796  0.75827  0.81113  1.0000
  H   H2288     1.0  0.98239  0.79387  0.80011  1.0000
  S   S762      1.0  0.74083  0.79001  0.93107  1.0000
  H   H2289     1.0  0.56728  0.68162  0.80878  1.0000
  C   C2285     1.0  0.92868  0.91599  0.90710  1.0000
  C   C2286     1.0  0.70951  0.67618  0.90385  1.0000
  H   H2290     1.0  0.52254  0.75710  0.87437  1.0000
  S   S763      1.0  0.56010  0.86846  0.97255  1.0000
  S   S764      1.0  0.98283  0.70915  0.75117  1.0000
  C   C2287     1.0  0.89162  0.95731  0.88329  1.0000
  H   H2291     1.0  0.62251  0.73753  0.75153  1.0000
  C   C2288     1.0  0.95598  0.88457  0.89410  1.0000
  H   H2292     1.0  0.94121  0.74681  0.80415  1.0000
  H   H2293     1.0  0.98397  0.65631  0.74288  1.0000
  H   H2294     1.0  0.70030  0.73833  0.73900  1.0000
  C   C2289     1.0  0.53684  0.83589  0.96626  1.0000
  S   S765      1.0  0.50898  0.71308  0.97683  1.0000
  C   C2290     1.0  0.55082  0.79136  0.97053  1.0000
  S   S766      1.0  0.78182  0.66922  0.95962  1.0000
  C   C2291     1.0  0.97167  0.88780  0.74437  1.0000
  C   C2292     1.0  0.89080  0.97983  0.83130  1.0000
  H   H2295     1.0  0.50961  0.76166  0.89273  1.0000
  C   C2293     1.0  0.70216  0.77780  0.97216  1.0000
  H   H2296     1.0  0.52341  0.85196  0.96278  1.0000
  H   H2297     1.0  0.50236  0.98300  0.86011  1.0000
  H   H2298     1.0  0.91866  0.69547  0.96083  1.0000
  H   H2299     1.0  0.92221  0.86338  0.75471  1.0000
  C   C2294     1.0  0.72488  0.65409  0.90880  1.0000
  C   C2295     1.0  0.51290  0.77000  0.72932  1.0000
  C   C2296     1.0  0.68860  0.80141  0.97378  1.0000
  C   C2297     1.0  0.71882  0.67894  0.86148  1.0000
  H   H2300     1.0  0.93472  0.90596  0.91740  1.0000
  C   C2298     1.0  0.97245  0.92028  0.87127  1.0000
  H   H2301     1.0  0.89501  0.96235  0.82767  1.0000
  C   C2299     1.0  0.50279  0.92690  0.89245  1.0000
  H   H2302     1.0  0.92129  0.65177  0.95986  1.0000
  C   C2300     1.0  0.51192  0.77619  0.74263  1.0000
  C   C2301     1.0  0.73381  0.65924  0.86889  1.0000
  C   C2302     1.0  0.68587  0.65293  0.89579  1.0000
  C   C2303     1.0  0.57114  0.79438  0.97546  1.0000
  N   N192      1.0  0.63392  0.75933  0.73088  1.0000
  H   H2303     1.0  0.56470  0.72442  0.72902  1.0000
  S   S767      1.0  0.58589  0.66083  0.75276  1.0000
  S   S768      1.0  0.62560  0.69326  0.73056  1.0000
  H   H2304     1.0  0.97997  0.85802  0.88177  1.0000
  C   C2304     1.0  0.57442  0.81796  0.97573  1.0000
