data_image0
_chemical_formula_structural       HSHFeCFeHS2H2SCS2FeSHFeC6H4C6H5SFeHSH2FeCH3CH3CHC2NFeNCHCNSC6HSCHCHCSHCHSHC2HC3HFeSFeS2FeSFeCS2CFeS2FeSCSH2SFeS2FeS2C6H4CH3C6H4C5SH2CHC6H4C4H3C2H2CH3C2H3C3HNH3CHCNC2NHC2NCHSC4H7CH4C2H2CH7CH2CHNCHCFeS2FeCHCHCSHFeS2FeS3FeSCSHSHC7H2CH4C6H4NH2C3FeNH3CH2C2HCSCH2CHCHCHCNC2HCH3CHCHSH2NC5FeHC2H2CSFeHNHC3H2CHC2HFeSH7CHC3S2HCH2CHFeSCFeS2FeSCFe2SHSHSCSFeS2FeSHC4HCH2N3H6C6H4SCHC7H4CSCH2CHSHCSH2CHCH3C4H4CS2CNH2SHCFeC2SC4H2C2H4CH2NC3FeH2C4HCFeC2HFeS2FeS2HFeS2FeS2Fe2S3H2FeS2HCHCHC2HCHC7H4NHC2H2C7HCH2C2HC4H3C6H4C2NCH4CHC2HSHSNC5H4CHCH3CHCHCHC2HCHC2SHCH3CN2HC2HCSH5C2HFeCHSH3NHS2CSCS3FeHSCHCHS2HCFeHCHFeSC6H4C6H4FeHC3HCH2CH2NCHNHSHCH2C3SHFeC3H3FeCHCHCSFeSC2HCFeS2FeSFeSHC6H8C6H4NHNSHCHCHCH2CHCH2C2H2SH2CSFeS2FeSFe2SCS4Fe2S2FeHFeSFeHS3CHCSHC6H4C6H4CHC3HC6H4CHC2SHSHC2H2C2NC3H3CFeNFeH3CSH3C3HSHC2HC2SH4CNC4H6C2NHCH5C2HCSCSCHSH5S2FeS2Fe2SFe2S2FeSFeS4HC7FeH2C5HFeC6H4C3HC2H2C2HC3H4CH5C2HCHCHCNH2NHCH3C2NCHCHC2HC2HCHSCHC3H2C2HC2SHS3H2SHNCSFeSHSHFeS2FeS2FeSFeS3C2SCH2SC4HCHNH2NC2HFeH2C6H4SHC4HFeH2C4HC7H3CHCNC4NC3H2CHC2H2C2H2CH2SC2HC3HCH4CH2CNH6CHCNH2SH2CH2Fe2HCH3CHCH3NCSCSH2FeS2H2FeSFeS4FeS2CFe2HFeS3H2CH3C6H6C7H4C5HCHC8H3FeHCHSCHC2SCH2SCH2CHNHCSCHC2HNCH3C2H4NC6H4CH2CHS2FeH2CH2FeH2FeSCHFeS2FeS2HSH2CHSC6H2NC7HC2HCH4CH6CHSH2CHC2FeHNH2SFeCH4SH2C2HC2
_chemical_formula_sum              "H576 S192 Fe96 C576 N48"
_cell_length_a       31.4242
_cell_length_b       57.6432
_cell_length_c       55.7248
_cell_angle_alpha    90.1571
_cell_angle_beta     89.8668
_cell_angle_gamma    89.7969

_space_group_name_H-M_alt    "P 1"
_space_group_IT_number       1

loop_
  _space_group_symop_operation_xyz
  'x, y, z'

loop_
  _atom_site_type_symbol
  _atom_site_label
  _atom_site_symmetry_multiplicity
  _atom_site_fract_x
  _atom_site_fract_y
  _atom_site_fract_z
  _atom_site_occupancy
  H   H1        1.0  0.47127  0.31179  0.44662  1.0000
  S   S1        1.0  0.13485  0.33748  0.48464  1.0000
  H   H2        1.0  0.44787  0.26571  0.40489  1.0000
  Fe  Fe1       1.0  0.45170  0.31283  0.15275  1.0000
  C   C1        1.0  0.22440  0.04504  0.12241  1.0000
  Fe  Fe2       1.0  0.39272  0.29581  0.11234  1.0000
  H   H3        1.0  0.39720  0.05062  0.05389  1.0000
  S   S2        1.0  0.34614  0.26723  0.10145  1.0000
  S   S3        1.0  0.33705  0.11702  0.01972  1.0000
  H   H4        1.0  0.43064  0.33587  0.20970  1.0000
  H   H5        1.0  0.06833  0.32766  0.44411  1.0000
  S   S4        1.0  0.38070  0.31302  0.14827  1.0000
  C   C2        1.0  0.46741  0.24617  0.15765  1.0000
  S   S5        1.0  0.24971  0.14851  0.02318  1.0000
  S   S6        1.0  0.36872  0.18073  0.02998  1.0000
  Fe  Fe3       1.0  0.26753  0.11029  0.02385  1.0000
  S   S7        1.0  0.24491  0.08021  0.04706  1.0000
  H   H6        1.0  0.49522  0.25357  0.16629  1.0000
  Fe  Fe4       1.0  0.49114  0.32466  0.33288  1.0000
  C   C3        1.0  0.33070  0.03959  0.09886  1.0000
  C   C4        1.0  0.29893  0.02824  0.08582  1.0000
  C   C5        1.0  0.27341  0.04079  0.06959  1.0000
  C   C6        1.0  0.28022  0.06458  0.06576  1.0000
  C   C7        1.0  0.31322  0.07566  0.07800  1.0000
  C   C8        1.0  0.33796  0.06328  0.09469  1.0000
  H   H7        1.0  0.43485  0.13629  0.00635  1.0000
  H   H8        1.0  0.24793  0.03209  0.06018  1.0000
  H   H9        1.0  0.31857  0.09402  0.07532  1.0000
  H   H10       1.0  0.36252  0.07219  0.10467  1.0000
  C   C9        1.0  0.35281  0.24393  0.08066  1.0000
  C   C10       1.0  0.31812  0.22920  0.07601  1.0000
  C   C11       1.0  0.32222  0.20997  0.06041  1.0000
  C   C12       1.0  0.36130  0.20508  0.04939  1.0000
  C   C13       1.0  0.39609  0.21973  0.05417  1.0000
  C   C14       1.0  0.39190  0.23908  0.06963  1.0000
  H   H11       1.0  0.28775  0.23271  0.08448  1.0000
  H   H12       1.0  0.29519  0.19888  0.05698  1.0000
  H   H13       1.0  0.42646  0.21615  0.04574  1.0000
  H   H14       1.0  0.41892  0.25018  0.07304  1.0000
  H   H15       1.0  0.22004  0.06165  0.11357  1.0000
  S   S8        1.0  0.36107  0.02517  0.12104  1.0000
  Fe  Fe5       1.0  0.46805  0.33166  0.38689  1.0000
  H   H16       1.0  0.43856  0.21254  0.11020  1.0000
  S   S9        1.0  0.45999  0.30208  0.36095  1.0000
  H   H17       1.0  0.29306  0.01002  0.08882  1.0000
  H   H18       1.0  0.50327  0.22812  0.13036  1.0000
  Fe  Fe6       1.0  0.31956  0.15476  0.01582  1.0000
  C   C15       1.0  0.20092  0.02567  0.11512  1.0000
  H   H19       1.0  0.36745  0.22225  0.12626  1.0000
  H   H20       1.0  0.43133  0.29336  0.41599  1.0000
  H   H21       1.0  0.34527  0.06306  0.02622  1.0000
  C   C16       1.0  0.38906  0.03269  0.05026  1.0000
  H   H22       1.0  0.28688  0.01857  0.16387  1.0000
  H   H23       1.0  0.41385  0.26757  0.43124  1.0000
  H   H24       1.0  0.32566  0.23513  0.16077  1.0000
  C   C17       1.0  0.50158  0.25618  0.44040  1.0000
  H   H25       1.0  0.49252  0.24034  0.43122  1.0000
  C   C18       1.0  0.48990  0.29608  0.44875  1.0000
  C   C19       1.0  0.44471  0.33448  0.24774  1.0000
  N   N1        1.0  0.36034  0.02726  0.03270  1.0000
  Fe  Fe7       1.0  0.46760  0.32807  0.10046  1.0000
  N   N2        1.0  0.39136  0.24267  0.15521  1.0000
  C   C20       1.0  0.34883  0.24938  0.16366  1.0000
  H   H26       1.0  0.33769  0.26482  0.15351  1.0000
  C   C21       1.0  0.44097  0.27563  0.42163  1.0000
  N   N3        1.0  0.47859  0.27610  0.43713  1.0000
  S   S10       1.0  0.46332  0.29295  0.11808  1.0000
  C   C22       1.0  0.34152  0.04564  0.01789  1.0000
  C   C23       1.0  0.39547  0.22867  0.13547  1.0000
  C   C24       1.0  0.44919  0.32749  0.22353  1.0000
  C   C25       1.0  0.46852  0.32387  0.26613  1.0000
  C   C26       1.0  0.47769  0.30974  0.21732  1.0000
  C   C27       1.0  0.42665  0.25157  0.16619  1.0000
  H   H27       1.0  0.34895  0.25363  0.18312  1.0000
  S   S11       1.0  0.48447  0.30003  0.18705  1.0000
  C   C28       1.0  0.43570  0.22315  0.12626  1.0000
  H   H28       1.0  0.17802  0.02767  0.10074  1.0000
  C   C29       1.0  0.25531  0.04250  0.14015  1.0000
  H   H29       1.0  0.27519  0.05708  0.14519  1.0000
  C   C30       1.0  0.07368  0.33541  0.42663  1.0000
  S   S12       1.0  0.39694  0.32980  0.09273  1.0000
  H   H30       1.0  0.00736  0.33520  0.41689  1.0000
  C   C31       1.0  0.40722  0.01526  0.06444  1.0000
  H   H31       1.0  0.30668  0.04297  0.01579  1.0000
  S   S13       1.0  0.46162  0.33382  0.29630  1.0000
  H   H32       1.0  0.42350  0.26320  0.18146  1.0000
  C   C32       1.0  0.26200  0.02084  0.15058  1.0000
  C   C33       1.0  0.47188  0.23195  0.13749  1.0000
  H   H33       1.0  0.42867  0.01968  0.07898  1.0000
  C   C34       1.0  0.49708  0.30615  0.25992  1.0000
  C   C35       1.0  0.34982  0.00460  0.02840  1.0000
  C   C36       1.0  0.50157  0.29915  0.23569  1.0000
  H   H34       1.0  0.34794  0.33778  0.38951  1.0000
  Fe  Fe8       1.0  0.37614  0.02044  0.62158  1.0000
  S   S14       1.0  0.38347  0.05076  0.59672  1.0000
  Fe  Fe9       1.0  0.39223  0.05120  0.66668  1.0000
  S   S15       1.0  0.40113  0.08326  0.64423  1.0000
  S   S16       1.0  0.39314  0.05459  0.70775  1.0000
  Fe  Fe10      1.0  0.34377  0.07081  0.62363  1.0000
  S   S17       1.0  0.29717  0.09805  0.60934  1.0000
  Fe  Fe11      1.0  0.43939  0.06057  0.61932  1.0000
  C   C37       1.0  0.04274  0.19162  0.97167  1.0000
  S   S18       1.0  0.33239  0.03970  0.64726  1.0000
  S   S19       1.0  0.43441  0.02942  0.64324  1.0000
  C   C38       1.0  0.47859  0.04635  0.71883  1.0000
  Fe  Fe12      1.0  0.06450  0.15908  0.63551  1.0000
  S   S20       1.0  0.05291  0.19201  0.65689  1.0000
  S   S21       1.0  0.11764  0.13444  0.64808  1.0000
  Fe  Fe13      1.0  0.03211  0.20777  0.62174  1.0000
  S   S22       1.0  0.03461  0.24637  0.61227  1.0000
  C   C39       1.0  0.13850  0.11900  0.89537  1.0000
  S   S23       1.0  0.04862  0.17594  0.59999  1.0000
  H   H35       1.0  0.19289  0.16766  0.88043  1.0000
  H   H36       1.0  0.48817  0.06453  0.52716  1.0000
  S   S24       1.0  0.15902  0.30498  0.54482  1.0000
  Fe  Fe14      1.0  0.32503  0.11369  0.98028  1.0000
  S   S25       1.0  0.25578  0.10518  0.98434  1.0000
  S   S26       1.0  0.36878  0.08725  0.96272  1.0000
  Fe  Fe15      1.0  0.24331  0.14363  0.98292  1.0000
  S   S27       1.0  0.19559  0.16323  0.95883  1.0000
  S   S28       1.0  0.31266  0.15180  0.97563  1.0000
  C   C40       1.0  0.06159  0.14934  0.92789  1.0000
  C   C41       1.0  0.08361  0.16972  0.92243  1.0000
  C   C42       1.0  0.12409  0.17383  0.93252  1.0000
  C   C43       1.0  0.14333  0.15759  0.94798  1.0000
  C   C44       1.0  0.12106  0.13734  0.95365  1.0000
  C   C45       1.0  0.08042  0.13331  0.94370  1.0000
  H   H37       1.0  0.06955  0.18227  0.91041  1.0000
  H   H38       1.0  0.14098  0.18956  0.92804  1.0000
  H   H39       1.0  0.13531  0.12471  0.96554  1.0000
  H   H40       1.0  0.06367  0.11751  0.94811  1.0000
  C   C46       1.0  0.10240  0.12263  0.88117  1.0000
  H   H41       1.0  0.01455  0.23104  0.76765  1.0000
  H   H42       1.0  0.42659  0.05793  0.93709  1.0000
  H   H43       1.0  0.07635  0.11035  0.88216  1.0000
  C   C47       1.0  0.06832  0.26165  0.59206  1.0000
  C   C48       1.0  0.10690  0.25240  0.58384  1.0000
  C   C49       1.0  0.13382  0.26577  0.56906  1.0000
  C   C50       1.0  0.12220  0.28833  0.56189  1.0000
  C   C51       1.0  0.08304  0.29732  0.56956  1.0000
  C   C52       1.0  0.05650  0.28413  0.58474  1.0000
  H   H44       1.0  0.11663  0.23521  0.58939  1.0000
  H   H45       1.0  0.16410  0.25867  0.56331  1.0000
  H   H46       1.0  0.07357  0.31460  0.56418  1.0000
  H   H47       1.0  0.43111  0.16065  0.98668  1.0000
  C   C53       1.0  0.46185  0.10152  0.90116  1.0000
  C   C54       1.0  0.43439  0.11922  0.90922  1.0000
  C   C55       1.0  0.40445  0.11493  0.92750  1.0000
  C   C56       1.0  0.40192  0.09289  0.93781  1.0000
  C   C57       1.0  0.42844  0.07504  0.92922  1.0000
  S   S29       1.0  0.01100  0.14288  0.91519  1.0000
  H   H48       1.0  0.43693  0.13641  0.90162  1.0000
  H   H49       1.0  0.38394  0.12875  0.93387  1.0000
  C   C58       1.0  0.45829  0.07931  0.91094  1.0000
  H   H50       1.0  0.45345  0.09922  0.57813  1.0000
  C   C59       1.0  0.24457  0.10580  0.61835  1.0000
  C   C60       1.0  0.22416  0.12450  0.60685  1.0000
  C   C61       1.0  0.18422  0.13280  0.61486  1.0000
  C   C62       1.0  0.16421  0.12246  0.63454  1.0000
  C   C63       1.0  0.18397  0.10325  0.64551  1.0000
  C   C64       1.0  0.22388  0.09494  0.63750  1.0000
  H   H51       1.0  0.23980  0.13298  0.59197  1.0000
  H   H52       1.0  0.16955  0.14758  0.60625  1.0000
  H   H53       1.0  0.16870  0.09507  0.66070  1.0000
  H   H54       1.0  0.23895  0.08046  0.64642  1.0000
  C   C65       1.0  0.43809  0.05252  0.72723  1.0000
  C   C66       1.0  0.22672  0.13764  0.68392  1.0000
  C   C67       1.0  0.46745  0.05536  0.76804  1.0000
  C   C68       1.0  0.43280  0.05695  0.75196  1.0000
  H   H55       1.0  0.33512  0.12353  0.65465  1.0000
  H   H56       1.0  0.46281  0.05892  0.78694  1.0000
  H   H57       1.0  0.40169  0.06176  0.75872  1.0000
  C   C69       1.0  0.42610  0.04867  0.52625  1.0000
  C   C70       1.0  0.06106  0.14518  0.85221  1.0000
  H   H58       1.0  0.07125  0.22851  0.73652  1.0000
  H   H59       1.0  0.47025  0.12431  0.54314  1.0000
  C   C71       1.0  0.16785  0.15475  0.88039  1.0000
  H   H60       1.0  0.03428  0.22657  0.53754  1.0000
  H   H61       1.0  0.43678  0.01020  0.78944  1.0000
  H   H62       1.0  0.07210  0.22483  0.96698  1.0000
  C   C72       1.0  0.40051  0.03107  0.53552  1.0000
  C   C73       1.0  0.49410  0.11244  0.54994  1.0000
  H   H63       1.0  0.48329  0.04282  0.69993  1.0000
  H   H64       1.0  0.12879  0.17308  0.85511  1.0000
  H   H65       1.0  0.35676  0.04597  0.99986  1.0000
  C   C74       1.0  0.02472  0.21304  0.55061  1.0000
  C   C75       1.0  0.47745  0.10871  0.97548  1.0000
  C   C76       1.0  0.13140  0.15778  0.86630  1.0000
  H   H66       1.0  0.04792  0.17363  0.76060  1.0000
  N   N4        1.0  0.45860  0.01798  0.56007  1.0000
  H   H67       1.0  0.29132  0.15558  0.63873  1.0000
  H   H68       1.0  0.05268  0.23327  0.69365  1.0000
  H   H69       1.0  0.22070  0.16423  0.65706  1.0000
  C   C77       1.0  0.28077  0.14616  0.65447  1.0000
  H   H70       1.0  0.19864  0.13315  0.90676  1.0000
  C   C78       1.0  0.00962  0.24884  0.94589  1.0000
  N   N5        1.0  0.09908  0.14194  0.86706  1.0000
  C   C79       1.0  0.30539  0.12793  0.66355  1.0000
  C   C80       1.0  0.24116  0.15098  0.66473  1.0000
  N   N6        1.0  0.46705  0.13164  0.97291  1.0000
  H   H71       1.0  0.02671  0.29147  0.59096  1.0000
  C   C81       1.0  0.02790  0.23480  0.70715  1.0000
  C   C82       1.0  0.25221  0.11955  0.69257  1.0000
  N   N7        1.0  0.29121  0.11509  0.68255  1.0000
  C   C83       1.0  0.48387  0.03517  0.55106  1.0000
  H   H72       1.0  0.30948  0.07976  0.67982  1.0000
  S   S30       1.0  0.50279  0.10820  0.88061  1.0000
  C   C84       1.0  0.01497  0.17646  0.75583  1.0000
  C   C85       1.0  0.43199  0.14136  0.98719  1.0000
  C   C86       1.0  0.31652  0.09530  0.69092  1.0000
  C   C87       1.0  0.17127  0.13526  0.89506  1.0000
  H   H73       1.0  0.19496  0.14052  0.69110  1.0000
  H   H74       1.0  0.04110  0.19642  0.54623  1.0000
  H   H75       1.0  0.35120  0.09895  0.68970  1.0000
  H   H76       1.0  0.06261  0.13381  0.83611  1.0000
  H   H77       1.0  0.41322  0.06098  0.51346  1.0000
  H   H78       1.0  0.24006  0.10869  0.70687  1.0000
  H   H79       1.0  0.30984  0.09111  0.71001  1.0000
  C   C88       1.0  0.48710  0.14492  0.95601  1.0000
  H   H80       1.0  0.14034  0.10414  0.90724  1.0000
  H   H81       1.0  0.01918  0.24946  0.92667  1.0000
  H   H82       1.0  0.14275  0.33252  0.58857  1.0000
  H   H83       1.0  0.05749  0.16342  0.84606  1.0000
  C   C89       1.0  0.04328  0.21484  0.96441  1.0000
  C   C90       1.0  0.48454  0.09830  0.56976  1.0000
  H   H84       1.0  0.03609  0.21841  0.56864  1.0000
  H   H85       1.0  0.03219  0.25932  0.95669  1.0000
  C   C91       1.0  0.46815  0.05066  0.53392  1.0000
  H   H86       1.0  0.07085  0.18372  0.97955  1.0000
  H   H87       1.0  0.47768  0.16282  0.95325  1.0000
  H   H88       1.0  0.45986  0.09789  0.98791  1.0000
  H   H89       1.0  0.47934  0.06558  0.90489  1.0000
  H   H90       1.0  0.02707  0.17430  0.71756  1.0000
  H   H91       1.0  0.03195  0.14092  0.86265  1.0000
  H   H92       1.0  0.40128  0.13478  0.98019  1.0000
  C   C92       1.0  0.41740  0.01578  0.55250  1.0000
  H   H93       1.0  0.36748  0.02961  0.53009  1.0000
  H   H94       1.0  0.46800  0.01117  0.59691  1.0000
  C   C93       1.0  0.03870  0.23228  0.73137  1.0000
  H   H95       1.0  0.00598  0.16011  0.97249  1.0000
  N   N8        1.0  0.00821  0.22468  0.95395  1.0000
  C   C94       1.0  0.00635  0.17837  0.96775  1.0000
  H   H96       1.0  0.21422  0.33710  0.57032  1.0000
  C   C95       1.0  0.00694  0.23382  0.74886  1.0000
  Fe  Fe16      1.0  0.09635  0.36963  0.49151  1.0000
  S   S31       1.0  0.14981  0.39382  0.48289  1.0000
  S   S32       1.0  0.02976  0.37392  0.47674  1.0000
  Fe  Fe17      1.0  0.19024  0.36155  0.47856  1.0000
  C   C96       1.0  0.00998  0.40412  0.40167  1.0000
  H   H97       1.0  0.28869  0.35549  0.10889  1.0000
  C   C97       1.0  0.39064  0.37086  0.04257  1.0000
  H   H98       1.0  0.40586  0.40594  0.10095  1.0000
  C   C98       1.0  0.02430  0.45163  0.22768  1.0000
  S   S33       1.0  0.19338  0.57366  0.03253  1.0000
  H   H99       1.0  0.24937  0.40675  0.21003  1.0000
  Fe  Fe18      1.0  0.06960  0.45134  0.16738  1.0000
  S   S34       1.0  0.05946  0.42096  0.14277  1.0000
  S   S35       1.0  0.06521  0.44284  0.20738  1.0000
  Fe  Fe19      1.0  0.08696  0.48404  0.12465  1.0000
  S   S36       1.0  0.07749  0.45578  0.09726  1.0000
  S   S37       1.0  0.08972  0.52254  0.11505  1.0000
  S   S38       1.0  0.02807  0.47489  0.14579  1.0000
  Fe  Fe20      1.0  0.11686  0.43370  0.12255  1.0000
  S   S39       1.0  0.16161  0.40531  0.10868  1.0000
  C   C99       1.0  0.09808  0.54885  0.00791  1.0000
  S   S40       1.0  0.13005  0.46270  0.14868  1.0000
  H   H100      1.0  0.46137  0.66164  0.50275  1.0000
  S   S41       1.0  0.35249  0.37984  0.13768  1.0000
  H   H101      1.0  0.45881  0.36894  0.04163  1.0000
  C   C100      1.0  0.04646  0.35046  0.38933  1.0000
  C   C101      1.0  0.21499  0.39891  0.11668  1.0000
  C   C102      1.0  0.23921  0.41376  0.13105  1.0000
  C   C103      1.0  0.28132  0.40770  0.13719  1.0000
  C   C104      1.0  0.29944  0.38664  0.12933  1.0000
  C   C105      1.0  0.27516  0.37173  0.11509  1.0000
  C   C106      1.0  0.23329  0.37795  0.10868  1.0000
  H   H102      1.0  0.22555  0.42995  0.13732  1.0000
  H   H103      1.0  0.29993  0.41940  0.14813  1.0000
  C   C107      1.0  0.35711  0.35094  0.44873  1.0000
  H   H104      1.0  0.21477  0.36634  0.09757  1.0000
  H   H105      1.0  0.27838  0.35719  0.17013  1.0000
  H   H106      1.0  0.12356  0.41286  0.18109  1.0000
  H   H107      1.0  0.33341  0.39892  0.08557  1.0000
  C   C108      1.0  0.16318  0.55920  0.05475  1.0000
  C   C109      1.0  0.17522  0.53675  0.06188  1.0000
  C   C110      1.0  0.15251  0.52497  0.07995  1.0000
  C   C111      1.0  0.11811  0.53582  0.09138  1.0000
  C   C112      1.0  0.10591  0.55820  0.08411  1.0000
  C   C113      1.0  0.12799  0.56974  0.06571  1.0000
  H   H108      1.0  0.20239  0.52844  0.05348  1.0000
  H   H109      1.0  0.16223  0.50775  0.08542  1.0000
  H   H110      1.0  0.07926  0.56668  0.09284  1.0000
  H   H111      1.0  0.11834  0.58697  0.06042  1.0000
  N   N9        1.0  0.12119  0.35292  0.39814  1.0000
  H   H112      1.0  0.16686  0.36613  0.37294  1.0000
  H   H113      1.0  0.17954  0.42710  0.20848  1.0000
  C   C114      1.0  0.03945  0.33960  0.41133  1.0000
  C   C115      1.0  0.05754  0.39363  0.43447  1.0000
  C   C116      1.0  0.03504  0.57120  0.01696  1.0000
  Fe  Fe21      1.0  0.17357  0.60835  0.01670  1.0000
  N   N10       1.0  0.04936  0.53580  0.03832  1.0000
  H   H114      1.0  0.08933  0.39247  0.44173  1.0000
  H   H115      1.0  0.29996  0.38205  0.18460  1.0000
  H   H116      1.0  0.48208  0.41072  0.08849  1.0000
  C   C117      1.0  0.15392  0.40392  0.18196  1.0000
  H   H117      1.0  0.42259  0.34823  0.25227  1.0000
  H   H118      1.0  0.06571  0.45409  0.40990  1.0000
  C   C118      1.0  0.27337  0.36937  0.18541  1.0000
  C   C119      1.0  0.02300  0.44184  0.25080  1.0000
  H   H119      1.0  0.07807  0.40854  0.40095  1.0000
  C   C120      1.0  0.12502  0.64738  0.10119  1.0000
  S   S42       1.0  0.11446  0.62704  0.02827  1.0000
  C   C121      1.0  0.35512  0.37930  0.05492  1.0000
  H   H120      1.0  0.02645  0.52734  0.07326  1.0000
  H   H121      1.0  0.14110  0.33919  0.43177  1.0000
  C   C122      1.0  0.47942  0.39285  0.08120  1.0000
  H   H122      1.0  0.38671  0.36026  0.02662  1.0000
  C   C123      1.0  0.02288  0.38571  0.44789  1.0000
  H   H123      1.0  0.17361  0.57490  0.12402  1.0000
  C   C124      1.0  0.05108  0.40274  0.41140  1.0000
  H   H124      1.0  0.10641  0.51782  0.02859  1.0000
  C   C125      1.0  0.36077  0.39240  0.07572  1.0000
  N   N11       1.0  0.23221  0.38137  0.18389  1.0000
  C   C126      1.0  0.20113  0.37326  0.16891  1.0000
  C   C127      1.0  0.22480  0.40037  0.19810  1.0000
  H   H125      1.0  0.09252  0.36649  0.36636  1.0000
  C   C128      1.0  0.18556  0.41194  0.19734  1.0000
  H   H126      1.0  0.48656  0.38021  0.09567  1.0000
  H   H127      1.0  0.19056  0.64318  0.07141  1.0000
  H   H128      1.0  0.14267  0.66389  0.10384  1.0000
  C   C129      1.0  0.43141  0.37579  0.05122  1.0000
  H   H129      1.0  0.10203  0.64563  0.11624  1.0000
  C   C130      1.0  0.03653  0.51862  0.05632  1.0000
  H   H130      1.0  0.20706  0.35845  0.15731  1.0000
  S   S43       1.0  0.21446  0.64049  0.01675  1.0000
  H   H131      1.0  0.13765  0.37861  0.15500  1.0000
  H   H132      1.0  0.00679  0.41714  0.07191  1.0000
  N   N12       1.0  0.15488  0.62781  0.09979  1.0000
  C   C131      1.0  0.15007  0.60896  0.11446  1.0000
  C   C132      1.0  0.18704  0.62837  0.08322  1.0000
  C   C133      1.0  0.17819  0.59012  0.11286  1.0000
  C   C134      1.0  0.21545  0.60975  0.08098  1.0000
  C   C135      1.0  0.21098  0.59054  0.09594  1.0000
  Fe  Fe22      1.0  0.15332  0.65958  0.02562  1.0000
  H   H133      1.0  0.12411  0.60820  0.12729  1.0000
  C   C136      1.0  0.40194  0.39656  0.08418  1.0000
  C   C137      1.0  0.03562  0.46414  0.40830  1.0000
  H   H134      1.0  0.23998  0.60987  0.06722  1.0000
  H   H135      1.0  0.23193  0.57566  0.09379  1.0000
  C   C138      1.0  0.33868  0.34214  0.40768  1.0000
  S   S44       1.0  0.22683  0.35481  0.44337  1.0000
  Fe  Fe23      1.0  0.38994  0.34676  0.12883  1.0000
  H   H136      1.0  0.30443  0.35821  0.47284  1.0000
  N   N13       1.0  0.43663  0.38858  0.07174  1.0000
  H   H137      1.0  0.04208  0.48286  0.41112  1.0000
  C   C139      1.0  0.02392  0.55472  0.03429  1.0000
  C   C140      1.0  0.16166  0.38450  0.16760  1.0000
  C   C141      1.0  0.37003  0.34521  0.42520  1.0000
  H   H138      1.0  0.27548  0.35944  0.20241  1.0000
  H   H139      1.0  0.04742  0.42963  0.25609  1.0000
  C   C142      1.0  0.08585  0.53262  0.02523  1.0000
  H   H140      1.0  0.00989  0.50791  0.04944  1.0000
  C   C143      1.0  0.01615  0.44652  0.44690  1.0000
  C   C144      1.0  0.31363  0.35368  0.45471  1.0000
  H   H141      1.0  0.01981  0.35466  0.37771  1.0000
  Fe  Fe24      1.0  0.02157  0.44526  0.11989  1.0000
  S   S45       1.0  0.46092  0.34772  0.13533  1.0000
  H   H142      1.0  0.38097  0.35344  0.46245  1.0000
  H   H143      1.0  0.32326  0.37544  0.04861  1.0000
  H   H144      1.0  0.10676  0.64879  0.08418  1.0000
  H   H145      1.0  0.06325  0.50685  0.06126  1.0000
  H   H146      1.0  0.04963  0.44394  0.45082  1.0000
  H   H147      1.0  0.02421  0.46150  0.38958  1.0000
  H   H148      1.0  0.18777  0.34677  0.39522  1.0000
  C   C145      1.0  0.08775  0.35721  0.38305  1.0000
  H   H149      1.0  0.17290  0.37582  0.40362  1.0000
  C   C146      1.0  0.16414  0.36085  0.39202  1.0000
  C   C147      1.0  0.28228  0.35087  0.43715  1.0000
  C   C148      1.0  0.29518  0.34504  0.41362  1.0000
  S   S46       1.0  0.42565  0.34235  0.41890  1.0000
  S   S47       1.0  0.49465  0.35511  0.35846  1.0000
  H   H150      1.0  0.01506  0.58631  0.01377  1.0000
  C   C149      1.0  0.11461  0.34218  0.41968  1.0000
  H   H151      1.0  0.27142  0.34280  0.39983  1.0000
  H   H152      1.0  0.50423  0.39067  0.06708  1.0000
  C   C150      1.0  0.12350  0.66149  0.92338  1.0000
  H   H153      1.0  0.07252  0.58691  0.89939  1.0000
  Fe  Fe25      1.0  0.16378  0.39165  0.52247  1.0000
  S   S48       1.0  0.18320  0.42389  0.54384  1.0000
  C   C151      1.0  0.06595  0.57066  0.75649  1.0000
  Fe  Fe26      1.0  0.07875  0.52586  0.62498  1.0000
  S   S49       1.0  0.11540  0.55361  0.60569  1.0000
  S   S50       1.0  0.06643  0.48970  0.60930  1.0000
  Fe  Fe27      1.0  0.04528  0.55958  0.66415  1.0000
  S   S51       1.0  0.07881  0.58965  0.64653  1.0000
  C   C152      1.0  0.13892  0.36831  0.60028  1.0000
  Fe  Fe28      1.0  0.05644  0.57523  0.61140  1.0000
  Fe  Fe29      1.0  0.13513  0.56603  0.64231  1.0000
  S   S52       1.0  0.19901  0.58024  0.65530  1.0000
  H   H154      1.0  0.30962  0.64360  0.97239  1.0000
  S   S53       1.0  0.10305  0.53634  0.66173  1.0000
  H   H155      1.0  0.14522  0.62734  0.64903  1.0000
  S   S54       1.0  0.45193  0.64921  0.63309  1.0000
  C   C153      1.0  0.06698  0.54781  0.74823  1.0000
  S   S55       1.0  0.33559  0.64386  0.60192  1.0000
  Fe  Fe30      1.0  0.10298  0.63150  0.98874  1.0000
  S   S56       1.0  0.15962  0.61067  0.97718  1.0000
  S   S57       1.0  0.03577  0.62522  0.97575  1.0000
  Fe  Fe31      1.0  0.19564  0.64448  0.97794  1.0000
  S   S58       1.0  0.23309  0.65588  0.94451  1.0000
  H   H156      1.0  0.08144  0.58094  0.99038  1.0000
  C   C154      1.0  0.13786  0.40893  0.61317  1.0000
  C   C155      1.0  0.31962  0.65006  0.95507  1.0000
  C   C156      1.0  0.28896  0.65713  0.93841  1.0000
  C   C157      1.0  0.02481  0.60960  0.94918  1.0000
  H   H157      1.0  0.21415  0.40873  0.59144  1.0000
  C   C158      1.0  0.16576  0.63857  0.63859  1.0000
  H   H158      1.0  0.12788  0.54675  0.99821  1.0000
  H   H159      1.0  0.46463  0.63061  0.75007  1.0000
  N   N14       1.0  0.15885  0.38937  0.60104  1.0000
  N   N15       1.0  0.02560  0.55870  0.79100  1.0000
  N   N16       1.0  0.16019  0.64070  0.61435  1.0000
  H   H160      1.0  0.38667  0.64577  0.96238  1.0000
  H   H161      1.0  0.13870  0.40644  0.63290  1.0000
  H   H162      1.0  0.47699  0.64627  0.79982  1.0000
  H   H163      1.0  0.07970  0.58435  0.74565  1.0000
  H   H164      1.0  0.09024  0.60477  0.93871  1.0000
  H   H165      1.0  0.05989  0.52663  0.53938  1.0000
  C   C159      1.0  0.23860  0.59632  0.63974  1.0000
  C   C160      1.0  0.23698  0.59989  0.61494  1.0000
  C   C161      1.0  0.26777  0.61390  0.60361  1.0000
  C   C162      1.0  0.30031  0.62464  0.61691  1.0000
  C   C163      1.0  0.30247  0.62068  0.64163  1.0000
  C   C164      1.0  0.27186  0.60652  0.65292  1.0000
  H   H166      1.0  0.21197  0.59193  0.60452  1.0000
  H   H167      1.0  0.26594  0.61672  0.58446  1.0000
  H   H168      1.0  0.32733  0.62875  0.65210  1.0000
  H   H169      1.0  0.27356  0.60376  0.67210  1.0000
  S   S59       1.0  0.10754  0.36928  0.53151  1.0000
  C   C165      1.0  0.41614  0.64891  0.52872  1.0000
  H   H170      1.0  0.09530  0.63026  0.61234  1.0000
  C   C166      1.0  0.05734  0.60212  0.93382  1.0000
  C   C167      1.0  0.14930  0.44303  0.56024  1.0000
  C   C168      1.0  0.16695  0.46275  0.57130  1.0000
  C   C169      1.0  0.14189  0.47758  0.58582  1.0000
  C   C170      1.0  0.09886  0.47267  0.58973  1.0000
  C   C171      1.0  0.08110  0.45307  0.57848  1.0000
  C   C172      1.0  0.10602  0.43842  0.56368  1.0000
  H   H171      1.0  0.20039  0.46649  0.56878  1.0000
  H   H172      1.0  0.15612  0.49252  0.59439  1.0000
  H   H173      1.0  0.04786  0.44907  0.58136  1.0000
  H   H174      1.0  0.09196  0.42332  0.55533  1.0000
  C   C173      1.0  0.10782  0.63965  0.88757  1.0000
  S   S60       1.0  0.01165  0.57144  0.69888  1.0000
  C   C174      1.0  0.21904  0.37325  0.58008  1.0000
  H   H175      1.0  0.43340  0.58992  0.57467  1.0000
  H   H176      1.0  0.14654  0.66897  0.93558  1.0000
  C   C175      1.0  0.13754  0.64892  0.90348  1.0000
  H   H177      1.0  0.20447  0.64746  0.66919  1.0000
  S   S61       1.0  0.01837  0.54714  0.62884  1.0000
  H   H178      1.0  0.17148  0.64637  0.90058  1.0000
  C   C176      1.0  0.04722  0.59209  0.91149  1.0000
  S   S62       1.0  0.47764  0.65272  0.85364  1.0000
  H   H179      1.0  0.41043  0.61440  0.59045  1.0000
  H   H180      1.0  0.48791  0.62181  0.92339  1.0000
  C   C177      1.0  0.48287  0.62290  0.54697  1.0000
  H   H181      1.0  0.24980  0.37562  0.57155  1.0000
  C   C178      1.0  0.41047  0.63468  0.54878  1.0000
  H   H182      1.0  0.15350  0.42571  0.60890  1.0000
  H   H183      1.0  0.13374  0.60891  0.60242  1.0000
  H   H184      1.0  0.10740  0.36623  0.60791  1.0000
  C   C179      1.0  0.02621  0.53627  0.78294  1.0000
  C   C180      1.0  0.36341  0.65131  0.94931  1.0000
  C   C181      1.0  0.37729  0.65966  0.92687  1.0000
  C   C182      1.0  0.30285  0.66546  0.91597  1.0000
  H   H185      1.0  0.18427  0.65487  0.58169  1.0000
  H   H186      1.0  0.00660  0.58257  0.81883  1.0000
  H   H187      1.0  0.01274  0.55306  0.82806  1.0000
  H   H188      1.0  0.10425  0.41050  0.60719  1.0000
  C   C183      1.0  0.15870  0.34918  0.58944  1.0000
  S   S63       1.0  0.03718  0.59748  0.57969  1.0000
  S   S64       1.0  0.20884  0.36117  0.51757  1.0000
  C   C184      1.0  0.00462  0.58945  0.90441  1.0000
  N   N17       1.0  0.05087  0.65487  0.91193  1.0000
  H   H189      1.0  0.37945  0.63411  0.55738  1.0000
  H   H190      1.0  0.00921  0.52290  0.79268  1.0000
  S   S65       1.0  0.43314  0.66067  0.92069  1.0000
  H   H191      1.0  0.04324  0.59376  0.78394  1.0000
  C   C185      1.0  0.19897  0.35172  0.57925  1.0000
  Fe  Fe32      1.0  0.48957  0.66674  0.60381  1.0000
  C   C186      1.0  0.48978  0.63704  0.52699  1.0000
  C   C187      1.0  0.19858  0.39195  0.59132  1.0000
  S   S66       1.0  0.13691  0.66576  0.98699  1.0000
  C   C188      1.0  0.04706  0.53045  0.76151  1.0000
  C   C189      1.0  0.04498  0.57585  0.77805  1.0000
  C   C190      1.0  0.06432  0.64308  0.89192  1.0000
  C   C191      1.0  0.49883  0.63279  0.75137  1.0000
  H   H192      1.0  0.08148  0.54379  0.73098  1.0000
  H   H193      1.0  0.04626  0.51281  0.75472  1.0000
  C   C192      1.0  0.43825  0.60837  0.57968  1.0000
  C   C193      1.0  0.07981  0.66416  0.92750  1.0000
  H   H194      1.0  0.46815  0.61621  0.79228  1.0000
  H   H195      1.0  0.11837  0.62968  0.87213  1.0000
  H   H196      1.0  0.06111  0.52387  0.57142  1.0000
  H   H197      1.0  0.46660  0.60982  0.59154  1.0000
  C   C194      1.0  0.04886  0.53467  0.55643  1.0000
  H   H198      1.0  0.12059  0.63336  0.58382  1.0000
  H   H199      1.0  0.04136  0.63553  0.87966  1.0000
  N   N18       1.0  0.44399  0.62245  0.55806  1.0000
  C   C195      1.0  0.12593  0.62773  0.60263  1.0000
  C   C196      1.0  0.49290  0.62966  0.79504  1.0000
  C   C197      1.0  0.00526  0.65847  0.91624  1.0000
  Fe  Fe33      1.0  0.15072  0.33886  0.52388  1.0000
  H   H200      1.0  0.38985  0.65924  0.52198  1.0000
  H   H201      1.0  0.49119  0.64403  0.95978  1.0000
  C   C198      1.0  0.19927  0.64994  0.65013  1.0000
  C   C199      1.0  0.22739  0.66337  0.63668  1.0000
  C   C200      1.0  0.34664  0.66674  0.91022  1.0000
  C   C201      1.0  0.45621  0.65026  0.51795  1.0000
  H   H202      1.0  0.06303  0.55223  0.55827  1.0000
  C   C202      1.0  0.18772  0.65378  0.60100  1.0000
  Fe  Fe34      1.0  0.39339  0.66412  0.61568  1.0000
  C   C203      1.0  0.22165  0.66535  0.61196  1.0000
  C   C204      1.0  0.07239  0.56820  0.00374  1.0000
  H   H203      1.0  0.27957  0.67101  0.90290  1.0000
  Fe  Fe35      1.0  0.25993  0.86123  0.47009  1.0000
  S   S67       1.0  0.31481  0.83664  0.47599  1.0000
  S   S68       1.0  0.22148  0.85478  0.43574  1.0000
  Fe  Fe36      1.0  0.35414  0.86857  0.48232  1.0000
  S   S69       1.0  0.42123  0.87135  0.46774  1.0000
  S   S70       1.0  0.30099  0.89311  0.47359  1.0000
  H   H204      1.0  0.28083  0.89493  0.37630  1.0000
  Fe  Fe37      1.0  0.38117  0.94006  0.10549  1.0000
  S   S71       1.0  0.41858  0.96526  0.12776  1.0000
  S   S72       1.0  0.40256  0.92606  0.06930  1.0000
  Fe  Fe38      1.0  0.30147  0.94389  0.13702  1.0000
  S   S73       1.0  0.33303  0.96990  0.16157  1.0000
  S   S74       1.0  0.23106  0.93660  0.14416  1.0000
  Fe  Fe39      1.0  0.35794  0.98630  0.12769  1.0000
  Fe  Fe40      1.0  0.39088  0.94681  0.15992  1.0000
  S   S75       1.0  0.42603  0.93303  0.19320  1.0000
  S   S76       1.0  0.32230  0.96231  0.10353  1.0000
  S   S77       1.0  0.35760  0.91961  0.13723  1.0000
  H   H205      1.0  0.08910  0.80009  0.02188  1.0000
  H   H206      1.0  0.25981  0.86775  0.38702  1.0000
  Fe  Fe41      1.0  0.05338  0.83699  0.11765  1.0000
  S   S78       1.0  0.04682  0.80141  0.13440  1.0000
  S   S79       1.0  0.12134  0.84923  0.10993  1.0000
  H   H207      1.0  0.49428  0.93352  0.27259  1.0000
  C   C205      1.0  0.49542  0.93934  0.45820  1.0000
  H   H208      1.0  0.31291  0.85299  0.42380  1.0000
  C   C206      1.0  0.01083  0.82813  0.24914  1.0000
  H   H209      1.0  0.35915  0.96871  0.03896  1.0000
  C   C207      1.0  0.48701  0.94375  0.25687  1.0000
  C   C208      1.0  0.09922  0.78464  0.43730  1.0000
  H   H210      1.0  0.24038  0.80266  0.45016  1.0000
  C   C209      1.0  0.16276  0.79821  0.49236  1.0000
  H   H211      1.0  0.42115  0.87186  0.36245  1.0000
  C   C210      1.0  0.33638  0.85681  0.41008  1.0000
  C   C211      1.0  0.20127  0.91199  0.13476  1.0000
  C   C212      1.0  0.15848  0.90996  0.14203  1.0000
  C   C213      1.0  0.13351  0.89086  0.13477  1.0000
  C   C214      1.0  0.15107  0.87362  0.12002  1.0000
  C   C215      1.0  0.19382  0.87571  0.11271  1.0000
  C   C216      1.0  0.21882  0.89473  0.12005  1.0000
  H   H212      1.0  0.14457  0.92317  0.15345  1.0000
  H   H213      1.0  0.10074  0.88951  0.14055  1.0000
  H   H214      1.0  0.20775  0.86251  0.10129  1.0000
  H   H215      1.0  0.25161  0.89605  0.11429  1.0000
  N   N19       1.0  0.32647  0.87141  0.39159  1.0000
  H   H216      1.0  0.48964  0.82813  0.00534  1.0000
  C   C217      1.0  0.45281  0.94709  0.21737  1.0000
  C   C218      1.0  0.07931  0.78855  0.03679  1.0000
  H   H217      1.0  0.43997  0.84579  0.39635  1.0000
  H   H218      1.0  0.44679  0.91256  0.02638  1.0000
  C   C219      1.0  0.45683  0.92005  0.06387  1.0000
  C   C220      1.0  0.04882  0.74003  0.07214  1.0000
  C   C221      1.0  0.04585  0.72543  0.05194  1.0000
  C   C222      1.0  0.07741  0.70864  0.04699  1.0000
  C   C223      1.0  0.11219  0.70612  0.06236  1.0000
  C   C224      1.0  0.11474  0.72034  0.08287  1.0000
  C   C225      1.0  0.08339  0.73735  0.08767  1.0000
  H   H219      1.0  0.04043  0.83624  0.25433  1.0000
  C   C226      1.0  0.50291  0.96632  0.25496  1.0000
  H   H220      1.0  0.14144  0.71849  0.09494  1.0000
  H   H221      1.0  0.08598  0.74839  0.10334  1.0000
  C   C227      1.0  0.43224  0.88801  0.44203  1.0000
  C   C228      1.0  0.47358  0.88788  0.43240  1.0000
  H   H222      1.0  0.07488  0.69776  0.03121  1.0000
  C   C229      1.0  0.45058  0.91231  0.39947  1.0000
  C   C230      1.0  0.40948  0.91286  0.40938  1.0000
  C   C231      1.0  0.40035  0.90085  0.43065  1.0000
  C   C232      1.0  0.39717  0.86701  0.37557  1.0000
  H   H223      1.0  0.01905  0.72725  0.03992  1.0000
  H   H224      1.0  0.38444  0.92231  0.40033  1.0000
  H   H225      1.0  0.36850  0.90114  0.43794  1.0000
  C   C233      1.0  0.16583  0.85016  0.43159  1.0000
  C   C234      1.0  0.13713  0.84963  0.45081  1.0000
  C   C235      1.0  0.09377  0.84458  0.44675  1.0000
  C   C236      1.0  0.07834  0.84011  0.42346  1.0000
  C   C237      1.0  0.10698  0.84091  0.40421  1.0000
  C   C238      1.0  0.15040  0.84585  0.40829  1.0000
  H   H226      1.0  0.14836  0.85291  0.46884  1.0000
  H   H227      1.0  0.07198  0.84400  0.46180  1.0000
  H   H228      1.0  0.09580  0.83737  0.38622  1.0000
  H   H229      1.0  0.17219  0.84616  0.39324  1.0000
  C   C239      1.0  0.40775  0.85241  0.39460  1.0000
  C   C240      1.0  0.49298  0.97931  0.23433  1.0000
  N   N20       1.0  0.47442  0.97008  0.42166  1.0000
  C   C241      1.0  0.39637  0.99216  0.06032  1.0000
  H   H230      1.0  0.46110  0.97997  0.19984  1.0000
  H   H231      1.0  0.47709  0.92614  0.10021  1.0000
  H   H232      1.0  0.45573  0.87061  0.09898  1.0000
  H   H233      1.0  0.19619  0.74520  0.05912  1.0000
  C   C242      1.0  0.20925  0.79952  0.45794  1.0000
  H   H234      1.0  0.45078  0.91661  0.23968  1.0000
  C   C243      1.0  0.46975  0.91301  0.04081  1.0000
  C   C244      1.0  0.48283  0.90009  0.41120  1.0000
  H   H235      1.0  0.06878  0.79216  0.44407  1.0000
  S   S80       1.0  0.02416  0.83154  0.41994  1.0000
  H   H236      1.0  0.16585  0.80600  0.10098  1.0000
  S   S81       1.0  0.45901  0.92550  0.37145  1.0000
  N   N21       1.0  0.11565  0.78377  0.05248  1.0000
  C   C245      1.0  0.12464  0.79854  0.07103  1.0000
  C   C246      1.0  0.14151  0.76513  0.04783  1.0000
  C   C247      1.0  0.15939  0.79436  0.08606  1.0000
  C   C248      1.0  0.17667  0.76047  0.06244  1.0000
  C   C249      1.0  0.18542  0.77513  0.08177  1.0000
  H   H237      1.0  0.06581  0.77221  0.02943  1.0000
  H   H238      1.0  0.10483  0.81363  0.07445  1.0000
  H   H239      1.0  0.13431  0.75331  0.03322  1.0000
  H   H240      1.0  0.17944  0.79308  0.42396  1.0000
  C   C250      1.0  0.46788  0.96985  0.21572  1.0000
  H   H241      1.0  0.02528  0.82951  0.21109  1.0000
  C   C251      1.0  0.43977  0.86199  0.06248  1.0000
  H   H242      1.0  0.43443  0.85353  0.02507  1.0000
  H   H243      1.0  0.22987  0.80574  0.49429  1.0000
  H   H244      1.0  0.38552  0.83646  0.42725  1.0000
  C   C252      1.0  0.35611  0.87641  0.37432  1.0000
  H   H245      1.0  0.05298  0.79696  0.04698  1.0000
  C   C253      1.0  0.17459  0.79415  0.44321  1.0000
  H   H246      1.0  0.40733  0.86842  0.06401  1.0000
  C   C254      1.0  0.45316  0.94597  0.45470  1.0000
  H   H247      1.0  0.10343  0.79158  0.41884  1.0000
  C   C255      1.0  0.37717  0.84717  0.41194  1.0000
  C   C256      1.0  0.46298  0.98536  0.40169  1.0000
  H   H248      1.0  0.34865  0.88822  0.35978  1.0000
  C   C257      1.0  0.46228  0.93422  0.23817  1.0000
  H   H249      1.0  0.27549  0.88996  0.40796  1.0000
  C   C258      1.0  0.28366  0.88155  0.39052  1.0000
  C   C259      1.0  0.44311  0.96130  0.43609  1.0000
  S   S82       1.0  0.01641  0.82775  0.08431  1.0000
  H   H250      1.0  0.09732  0.79040  0.48474  1.0000
  C   C260      1.0  0.20324  0.80152  0.48267  1.0000
  H   H251      1.0  0.09623  0.76549  0.43632  1.0000
  H   H252      1.0  0.41004  0.97846  0.07126  1.0000
  H   H253      1.0  0.21217  0.77158  0.09349  1.0000
  C   C261      1.0  0.36760  0.98672  0.04216  1.0000
  N   N22       1.0  0.13493  0.79106  0.45285  1.0000
  N   N23       1.0  0.49691  0.84681  0.03826  1.0000
  H   H254      1.0  0.41005  0.96571  0.43290  1.0000
  C   C262      1.0  0.45539  0.85373  0.04050  1.0000
  C   C263      1.0  0.46702  0.86328  0.08215  1.0000
  H   H255      1.0  0.42820  0.93860  0.46579  1.0000
  C   C264      1.0  0.12876  0.79288  0.47711  1.0000
  S   S83       1.0  0.15393  0.68611  0.05616  1.0000
  H   H256      1.0  0.50339  0.92687  0.47206  1.0000
  H   H257      1.0  0.45303  0.97473  0.38601  1.0000
  H   H258      1.0  0.24319  0.98506  0.15114  1.0000
  H   H259      1.0  0.15685  0.98871  0.10555  1.0000
  H   H260      1.0  0.17095  0.97436  0.13297  1.0000
  C   C265      1.0  0.48671  0.92074  0.08239  1.0000
  C   C266      1.0  0.23759  0.00192  0.14308  1.0000
  H   H261      1.0  0.43666  0.99730  0.40677  1.0000
  Fe  Fe42      1.0  0.00783  0.79296  0.10178  1.0000
  C   C267      1.0  0.18395  0.98406  0.11736  1.0000
  H   H262      1.0  0.20565  0.97216  0.10737  1.0000
  S   S84       1.0  0.00895  0.76153  0.07665  1.0000
  H   H263      1.0  0.32739  0.00027  0.01433  1.0000
  H   H264      1.0  0.49839  0.87797  0.44115  1.0000
  H   H265      1.0  0.49035  0.99634  0.39612  1.0000
  N   N24       1.0  0.20756  0.00448  0.12556  1.0000
  H   H266      1.0  0.42167  0.76198  0.85005  1.0000
  S   S85       1.0  0.49641  0.69975  0.62471  1.0000
  S   S86       1.0  0.26744  0.92401  0.53410  1.0000
  C   C268      1.0  0.48313  0.98921  0.84005  1.0000
  S   S87       1.0  0.28863  0.80664  0.53816  1.0000
  C   C269      1.0  0.44765  0.74805  0.81738  1.0000
  S   S88       1.0  0.38011  0.98324  0.60698  1.0000
  S   S89       1.0  0.34302  0.86892  0.52233  1.0000
  S   S90       1.0  0.46416  0.70746  0.86864  1.0000
  Fe  Fe43      1.0  0.43473  0.71133  0.60760  1.0000
  H   H267      1.0  0.20073  0.88041  0.58848  1.0000
  S   S91       1.0  0.43402  0.74748  0.59059  1.0000
  C   C270      1.0  0.45174  0.99862  0.82528  1.0000
  H   H268      1.0  0.28554  0.91404  0.59597  1.0000
  C   C271      1.0  0.29499  0.89625  0.59224  1.0000
  H   H269      1.0  0.48280  0.73533  0.78684  1.0000
  S   S92       1.0  0.39421  0.69723  0.63775  1.0000
  S   S93       1.0  0.43088  0.67922  0.58484  1.0000
  H   H270      1.0  0.38128  0.86075  0.59698  1.0000
  C   C272      1.0  0.22371  0.88860  0.57598  1.0000
  Fe  Fe44      1.0  0.47615  0.68701  0.83447  1.0000
  H   H271      1.0  0.47683  0.98625  0.85897  1.0000
  C   C273      1.0  0.44958  0.68917  0.77044  1.0000
  H   H272      1.0  0.35861  0.90145  0.60573  1.0000
  Fe  Fe45      1.0  0.29923  0.83888  0.51528  1.0000
  S   S94       1.0  0.24152  0.86155  0.50910  1.0000
  C   C274      1.0  0.32973  0.78975  0.55164  1.0000
  C   C275      1.0  0.31914  0.76909  0.56364  1.0000
  C   C276      1.0  0.35063  0.75567  0.57527  1.0000
  C   C277      1.0  0.39310  0.76295  0.57529  1.0000
  C   C278      1.0  0.40359  0.78362  0.56327  1.0000
  C   C279      1.0  0.37225  0.79686  0.55138  1.0000
  H   H273      1.0  0.28637  0.76345  0.56406  1.0000
  H   H274      1.0  0.34201  0.73990  0.58453  1.0000
  H   H275      1.0  0.43631  0.78942  0.56315  1.0000
  H   H276      1.0  0.38103  0.81267  0.54222  1.0000
  C   C280      1.0  0.34920  0.96819  0.58532  1.0000
  C   C281      1.0  0.30822  0.97533  0.57890  1.0000
  C   C282      1.0  0.28398  0.96188  0.56277  1.0000
  C   C283      1.0  0.30069  0.94146  0.55249  1.0000
  C   C284      1.0  0.34226  0.93478  0.55825  1.0000
  C   C285      1.0  0.36613  0.94792  0.57479  1.0000
  H   H277      1.0  0.46484  0.79496  0.87095  1.0000
  H   H278      1.0  0.25184  0.96723  0.55846  1.0000
  H   H279      1.0  0.35560  0.91914  0.55047  1.0000
  H   H280      1.0  0.39784  0.94226  0.57960  1.0000
  Fe  Fe46      1.0  0.45585  0.68314  0.65334  1.0000
  H   H281      1.0  0.32986  0.83334  0.57858  1.0000
  C   C286      1.0  0.47153  0.68730  0.72094  1.0000
  C   C287      1.0  0.34916  0.86646  0.59289  1.0000
  C   C288      1.0  0.27928  0.85876  0.57692  1.0000
  H   H282      1.0  0.22010  0.90779  0.57717  1.0000
  C   C289      1.0  0.33645  0.88921  0.59784  1.0000
  H   H283      1.0  0.24448  0.67497  0.60128  1.0000
  H   H284      1.0  0.39696  0.00259  0.56014  1.0000
  C   C290      1.0  0.48961  0.78121  0.86994  1.0000
  H   H285      1.0  0.29470  0.99083  0.58689  1.0000
  H   H286      1.0  0.38498  0.68576  0.75797  1.0000
  N   N25       1.0  0.26719  0.88114  0.58166  1.0000
  C   C291      1.0  0.32035  0.85108  0.58251  1.0000
  H   H287      1.0  0.25731  0.84671  0.56858  1.0000
  N   N26       1.0  0.48796  0.76916  0.84675  1.0000
  H   H288      1.0  0.21571  0.88383  0.55719  1.0000
  S   S95       1.0  0.43412  0.69052  0.80117  1.0000
  H   H289      1.0  0.15783  0.79984  0.51157  1.0000
  C   C292      1.0  0.42893  0.68576  0.72808  1.0000
  H   H290      1.0  0.42077  0.00305  0.83265  1.0000
  H   H291      1.0  0.48457  0.76856  0.88467  1.0000
  C   C293      1.0  0.46069  0.00264  0.80111  1.0000
  C   C294      1.0  0.45009  0.76018  0.83910  1.0000
  C   C295      1.0  0.49217  0.69076  0.76331  1.0000
  S   S96       1.0  0.48799  0.68416  0.69049  1.0000
  H   H292      1.0  0.41779  0.74048  0.81153  1.0000
  Fe  Fe47      1.0  0.28714  0.89159  0.51325  1.0000
  C   C296      1.0  0.50121  0.99740  0.79214  1.0000
  C   C297      1.0  0.48430  0.74501  0.80355  1.0000
  C   C298      1.0  0.41807  0.68686  0.75268  1.0000
  H   H293      1.0  0.45931  0.98568  0.57884  1.0000
  H   H294      1.0  0.40440  0.68360  0.71468  1.0000
  H   H295      1.0  0.06918  0.67345  0.94340  1.0000
  Fe  Fe48      1.0  0.47061  0.67321  0.88775  1.0000
  C   C299      1.0  0.47477  0.00300  0.57922  1.0000
  H   H296      1.0  0.35663  0.67319  0.89289  1.0000
  C   C300      1.0  0.50293  0.69012  0.73872  1.0000
  H   H297      1.0  0.25460  0.67148  0.64521  1.0000
  C   C301      1.0  0.65624  0.12169  0.39730  1.0000
  S   S97       1.0  0.55791  0.31233  0.34092  1.0000
  Fe  Fe49      1.0  0.52711  0.29166  0.37098  1.0000
  S   S98       1.0  0.53299  0.25317  0.38075  1.0000
  C   C302      1.0  0.66763  0.16927  0.39463  1.0000
  C   C303      1.0  0.74099  0.16583  0.40898  1.0000
  H   H298      1.0  0.67304  0.29957  0.05411  1.0000
  C   C304      1.0  0.62847  0.15967  0.38809  1.0000
  Fe  Fe50      1.0  0.66300  0.16599  0.46697  1.0000
  S   S99       1.0  0.72259  0.14434  0.47101  1.0000
  S   S100      1.0  0.66756  0.20069  0.44730  1.0000
  Fe  Fe51      1.0  0.67897  0.11343  0.46627  1.0000
  S   S101      1.0  0.70014  0.08405  0.44122  1.0000
  Fe  Fe52      1.0  0.61240  0.13347  0.49953  1.0000
  S   S102      1.0  0.62096  0.13538  0.45936  1.0000
  H   H299      1.0  0.72080  0.12078  0.40969  1.0000
  C   C305      1.0  0.66656  0.06285  0.42778  1.0000
  C   C306      1.0  0.62269  0.06243  0.43204  1.0000
  C   C307      1.0  0.59710  0.04552  0.42083  1.0000
  C   C308      1.0  0.61485  0.02888  0.40514  1.0000
  C   C309      1.0  0.65869  0.02941  0.40073  1.0000
  C   C310      1.0  0.68435  0.04631  0.41201  1.0000
  H   H300      1.0  0.60849  0.07505  0.44405  1.0000
  H   H301      1.0  0.56325  0.04532  0.42437  1.0000
  H   H302      1.0  0.74808  0.28354  0.05902  1.0000
  H   H303      1.0  0.71823  0.04650  0.40853  1.0000
  H   H304      1.0  0.65221  0.10303  0.39859  1.0000
  H   H305      1.0  0.55683  0.24045  0.45678  1.0000
  H   H306      1.0  0.52370  0.28539  0.23117  1.0000
  H   H307      1.0  0.75957  0.15442  0.42115  1.0000
  C   C311      1.0  0.57072  0.23913  0.39953  1.0000
  C   C312      1.0  0.60776  0.25013  0.40740  1.0000
  C   C313      1.0  0.63678  0.23818  0.42224  1.0000
  C   C314      1.0  0.62867  0.21535  0.42984  1.0000
  C   C315      1.0  0.59112  0.20455  0.42245  1.0000
  C   C316      1.0  0.56268  0.21626  0.40708  1.0000
  H   H308      1.0  0.61438  0.26771  0.40177  1.0000
  H   H309      1.0  0.66579  0.24669  0.42779  1.0000
  H   H310      1.0  0.58434  0.18705  0.42825  1.0000
  H   H311      1.0  0.61336  0.30233  0.02547  1.0000
  N   N27       1.0  0.70001  0.15541  0.40266  1.0000
  H   H312      1.0  0.78585  0.29007  0.03575  1.0000
  N   N28       1.0  0.72052  0.29653  0.02687  1.0000
  S   S103      1.0  0.53362  0.32007  0.39829  1.0000
  H   H313      1.0  0.73608  0.18253  0.41869  1.0000
  C   C317      1.0  0.69497  0.13187  0.40367  1.0000
  H   H314      1.0  0.75988  0.16908  0.39248  1.0000
  C   C318      1.0  0.62273  0.13572  0.38961  1.0000
  H   H315      1.0  0.67287  0.01677  0.38873  1.0000
  C   C319      1.0  0.67956  0.29850  0.03501  1.0000
  H   H316      1.0  0.67173  0.18794  0.39366  1.0000
  H   H317      1.0  0.57957  0.27699  0.47661  1.0000
  C   C320      1.0  0.53800  0.25615  0.45481  1.0000
  H   H318      1.0  0.60266  0.17082  0.38216  1.0000
  C   C321      1.0  0.64568  0.30023  0.01886  1.0000
  H   H319      1.0  0.59239  0.12803  0.38492  1.0000
  H   H320      1.0  0.53403  0.20762  0.40116  1.0000
  C   C322      1.0  0.75550  0.29576  0.04423  1.0000
  C   C323      1.0  0.52642  0.29677  0.46305  1.0000
  H   H321      1.0  0.76042  0.31336  0.05197  1.0000
  H   H322      1.0  0.58412  0.33513  0.09895  1.0000
  S   S104      1.0  0.58053  0.00787  0.39197  1.0000
  H   H323      1.0  0.51557  0.29774  0.27377  1.0000
  H   H324      1.0  0.53596  0.31289  0.47153  1.0000
  C   C324      1.0  0.55076  0.27667  0.46592  1.0000
  S   S105      1.0  0.50867  0.33745  0.06767  1.0000
  Fe  Fe53      1.0  0.56094  0.05168  0.81955  1.0000
  S   S106      1.0  0.58606  0.08544  0.83405  1.0000
  S   S107      1.0  0.55252  0.04553  0.77908  1.0000
  Fe  Fe54      1.0  0.56811  0.02788  0.86936  1.0000
  S   S108      1.0  0.59296  0.06013  0.88727  1.0000
  Fe  Fe55      1.0  0.54291  0.07869  0.86572  1.0000
  Fe  Fe56      1.0  0.63409  0.06425  0.85434  1.0000
  S   S109      1.0  0.70612  0.06975  0.85452  1.0000
  C   C325      1.0  0.53006  0.11204  0.94406  1.0000
  S   S110      1.0  0.61220  0.03057  0.83775  1.0000
  S   S111      1.0  0.66781  0.10961  0.50615  1.0000
  S   S112      1.0  0.96382  0.19726  0.62697  1.0000
  S   S113      1.0  0.94385  0.15168  0.57391  1.0000
  Fe  Fe57      1.0  0.98592  0.17921  0.66061  1.0000
  Fe  Fe58      1.0  0.88124  0.17174  0.86755  1.0000
  S   S114      1.0  0.90198  0.20380  0.84730  1.0000
  S   S115      1.0  0.81022  0.16372  0.86479  1.0000
  Fe  Fe59      1.0  0.97002  0.16534  0.89032  1.0000
  H   H325      1.0  0.58479  0.16279  0.55685  1.0000
  Fe  Fe60      1.0  0.93359  0.21401  0.88199  1.0000
  S   S116      1.0  0.93900  0.24991  0.89911  1.0000
  Fe  Fe61      1.0  0.96145  0.18345  0.83874  1.0000
  H   H326      1.0  0.70293  0.29846  0.96702  1.0000
  S   S117      1.0  0.90991  0.18330  0.90265  1.0000
  S   S118      1.0  0.93901  0.15077  0.85689  1.0000
  S   S119      1.0  0.78834  0.30723  0.94934  1.0000
  C   C326      1.0  0.89041  0.20534  0.54861  1.0000
  H   H327      1.0  0.68141  0.08578  0.80667  1.0000
  C   C327      1.0  0.95521  0.24013  0.71759  1.0000
  S   S120      1.0  0.74629  0.15039  0.54436  1.0000
  H   H328      1.0  0.96501  0.25954  0.67169  1.0000
  C   C328      1.0  0.89678  0.26543  0.91327  1.0000
  C   C329      1.0  0.85522  0.25684  0.91398  1.0000
  C   C330      1.0  0.82257  0.26984  0.92517  1.0000
  C   C331      1.0  0.83103  0.29146  0.93591  1.0000
  C   C332      1.0  0.87273  0.29990  0.93550  1.0000
  C   C333      1.0  0.90535  0.28697  0.92417  1.0000
  H   H329      1.0  0.84807  0.24033  0.90567  1.0000
  H   H330      1.0  0.79046  0.26314  0.92533  1.0000
  H   H331      1.0  0.87974  0.31651  0.94365  1.0000
  H   H332      1.0  0.93732  0.29384  0.92366  1.0000
  C   C334      1.0  0.88852  0.15067  0.56658  1.0000
  C   C335      1.0  0.85685  0.15931  0.58192  1.0000
  C   C336      1.0  0.81370  0.15904  0.57477  1.0000
  C   C337      1.0  0.80147  0.15032  0.55216  1.0000
  C   C338      1.0  0.83315  0.14176  0.53678  1.0000
  C   C339      1.0  0.87625  0.14182  0.54403  1.0000
  H   H333      1.0  0.86562  0.16620  0.59930  1.0000
  H   H334      1.0  0.78960  0.16569  0.58688  1.0000
  H   H335      1.0  0.51611  0.03734  0.55759  1.0000
  H   H336      1.0  0.90035  0.13502  0.53200  1.0000
  C   C340      1.0  0.96089  0.18088  0.72489  1.0000
  H   H337      1.0  0.62953  0.10262  0.61462  1.0000
  C   C341      1.0  0.94205  0.18358  0.76763  1.0000
  C   C342      1.0  0.51553  0.08333  0.57892  1.0000
  C   C343      1.0  0.93034  0.18398  0.74318  1.0000
  H   H338      1.0  0.62817  0.30210  0.98152  1.0000
  C   C344      1.0  0.73426  0.09569  0.86089  1.0000
  C   C345      1.0  0.77902  0.09504  0.86159  1.0000
  C   C346      1.0  0.80291  0.11560  0.86393  1.0000
  C   C347      1.0  0.78216  0.13705  0.86544  1.0000
  C   C348      1.0  0.73737  0.13762  0.86554  1.0000
  C   C349      1.0  0.71349  0.11706  0.86338  1.0000
  H   H339      1.0  0.79535  0.07857  0.85978  1.0000
  H   H340      1.0  0.83731  0.11489  0.86385  1.0000
  H   H341      1.0  0.72105  0.15413  0.86682  1.0000
  H   H342      1.0  0.67910  0.11781  0.86307  1.0000
  C   C350      1.0  0.97530  0.24144  0.67520  1.0000
  H   H343      1.0  0.94312  0.17800  0.95300  1.0000
  C   C351      1.0  0.56513  0.09623  0.54797  1.0000
  C   C352      1.0  0.53454  0.11165  0.53917  1.0000
  S   S121      1.0  0.54617  0.13084  0.51550  1.0000
  H   H344      1.0  0.75481  0.07962  0.80126  1.0000
  S   S122      1.0  0.99546  0.19663  0.87172  1.0000
  H   H345      1.0  0.59628  0.09541  0.53974  1.0000
  C   C353      1.0  0.69587  0.29822  0.98611  1.0000
  C   C354      1.0  0.65401  0.30023  0.99425  1.0000
  H   H346      1.0  0.82442  0.13485  0.51942  1.0000
  H   H347      1.0  0.51640  0.08024  0.96266  1.0000
  C   C355      1.0  0.50791  0.04911  0.75961  1.0000
  C   C356      1.0  0.98458  0.18005  0.77411  1.0000
  N   N29       1.0  0.64809  0.12398  0.58514  1.0000
  C   C357      1.0  0.62024  0.11617  0.60222  1.0000
  C   C358      1.0  0.63600  0.14092  0.56940  1.0000
  C   C359      1.0  0.57882  0.12511  0.60355  1.0000
  H   H348      1.0  0.97775  0.25721  0.94756  1.0000
  H   H349      1.0  0.90166  0.18375  0.51764  1.0000
  H   H350      1.0  0.85618  0.20277  0.54839  1.0000
  C   C360      1.0  0.69143  0.11455  0.58368  1.0000
  Fe  Fe62      1.0  0.98059  0.16481  0.60693  1.0000
  N   N30       1.0  0.97840  0.21007  0.55029  1.0000
  Fe  Fe63      1.0  0.70715  0.14218  0.51043  1.0000
  H   H351      1.0  0.65812  0.14713  0.55595  1.0000
  H   H352      1.0  0.89747  0.18707  0.73838  1.0000
  H   H353      1.0  0.55626  0.11822  0.61648  1.0000
  C   C361      1.0  0.55564  0.08215  0.56781  1.0000
  S   S123      1.0  0.94503  0.18401  0.69440  1.0000
  H   H354      1.0  0.97989  0.18811  0.51943  1.0000
  H   H355      1.0  0.93985  0.23821  0.75539  1.0000
  H   H356      1.0  0.54417  0.03965  0.72815  1.0000
  C   C362      1.0  0.95352  0.22106  0.56703  1.0000
  C   C363      1.0  0.96019  0.19708  0.53250  1.0000
  C   C364      1.0  0.97259  0.21171  0.94976  1.0000
  H   H357      1.0  0.91831  0.18638  0.78144  1.0000
  S   S124      1.0  0.00191  0.18142  0.80449  1.0000
  H   H358      1.0  0.55328  0.10416  0.93203  1.0000
  C   C365      1.0  0.80226  0.10630  0.80311  1.0000
  C   C366      1.0  0.80966  0.13004  0.80559  1.0000
  H   H359      1.0  0.84189  0.13655  0.80732  1.0000
  C   C367      1.0  0.73380  0.13666  0.80581  1.0000
  C   C368      1.0  0.77527  0.14536  0.80690  1.0000
  S   S125      1.0  0.99760  0.14560  0.64089  1.0000
  H   H360      1.0  0.92227  0.24235  0.71229  1.0000
  H   H361      1.0  0.69914  0.10958  0.56485  1.0000
  H   H362      1.0  0.57966  0.07048  0.57475  1.0000
  H   H363      1.0  0.71473  0.12793  0.58944  1.0000
  C   C369      1.0  0.76035  0.09817  0.80224  1.0000
  N   N31       1.0  0.72681  0.11332  0.80377  1.0000
  C   C370      1.0  0.72893  0.29636  0.00276  1.0000
  C   C371      1.0  0.90922  0.21863  0.56663  1.0000
  C   C372      1.0  0.59478  0.15012  0.57010  1.0000
  C   C373      1.0  0.68299  0.10470  0.80284  1.0000
  H   H364      1.0  0.70725  0.14861  0.80752  1.0000
  H   H365      1.0  0.82875  0.09420  0.80273  1.0000
  H   H366      1.0  0.78077  0.16373  0.80986  1.0000
  H   H367      1.0  0.69566  0.09889  0.59499  1.0000
  H   H368      1.0  0.66317  0.11338  0.81679  1.0000
  H   H369      1.0  0.66903  0.10791  0.78487  1.0000
  C   C374      1.0  0.97108  0.18840  0.95668  1.0000
  C   C375      1.0  0.56603  0.14210  0.58727  1.0000
  N   N32       1.0  0.98653  0.23862  0.70056  1.0000
  H   H370      1.0  0.88971  0.22671  0.58039  1.0000
  C   C376      1.0  0.96493  0.23785  0.74197  1.0000
  H   H371      1.0  0.76140  0.29507  0.99622  1.0000
  H   H372      1.0  0.94525  0.21932  0.94079  1.0000
  H   H373      1.0  0.94909  0.22938  0.67040  1.0000
  H   H374      1.0  0.53362  0.14553  0.92728  1.0000
  H   H375      1.0  0.96787  0.23152  0.58102  1.0000
  C   C377      1.0  0.91596  0.19464  0.53131  1.0000
  C   C378      1.0  0.51895  0.13534  0.94138  1.0000
  H   H376      1.0  0.53350  0.14848  0.58742  1.0000
  C   C379      1.0  0.00324  0.17682  0.73138  1.0000
  S   S126      1.0  0.51470  0.04635  0.84990  1.0000
  C   C380      1.0  0.51313  0.04457  0.73493  1.0000
  S   S127      1.0  0.65009  0.16573  0.50656  1.0000
  C   C381      1.0  0.50928  0.09861  0.96122  1.0000
  H   H377      1.0  0.00248  0.23743  0.66305  1.0000
  S   S128      1.0  0.50582  0.06594  0.60427  1.0000
  H   H378      1.0  0.84163  0.66006  0.41583  1.0000
  H   H379      1.0  0.87384  0.42450  0.08843  1.0000
  H   H380      1.0  0.66991  0.37549  0.30195  1.0000
  H   H381      1.0  0.56153  0.42429  0.33275  1.0000
  H   H382      1.0  0.98915  0.43957  0.28466  1.0000
  S   S129      1.0  0.70730  0.35409  0.04801  1.0000
  S   S130      1.0  0.76697  0.64843  0.45670  1.0000
  Fe  Fe64      1.0  0.78738  0.61115  0.46214  1.0000
  S   S131      1.0  0.77330  0.58564  0.43174  1.0000
  S   S132      1.0  0.85243  0.62034  0.47584  1.0000
  Fe  Fe65      1.0  0.74233  0.64703  0.49488  1.0000
  Fe  Fe66      1.0  0.93969  0.42879  0.36013  1.0000
  S   S133      1.0  0.94019  0.46634  0.34976  1.0000
  Fe  Fe67      1.0  0.55979  0.34162  0.36799  1.0000
  Fe  Fe68      1.0  0.84513  0.42341  0.34730  1.0000
  S   S134      1.0  0.83930  0.46112  0.33653  1.0000
  S   S135      1.0  0.79779  0.39384  0.34047  1.0000
  Fe  Fe69      1.0  0.90245  0.45559  0.31752  1.0000
  S   S136      1.0  0.91371  0.46940  0.27948  1.0000
  Fe  Fe70      1.0  0.87807  0.46891  0.36987  1.0000
  S   S137      1.0  0.88095  0.49640  0.39977  1.0000
  S   S138      1.0  0.90621  0.41779  0.32643  1.0000
  S   S139      1.0  0.87973  0.43143  0.38186  1.0000
  S   S140      1.0  0.60833  0.37048  0.37510  1.0000
  H   H383      1.0  0.66075  0.34213  0.09052  1.0000
  C   C382      1.0  0.74581  0.38732  0.35131  1.0000
  C   C383      1.0  0.72696  0.36611  0.34465  1.0000
  C   C384      1.0  0.68541  0.36033  0.35223  1.0000
  C   C385      1.0  0.66201  0.37582  0.36646  1.0000
  C   C386      1.0  0.68090  0.39698  0.37321  1.0000
  C   C387      1.0  0.72252  0.40271  0.36573  1.0000
  C   C388      1.0  0.97527  0.39650  0.41520  1.0000
  Fe  Fe71      1.0  0.74761  0.36264  0.01472  1.0000
  H   H384      1.0  0.66315  0.40911  0.38423  1.0000
  H   H385      1.0  0.73649  0.41906  0.37101  1.0000
  C   C389      1.0  0.88731  0.63240  0.41897  1.0000
  C   C390      1.0  0.95977  0.47325  0.23752  1.0000
  C   C391      1.0  0.95798  0.46312  0.26047  1.0000
  C   C392      1.0  0.98585  0.43887  0.46352  1.0000
  C   C393      1.0  0.54738  0.37381  0.30565  1.0000
  H   H386      1.0  0.93528  0.48544  0.23226  1.0000
  Fe  Fe72      1.0  0.83031  0.65762  0.47254  1.0000
  C   C394      1.0  0.80256  0.56026  0.42391  1.0000
  C   C395      1.0  0.84085  0.55446  0.43518  1.0000
  C   C396      1.0  0.86421  0.53484  0.42751  1.0000
  C   C397      1.0  0.84976  0.52083  0.40847  1.0000
  C   C398      1.0  0.81149  0.52664  0.39719  1.0000
  C   C399      1.0  0.78796  0.54618  0.40498  1.0000
  H   H387      1.0  0.85249  0.56511  0.44975  1.0000
  H   H388      1.0  0.89370  0.53046  0.43641  1.0000
  H   H389      1.0  0.79983  0.51596  0.38264  1.0000
  H   H390      1.0  0.75824  0.55040  0.39623  1.0000
  C   C400      1.0  0.92046  0.39737  0.04073  1.0000
  C   C401      1.0  0.88828  0.40575  0.05582  1.0000
  C   C402      1.0  0.89887  0.41821  0.07672  1.0000
  H   H391      1.0  0.94745  0.39816  0.24796  1.0000
  C   C403      1.0  0.97377  0.41411  0.06746  1.0000
  C   C404      1.0  0.96318  0.40168  0.04655  1.0000
  H   H392      1.0  0.85528  0.40245  0.05157  1.0000
  H   H393      1.0  0.99332  0.47538  0.20360  1.0000
  C   C405      1.0  0.94898  0.41331  0.21251  1.0000
  C   C406      1.0  0.85009  0.64258  0.41036  1.0000
  H   H394      1.0  0.87817  0.57978  0.39206  1.0000
  C   C407      1.0  0.57783  0.34953  0.03995  1.0000
  C   C408      1.0  0.99002  0.44749  0.26709  1.0000
  C   C409      1.0  0.89745  0.60967  0.41235  1.0000
  H   H395      1.0  0.89685  0.45448  0.43277  1.0000
  H   H396      1.0  0.93769  0.44860  0.16478  1.0000
  H   H397      1.0  0.88217  0.41960  0.26023  1.0000
  H   H398      1.0  0.63002  0.34523  0.27932  1.0000
  C   C410      1.0  0.63767  0.34428  0.07631  1.0000
  H   H399      1.0  0.51297  0.37296  0.30695  1.0000
  H   H400      1.0  0.95484  0.38107  0.44851  1.0000
  H   H401      1.0  0.81752  0.57733  0.36826  1.0000
  H   H402      1.0  0.91878  0.43540  0.47092  1.0000
  H   H403      1.0  0.98823  0.39518  0.03498  1.0000
  C   C411      1.0  0.56876  0.35743  0.29146  1.0000
  C   C412      1.0  0.56394  0.34277  0.06296  1.0000
  H   H404      1.0  0.87900  0.45229  0.19120  1.0000
  C   C413      1.0  0.65162  0.35088  0.05327  1.0000
  H   H405      1.0  0.67141  0.34400  0.34691  1.0000
  C   C414      1.0  0.80605  0.59529  0.37180  1.0000
  H   H406      1.0  0.63066  0.40373  0.32708  1.0000
  C   C415      1.0  0.99260  0.46752  0.22119  1.0000
  N   N33       1.0  0.93027  0.42861  0.19701  1.0000
  H   H407      1.0  0.80394  0.60455  0.35441  1.0000
  H   H408      1.0  0.79425  0.63784  0.38884  1.0000
  N   N34       1.0  0.56952  0.39041  0.31796  1.0000
  H   H409      1.0  0.94352  0.39737  0.40778  1.0000
  C   C416      1.0  0.93032  0.45206  0.43698  1.0000
  H   H410      1.0  0.92576  0.60136  0.41941  1.0000
  H   H411      1.0  0.90769  0.64204  0.43114  1.0000
  H   H412      1.0  0.51287  0.40849  0.32864  1.0000
  C   C417      1.0  0.98177  0.38719  0.43820  1.0000
  C   C418      1.0  0.62133  0.35361  0.03512  1.0000
  N   N35       1.0  0.83413  0.60783  0.38829  1.0000
  C   C419      1.0  0.82359  0.62996  0.39506  1.0000
  H   H413      1.0  0.94254  0.41767  0.16116  1.0000
  C   C420      1.0  0.96148  0.45924  0.42069  1.0000
  H   H414      1.0  0.98462  0.43430  0.17507  1.0000
  C   C421      1.0  0.61297  0.39111  0.31664  1.0000
  C   C422      1.0  0.87041  0.59757  0.39683  1.0000
  H   H415      1.0  0.97845  0.40462  0.20761  1.0000
  C   C423      1.0  0.94161  0.42236  0.08265  1.0000
  C   C424      1.0  0.54693  0.40679  0.33368  1.0000
  H   H416      1.0  0.95168  0.46705  0.40392  1.0000
  C   C425      1.0  0.94957  0.43244  0.17337  1.0000
  H   H417      1.0  0.84793  0.44674  0.23171  1.0000
  S   S141      1.0  0.95346  0.43789  0.10917  1.0000
  C   C426      1.0  0.89485  0.42149  0.24218  1.0000
  H   H418      1.0  0.54857  0.40061  0.35254  1.0000
  C   C427      1.0  0.87568  0.43683  0.22615  1.0000
  C   C428      1.0  0.93160  0.40953  0.23531  1.0000
  C   C429      1.0  0.89372  0.44007  0.20341  1.0000
  H   H419      1.0  0.77370  0.59388  0.37982  1.0000
  H   H420      1.0  0.74472  0.35404  0.33357  1.0000
  C   C430      1.0  0.94266  0.44161  0.45843  1.0000
  C   C431      1.0  0.63538  0.37507  0.30253  1.0000
  H   H421      1.0  0.55481  0.35152  0.02570  1.0000
  C   C432      1.0  0.61305  0.35807  0.28996  1.0000
  C   C433      1.0  0.59416  0.34028  0.08116  1.0000
  S   S142      1.0  0.75749  0.60916  0.49891  1.0000
  H   H422      1.0  0.63148  0.35862  0.01732  1.0000
  S   S143      1.0  0.80685  0.34084  0.00957  1.0000
  S   S144      1.0  0.90869  0.38198  0.01412  1.0000
  S   S145      1.0  0.78368  0.39624  0.01107  1.0000
  H   H423      1.0  0.99586  0.43019  0.47985  1.0000
  H   H424      1.0  0.99493  0.55720  0.04460  1.0000
  S   S146      1.0  0.00363  0.41461  0.37227  1.0000
  H   H425      1.0  0.55098  0.34415  0.28199  1.0000
  N   N36       1.0  0.00370  0.45617  0.42561  1.0000
  C   C434      1.0  0.97895  0.52406  0.57303  1.0000
  S   S147      1.0  0.73017  0.36135  0.97564  1.0000
  Fe  Fe73      1.0  0.77082  0.39347  0.97141  1.0000
  S   S148      1.0  0.74981  0.42634  0.95185  1.0000
  H   H426      1.0  0.83626  0.41924  0.93376  1.0000
  S   S149      1.0  0.83025  0.37337  0.96283  1.0000
  H   H427      1.0  0.91117  0.47529  0.84241  1.0000
  Fe  Fe74      1.0  0.88336  0.54587  0.82137  1.0000
  S   S150      1.0  0.88811  0.58234  0.83562  1.0000
  S   S151      1.0  0.89833  0.53014  0.78441  1.0000
  Fe  Fe75      1.0  0.86705  0.52529  0.87201  1.0000
  S   S152      1.0  0.87138  0.56028  0.88988  1.0000
  S   S153      1.0  0.87391  0.48968  0.88964  1.0000
  Fe  Fe76      1.0  0.83117  0.57317  0.85879  1.0000
  S   S154      1.0  0.78240  0.60156  0.86829  1.0000
  Fe  Fe77      1.0  0.92698  0.56722  0.86567  1.0000
  S   S155      1.0  0.99331  0.58005  0.87491  1.0000
  S   S156      1.0  0.82350  0.53741  0.84237  1.0000
  S   S157      1.0  0.92568  0.53154  0.84993  1.0000
  C   C435      1.0  0.89449  0.47304  0.82496  1.0000
  C   C436      1.0  0.98224  0.60606  0.94253  1.0000
  S   S158      1.0  0.58832  0.62708  0.84438  1.0000
  C   C437      1.0  0.58554  0.64101  0.75441  1.0000
  H   H428      1.0  0.52126  0.63810  0.51898  1.0000
  H   H429      1.0  0.97076  0.59261  0.73937  1.0000
  S   S159      1.0  0.84374  0.60479  0.54720  1.0000
  C   C438      1.0  0.96613  0.53620  0.72198  1.0000
  C   C439      1.0  0.77774  0.48502  0.81858  1.0000
  C   C440      1.0  0.64175  0.63803  0.54026  1.0000
  C   C441      1.0  0.52234  0.63643  0.73037  1.0000
  H   H430      1.0  0.64461  0.62587  0.91664  1.0000
  C   C442      1.0  0.82403  0.45342  0.99428  1.0000
  H   H431      1.0  0.69732  0.63273  0.60041  1.0000
  N   N37       1.0  0.54495  0.63663  0.93737  1.0000
  H   H432      1.0  0.99461  0.51303  0.58610  1.0000
  H   H433      1.0  0.85331  0.44858  0.85792  1.0000
  N   N38       1.0  0.84835  0.47240  0.82881  1.0000
  C   C443      1.0  0.97214  0.59600  0.92024  1.0000
  C   C444      1.0  0.58015  0.65058  0.56427  1.0000
  H   H434      1.0  0.90394  0.48789  0.81344  1.0000
  Fe  Fe78      1.0  0.54844  0.65837  0.85655  1.0000
  H   H435      1.0  0.66569  0.62508  0.53611  1.0000
  H   H436      1.0  0.51287  0.62403  0.81045  1.0000
  C   C445      1.0  0.72868  0.60842  0.86072  1.0000
  C   C446      1.0  0.70355  0.59400  0.84635  1.0000
  C   C447      1.0  0.66091  0.60014  0.84130  1.0000
  C   C448      1.0  0.64287  0.62078  0.85041  1.0000
  C   C449      1.0  0.66801  0.63524  0.86469  1.0000
  C   C450      1.0  0.71053  0.62904  0.86984  1.0000
  H   H437      1.0  0.71692  0.57809  0.83924  1.0000
  H   H438      1.0  0.64177  0.58874  0.83033  1.0000
  H   H439      1.0  0.65475  0.65118  0.87181  1.0000
  H   H440      1.0  0.72967  0.64038  0.88090  1.0000
  S   S160      1.0  0.54436  0.64482  0.58832  1.0000
  H   H441      1.0  0.51612  0.66879  0.94634  1.0000
  C   C451      1.0  0.93010  0.61331  0.54225  1.0000
  C   C452      1.0  0.89746  0.60433  0.55654  1.0000
  C   C453      1.0  0.90778  0.59375  0.57847  1.0000
  C   C454      1.0  0.95042  0.59170  0.58588  1.0000
  H   H442      1.0  0.74679  0.63002  0.54961  1.0000
  Fe  Fe79      1.0  0.79161  0.34137  0.97021  1.0000
  H   H443      1.0  0.88270  0.58681  0.58965  1.0000
  H   H444      1.0  0.95794  0.58334  0.60270  1.0000
  C   C455      1.0  0.69634  0.64966  0.59201  1.0000
  C   C456      1.0  0.92764  0.54221  0.76000  1.0000
  C   C457      1.0  0.93820  0.56574  0.75907  1.0000
  C   C458      1.0  0.61109  0.63379  0.55827  1.0000
  H   H445      1.0  0.83448  0.49591  0.80029  1.0000
  C   C459      1.0  0.83216  0.45863  0.84657  1.0000
  C   C460      1.0  0.78385  0.44332  0.93358  1.0000
  C   C461      1.0  0.76960  0.46504  0.92527  1.0000
  C   C462      1.0  0.79649  0.47949  0.91162  1.0000
  C   C463      1.0  0.83782  0.47220  0.90601  1.0000
  C   C464      1.0  0.85166  0.45025  0.91379  1.0000
  C   C465      1.0  0.82497  0.43594  0.92761  1.0000
  H   H446      1.0  0.73777  0.47086  0.92976  1.0000
  H   H447      1.0  0.78537  0.49630  0.90567  1.0000
  H   H448      1.0  0.88350  0.44438  0.90942  1.0000
  C   C466      1.0  0.93450  0.52575  0.57333  1.0000
  H   H449      1.0  0.52537  0.59791  0.89298  1.0000
  C   C467      1.0  0.98309  0.60050  0.57151  1.0000
  N   N39       1.0  0.72506  0.65532  0.57448  1.0000
  C   C468      1.0  0.86084  0.43970  0.99402  1.0000
  C   C469      1.0  0.64161  0.65909  0.52785  1.0000
  C   C470      1.0  0.58829  0.63811  0.93533  1.0000
  C   C471      1.0  0.82228  0.47333  0.98017  1.0000
  N   N40       1.0  0.00231  0.53637  0.55671  1.0000
  C   C472      1.0  0.52239  0.62242  0.92237  1.0000
  C   C473      1.0  0.61027  0.62458  0.91845  1.0000
  C   C474      1.0  0.89340  0.46511  0.96604  1.0000
  H   H450      1.0  0.85580  0.49449  0.95454  1.0000
  H   H451      1.0  0.57652  0.63767  0.79249  1.0000
  C   C475      1.0  0.56591  0.64067  0.73195  1.0000
  H   H452      1.0  0.93312  0.50937  0.74155  1.0000
  C   C476      1.0  0.78841  0.45823  0.85123  1.0000
  C   C477      1.0  0.58757  0.60974  0.90343  1.0000
  H   H453      1.0  0.60605  0.65003  0.94655  1.0000
  H   H454      1.0  0.61932  0.64458  0.75590  1.0000
  C   C478      1.0  0.52243  0.65157  0.95459  1.0000
  C   C479      1.0  0.76111  0.47163  0.83719  1.0000
  H   H455      1.0  0.75688  0.49564  0.80763  1.0000
  H   H456      1.0  0.72718  0.47174  0.84087  1.0000
  C   C480      1.0  0.75708  0.63835  0.56662  1.0000
  H   H457      1.0  0.92282  0.41290  0.97199  1.0000
  H   H458      1.0  0.94448  0.42754  0.99775  1.0000
  S   S161      1.0  0.68149  0.66627  0.50637  1.0000
  C   C481      1.0  0.97275  0.61145  0.54977  1.0000
  C   C482      1.0  0.96268  0.57438  0.73981  1.0000
  H   H459      1.0  0.90535  0.45670  0.81631  1.0000
  C   C483      1.0  0.85729  0.47939  0.96611  1.0000
  C   C484      1.0  0.94135  0.52757  0.74119  1.0000
  C   C485      1.0  0.82172  0.48512  0.81453  1.0000
  H   H460      1.0  0.77602  0.44798  0.86600  1.0000
  C   C486      1.0  0.56114  0.63709  0.77504  1.0000
  H   H461      1.0  0.92251  0.62154  0.52536  1.0000
  H   H462      1.0  0.76245  0.62452  0.58015  1.0000
  H   H463      1.0  0.93921  0.59408  0.91497  1.0000
  H   H464      1.0  0.99784  0.61838  0.53859  1.0000
  C   C487      1.0  0.00205  0.56429  0.81302  1.0000
  H   H465      1.0  0.99793  0.65738  0.93577  1.0000
  H   H466      1.0  0.98589  0.64485  0.90730  1.0000
  C   C488      1.0  0.54334  0.60880  0.90518  1.0000
  N   N41       1.0  0.89475  0.44553  0.97988  1.0000
  H   H467      1.0  0.92732  0.57735  0.77310  1.0000
  H   H468      1.0  0.91975  0.46952  0.95433  1.0000
  H   H469      1.0  0.61190  0.61754  0.56794  1.0000
  H   H470      1.0  0.95814  0.43715  0.96802  1.0000
  H   H471      1.0  0.95687  0.61178  0.95435  1.0000
  H   H472      1.0  0.50932  0.61294  0.55412  1.0000
  C   C489      1.0  0.93201  0.43016  0.97928  1.0000
  H   H473      1.0  0.64050  0.66050  0.61199  1.0000
  C   C490      1.0  0.93808  0.55202  0.53979  1.0000
  N   N42       1.0  0.51844  0.63282  0.77328  1.0000
  H   H474      1.0  0.91616  0.51637  0.58664  1.0000
  H   H475      1.0  0.00106  0.56049  0.52776  1.0000
  S   S162      1.0  0.80469  0.65898  0.51034  1.0000
  H   H476      1.0  0.78835  0.64682  0.56355  1.0000
  H   H477      1.0  0.87962  0.54176  0.55684  1.0000
  C   C491      1.0  0.66428  0.66532  0.59875  1.0000
  H   H478      1.0  0.79334  0.48365  0.97960  1.0000
  H   H479      1.0  0.60415  0.59938  0.89003  1.0000
  Fe  Fe80      1.0  0.82151  0.62113  0.51228  1.0000
  Fe  Fe81      1.0  0.84096  0.37434  0.00277  1.0000
  H   H480      1.0  0.92241  0.56344  0.52707  1.0000
  C   C492      1.0  0.91402  0.53984  0.55657  1.0000
  H   H481      1.0  0.97695  0.52466  0.70788  1.0000
  H   H482      1.0  0.54121  0.65399  0.97126  1.0000
  H   H483      1.0  0.58408  0.64426  0.71580  1.0000
  C   C493      1.0  0.97725  0.55969  0.72127  1.0000
  H   H484      1.0  0.96748  0.56153  0.81010  1.0000
  C   C494      1.0  0.98249  0.55026  0.54027  1.0000
  H   H485      1.0  0.50650  0.63708  0.71306  1.0000
  H   H486      1.0  0.86198  0.42415  0.00491  1.0000
  H   H487      1.0  0.79660  0.44829  0.00485  1.0000
  N   N43       1.0  0.58536  0.93049  0.23478  1.0000
  C   C495      1.0  0.91759  0.91407  0.34879  1.0000
  S   S163      1.0  0.95195  0.80806  0.18671  1.0000
  C   C496      1.0  0.52401  0.84832  0.05738  1.0000
  S   S164      1.0  0.59315  0.89422  0.05149  1.0000
  H   H488      1.0  0.57437  0.89558  0.24571  1.0000
  H   H489      1.0  0.51453  0.89949  0.40358  1.0000
  Fe  Fe82      1.0  0.61686  0.93220  0.34210  1.0000
  S   S165      1.0  0.62035  0.96974  0.33034  1.0000
  S   S166      1.0  0.66668  0.90453  0.33197  1.0000
  H   H490      1.0  0.52145  0.90009  0.01876  1.0000
  H   H491      1.0  0.53145  0.85845  0.09444  1.0000
  Fe  Fe83      1.0  0.55600  0.96328  0.31345  1.0000
  S   S167      1.0  0.53785  0.97837  0.27684  1.0000
  Fe  Fe84      1.0  0.58533  0.97774  0.36502  1.0000
  S   S168      1.0  0.55408  0.92570  0.32336  1.0000
  S   S169      1.0  0.58563  0.94048  0.37783  1.0000
  S   S170      1.0  0.94660  0.80394  0.11950  1.0000
  S   S171      1.0  0.90150  0.86111  0.09063  1.0000
  Fe  Fe85      1.0  0.89454  0.84582  0.36726  1.0000
  S   S172      1.0  0.88849  0.81729  0.34002  1.0000
  S   S173      1.0  0.84770  0.87542  0.37547  1.0000
  C   C497      1.0  0.52708  0.94821  0.44325  1.0000
  Fe  Fe86      1.0  0.98009  0.82617  0.38737  1.0000
  Fe  Fe87      1.0  0.95879  0.82200  0.33351  1.0000
  H   H492      1.0  0.98706  0.90211  0.32421  1.0000
  Fe  Fe88      1.0  0.90877  0.79333  0.37018  1.0000
  S   S174      1.0  0.86589  0.76207  0.37725  1.0000
  S   S175      1.0  0.96372  0.85248  0.35909  1.0000
  S   S176      1.0  0.91100  0.82179  0.39753  1.0000
  H   H493      1.0  0.85237  0.89453  0.32562  1.0000
  H   H494      1.0  0.99137  0.87743  0.28783  1.0000
  C   C498      1.0  0.94357  0.81092  0.25996  1.0000
  H   H495      1.0  0.82883  0.85012  0.11963  1.0000
  H   H496      1.0  0.61843  0.89890  0.28254  1.0000
  H   H497      1.0  0.87243  0.79624  0.16566  1.0000
  C   C499      1.0  0.71651  0.89650  0.34480  1.0000
  C   C500      1.0  0.73423  0.90834  0.36430  1.0000
  C   C501      1.0  0.77419  0.90151  0.37350  1.0000
  C   C502      1.0  0.79689  0.88274  0.36346  1.0000
  C   C503      1.0  0.77914  0.87082  0.34403  1.0000
  C   C504      1.0  0.73925  0.87770  0.33478  1.0000
  H   H498      1.0  0.71729  0.92286  0.37219  1.0000
  H   H499      1.0  0.78762  0.91095  0.38848  1.0000
  H   H500      1.0  0.79619  0.85644  0.33597  1.0000
  H   H501      1.0  0.72589  0.86841  0.31969  1.0000
  H   H502      1.0  0.60021  0.96607  0.22855  1.0000
  H   H503      1.0  0.90578  0.79870  0.23018  1.0000
  C   C505      1.0  0.85547  0.80179  0.14970  1.0000
  C   C506      1.0  0.87270  0.70692  0.43718  1.0000
  C   C507      1.0  0.90692  0.72221  0.43342  1.0000
  C   C508      1.0  0.90512  0.73946  0.41551  1.0000
  C   C509      1.0  0.86926  0.74137  0.40082  1.0000
  C   C510      1.0  0.83476  0.72633  0.40481  1.0000
  C   C511      1.0  0.83623  0.70937  0.42302  1.0000
  H   H504      1.0  0.93524  0.72054  0.44429  1.0000
  H   H505      1.0  0.93188  0.75090  0.41270  1.0000
  H   H506      1.0  0.80675  0.72772  0.39364  1.0000
  H   H507      1.0  0.84585  0.84363  0.45384  1.0000
  C   C512      1.0  0.54151  0.90586  0.05518  1.0000
  C   C513      1.0  0.52890  0.91366  0.07803  1.0000
  C   C514      1.0  0.61508  0.91352  0.27042  1.0000
  C   C515      1.0  0.98170  0.82136  0.26704  1.0000
  C   C516      1.0  0.63004  0.95335  0.26052  1.0000
  H   H508      1.0  0.55165  0.91369  0.09258  1.0000
  C   C517      1.0  0.00233  0.82434  0.22454  1.0000
  H   H509      1.0  0.75915  0.83906  0.38501  1.0000
  C   C518      1.0  0.50942  0.85639  0.07964  1.0000
  C   C519      1.0  0.80018  0.84484  0.03282  1.0000
  C   C520      1.0  0.83568  0.83015  0.03578  1.0000
  C   C521      1.0  0.86669  0.83467  0.05348  1.0000
  C   C522      1.0  0.86297  0.85423  0.06827  1.0000
  C   C523      1.0  0.82732  0.86885  0.06544  1.0000
  C   C524      1.0  0.79597  0.86414  0.04796  1.0000
  C   C525      1.0  0.88289  0.89111  0.31722  1.0000
  H   H510      1.0  0.89381  0.82321  0.05543  1.0000
  H   H511      1.0  0.82397  0.88400  0.07681  1.0000
  H   H512      1.0  0.76892  0.87564  0.04594  1.0000
  Fe  Fe89      1.0  0.95769  0.83918  0.10412  1.0000
  H   H513      1.0  0.85560  0.86932  0.28969  1.0000
  C   C526      1.0  0.83985  0.78496  0.13389  1.0000
  H   H514      1.0  0.64401  0.96997  0.26508  1.0000
  S   S177      1.0  0.97895  0.79579  0.36164  1.0000
  C   C527      1.0  0.93512  0.80707  0.23536  1.0000
  H   H515      1.0  0.88483  0.92056  0.35252  1.0000
  C   C528      1.0  0.60505  0.95104  0.23991  1.0000
  C   C529      1.0  0.81976  0.79191  0.11277  1.0000
  S   S178      1.0  0.99520  0.85177  0.13627  1.0000
  C   C530      1.0  0.56093  0.92809  0.21251  1.0000
  H   H516      1.0  0.90400  0.84559  0.15387  1.0000
  H   H517      1.0  0.87285  0.83607  0.17909  1.0000
  S   S179      1.0  0.52187  0.97436  0.34682  1.0000
  C   C531      1.0  0.92365  0.87225  0.28602  1.0000
  H   H518      1.0  0.83135  0.77080  0.43888  1.0000
  H   H519      1.0  0.56000  0.94294  0.44550  1.0000
  C   C532      1.0  0.96447  0.81364  0.21746  1.0000
  H   H520      1.0  0.92083  0.80556  0.27343  1.0000
  N   N44       1.0  0.85115  0.82489  0.14461  1.0000
  H   H521      1.0  0.85302  0.85883  0.16008  1.0000
  C   C533      1.0  0.83123  0.83183  0.12402  1.0000
  S   S180      1.0  0.63828  0.84332  0.01427  1.0000
  C   C534      1.0  0.59017  0.91183  0.24968  1.0000
  H   H522      1.0  0.84445  0.76668  0.13771  1.0000
  C   C535      1.0  0.96064  0.88169  0.29571  1.0000
  C   C536      1.0  0.88447  0.87692  0.29683  1.0000
  H   H523      1.0  0.54610  0.94487  0.20728  1.0000
  N   N45       1.0  0.91935  0.90027  0.32665  1.0000
  C   C537      1.0  0.81518  0.81549  0.10782  1.0000
  H   H524      1.0  0.92562  0.86090  0.27047  1.0000
  H   H525      1.0  0.50505  0.99679  0.23263  1.0000
  H   H526      1.0  0.54282  0.82899  0.01638  1.0000
  C   C538      1.0  0.63516  0.93442  0.27578  1.0000
  C   C539      1.0  0.87104  0.84223  0.16021  1.0000
  H   H527      1.0  0.85774  0.80238  0.46543  1.0000
  H   H528      1.0  0.82329  0.91173  0.02219  1.0000
  H   H529      1.0  0.83942  0.81521  0.02415  1.0000
  H   H530      1.0  0.80372  0.82529  0.37012  1.0000
  N   N46       1.0  0.79779  0.81721  0.40692  1.0000
  C   C540      1.0  0.81230  0.83472  0.42134  1.0000
  C   C541      1.0  0.80413  0.79453  0.41317  1.0000
  C   C542      1.0  0.83362  0.82969  0.44274  1.0000
  C   C543      1.0  0.82548  0.78886  0.43437  1.0000
  C   C544      1.0  0.84036  0.80658  0.44920  1.0000
  C   C545      1.0  0.77831  0.82284  0.38377  1.0000
  H   H531      1.0  0.80835  0.85271  0.41603  1.0000
  H   H532      1.0  0.79369  0.78061  0.40145  1.0000
  H   H533      1.0  0.80042  0.82114  0.09121  1.0000
  H   H534      1.0  0.80934  0.69804  0.42589  1.0000
  C   C546      1.0  0.51591  0.96362  0.42496  1.0000
  H   H535      1.0  0.75683  0.80878  0.37757  1.0000
  H   H536      1.0  0.65407  0.93604  0.29196  1.0000
  C   C547      1.0  0.95796  0.89557  0.31628  1.0000
  H   H537      1.0  0.80840  0.77908  0.10004  1.0000
  S   S181      1.0  0.87792  0.68470  0.45917  1.0000
  S   S182      1.0  0.99421  0.82697  0.29776  1.0000
  Fe  Fe90      1.0  0.61870  0.88079  0.01598  1.0000
  H   H538      1.0  0.54062  0.97023  0.41329  1.0000
  H   H539      1.0  0.58198  0.92209  0.19772  1.0000
  C   C548      1.0  0.51198  0.90592  0.03645  1.0000
  H   H540      1.0  0.53430  0.91561  0.21469  1.0000
  H   H541      1.0  0.55754  0.84417  0.05528  1.0000
  Fe  Fe91      1.0  0.98622  0.81571  0.15103  1.0000
  H   H542      1.0  0.92732  0.90315  0.36426  1.0000
  H   H543      1.0  0.93893  0.92934  0.34758  1.0000
  Fe  Fe92      1.0  0.52375  0.93715  0.35801  1.0000
  S   S183      1.0  0.76404  0.83924  0.00886  1.0000
  C   C549      1.0  0.51301  0.83932  0.01477  1.0000
  H   H544      1.0  0.77630  0.94252  0.00522  1.0000
  Fe  Fe93      1.0  0.65325  0.89111  0.96617  1.0000
  S   S184      1.0  0.58834  0.88075  0.97947  1.0000
  S   S185      1.0  0.67071  0.91883  0.93858  1.0000
  Fe  Fe94      1.0  0.61279  0.84383  0.97648  1.0000
  S   S186      1.0  0.56722  0.81430  0.96664  1.0000
  S   S187      1.0  0.67602  0.85416  0.96084  1.0000
  H   H545      1.0  0.82475  0.85197  0.96598  1.0000
  S   S188      1.0  0.68223  0.89374  0.00311  1.0000
  H   H546      1.0  0.52103  0.78955  0.87303  1.0000
  H   H547      1.0  0.62549  0.78156  0.89112  1.0000
  C   C550      1.0  0.60972  0.67555  0.53329  1.0000
  H   H548      1.0  0.60917  0.69187  0.52374  1.0000
  S   S189      1.0  0.54686  0.69166  0.83559  1.0000
  C   C551      1.0  0.57337  0.76101  0.90448  1.0000
  C   C552      1.0  0.60224  0.77962  0.90532  1.0000
  C   C553      1.0  0.60134  0.79584  0.92436  1.0000
  C   C554      1.0  0.57116  0.79379  0.94272  1.0000
  C   C555      1.0  0.54225  0.77518  0.94187  1.0000
  C   C556      1.0  0.54346  0.75881  0.92297  1.0000
  H   H549      1.0  0.58505  0.99850  0.78523  1.0000
  H   H550      1.0  0.62371  0.81006  0.92469  1.0000
  N   N47       1.0  0.53225  0.98895  0.80694  1.0000
  C   C557      1.0  0.76323  0.92323  0.97295  1.0000
  C   C558      1.0  0.63666  0.94031  0.92590  1.0000
  C   C559      1.0  0.65449  0.95780  0.91147  1.0000
  C   C560      1.0  0.62865  0.97492  0.90067  1.0000
  C   C561      1.0  0.58451  0.97458  0.90398  1.0000
  C   C562      1.0  0.56668  0.95708  0.91839  1.0000
  C   C563      1.0  0.59256  0.94013  0.92941  1.0000
  H   H551      1.0  0.68853  0.95813  0.90860  1.0000
  C   C564      1.0  0.78237  0.92667  0.99522  1.0000
  C   C565      1.0  0.80171  0.86371  0.95691  1.0000
  H   H552      1.0  0.57833  0.92680  0.94041  1.0000
  C   C566      1.0  0.72239  0.67624  0.56304  1.0000
  H   H553      1.0  0.55447  0.77270  0.83970  1.0000
  H   H554      1.0  0.74210  0.93632  0.96552  1.0000
  H   H555      1.0  0.51681  0.69266  0.77668  1.0000
  H   H556      1.0  0.53596  0.69147  0.73340  1.0000
  C   C567      1.0  0.52344  0.98440  0.83051  1.0000
  H   H557      1.0  0.52096  0.74465  0.92261  1.0000
  H   H558      1.0  0.81320  0.86707  0.93840  1.0000
  H   H559      1.0  0.59894  0.98273  0.81161  1.0000
  H   H560      1.0  0.74372  0.68025  0.54829  1.0000
  H   H561      1.0  0.77094  0.85430  0.95610  1.0000
  H   H562      1.0  0.57432  0.96766  0.78675  1.0000
  C   C568      1.0  0.77021  0.90239  0.96059  1.0000
  H   H563      1.0  0.53259  0.95663  0.92107  1.0000
  S   S190      1.0  0.57426  0.74205  0.87915  1.0000
  H   H564      1.0  0.64288  0.98823  0.88964  1.0000
  H   H565      1.0  0.55177  0.75131  0.80124  1.0000
  C   C569      1.0  0.66159  0.68677  0.58732  1.0000
  H   H566      1.0  0.54784  0.97744  0.84226  1.0000
  C   C570      1.0  0.57472  0.98410  0.79715  1.0000
  C   C571      1.0  0.69081  0.69232  0.56936  1.0000
  Fe  Fe95      1.0  0.70006  0.85621  0.99908  1.0000
  H   H567      1.0  0.75427  0.89960  0.94356  1.0000
  N   N48       1.0  0.79596  0.88558  0.97003  1.0000
  H   H568      1.0  0.55555  0.68443  0.55571  1.0000
  H   H569      1.0  0.51977  0.85468  0.00345  1.0000
  S   S191      1.0  0.55008  0.99499  0.88986  1.0000
  Fe  Fe96      1.0  0.53561  0.70931  0.87148  1.0000
  C   C572      1.0  0.81536  0.88895  0.99173  1.0000
  H   H570      1.0  0.68790  0.70850  0.55960  1.0000
  H   H571      1.0  0.63588  0.69869  0.59175  1.0000
  H   H572      1.0  0.51875  0.77341  0.95596  1.0000
  H   H573      1.0  0.99532  0.67573  0.90946  1.0000
  S   S192      1.0  0.54207  0.67616  0.89241  1.0000
  H   H574      1.0  0.50813  0.00086  0.77340  1.0000
  H   H575      1.0  0.83540  0.87554  0.99939  1.0000
  C   C573      1.0  0.52414  0.76618  0.83333  1.0000
  C   C574      1.0  0.52288  0.75403  0.81158  1.0000
  H   H576      1.0  0.50967  0.00029  0.57760  1.0000
  C   C575      1.0  0.57924  0.67138  0.55143  1.0000
  C   C576      1.0  0.80868  0.90945  0.00471  1.0000
