data_image0
_chemical_formula_structural       H4SHFeS2FeS2FeSFeS3FeS2FeS2FeSFeS5H2FeSH2C5H5CHC7H3C6H4C3HCHCHC2FeH2C2HC4HSH4C2H3C2H2CNC5HC2H3C3NHCHNC2FeCHCH2C2FeCHNC5H6SH2C4H2SCH2CSCH3NH2CHCH3CHCHC2H4CH2CH2FeSCHSHFeSHCFeS2FeS2FeSFeS3FeS2FeSHFeSFeS3HC6H4C3HCH2C4HCNC6H2SHC2HCHSHC5HCH3C5H6CNHCNHCSCFeH2CHCH3C2H2CH2NHCH3SHSC2H3CHC2HCNCHNC3H3C2H2CHNCH3SFeHCHC3HC2H2FeH2S2FeSCFeS2FeSFeS3FeS3FeS2FeS2FeSFeHS2HCHCH2CH2C3H3CHC3H2CHCHCHC7H4C6H3CH2SC4SC2HCH2CHC2H2CH2C2HCH2FeH2CHSCH2CHCH2SNHC4HNCHNCHNCSHC3H3CH5C4H2SC2H3C2H3FeHC3HCHC3HC3HCSHFeCSFeS2FeHFeHS2FeCSHCSFeS2FeS2FeSFeS3C2H2C3HC7NH2CHC6H5CHCHCHC5H3C7SHC4HNC6H17N2HCSCHSH5NH2CH4CHCFeHSH3C2SHCHNHC2FeCH2C2HCH3SHCHCHC2SH3C2HCNC3H2SC2H2SCSCNHFeSHFeS2FeSHFeSFeS3FeSCFeS2FeCFeS3HC6H4C2H2C2HC3H3C6H5C4H3CHC2FeSCHC2H2C5H7CHNHFeCH2C3HC2H2CHNCH2C3H2CHSH5C2H3SH2NH2SC4H2C2H2NC2HCHSHSCSCHCH2CNH2C3HCHSFeS2FeS2FeSFeS3FeS2FeSCFeSFeS3CFeHSHCHSH3C3H2CHC2SC3HCH2C6H6NHNHNHC4HC2HC4HCH2C2H2C4H4C2FeC3HC3HCH2CHSH2NCHCHC2HCHCH3C2HC3SH2NC5FeH2SH2CHNCH2SCH5NCHFeH3CHCH5C3H4CH2C2SH2CSFeSFeS2FeS2FeHFeHS2FeCSFeSFeS2FeS2FeSFeS3H2C4HC7H3NC7H4C4H2C5H4C4H3C2HNHSC3HC3H5CSCHSFeCSCHCHC2NH4C2H2CH2C2FeH5CHC2NC6H8NHC3SCH2CH2CHNCH6SCHCH2SFeS2FeS2FeSFeCS2HSHSFeS2FeS2FeSFeS3HCHCH3C6H2C8HCH3C7H5C4SH4C4NCH3SHC2HCSH2NH2C3FeC2HCFeC2H5FeCH3CH3CHC4HCHCHCHSHC3FeNCSC2H4CNH3CH2CHC2HFeHCSH3CH2CHCNH4NCH2C2H3SFeSFeSHFeS2FeSFeS3Fe2SCS2FeS2FeS2FeSFeS3C3H2CHC4NCHC3H2C6H4C4HCHC6H5C6H2CNC6H10CH2CH9SHCHC3H2C2HNHC2HC2H2CHCNHSH2C4SCH2CNCHCHC2H5NH2CHC2H2CHSCHCNHCFeS2FeS2FeS2FeHFeS4HFeSFeS2FeS2FeSFeS3C2HC7H3C2SHC3HCH3C2HC6H4CH2C4H2CHC5HSC2HCSNH3NH3CSC3HCH2CHNHCNH2C2H2CH2C4HNC6H9FeH2CH4CH3CHC2HFeH2SCH2CHC2SCHNCHFeSHSFeSCFeS2FeS2FeSFeS3FeS2FeS2FeSFeHS2CH2C6H4C3HCHC2HCHFeHC6H3C5HCHSCHC2HCH2SHC3H4C2NC6H8CHSH4C2HNHNC2H2CHCH3CH2CSH2C2NC2NCHCSCHCHC2HC3H3CH2CH2CFeCHCH2C2HSH2CHFeS2FeS2FeSFeS3FeS2FeSHFeSFeSCS4FeSC5HCHSC6HCH2C6H5C2HC3H3SCHCHC2HCH2C6HCH2CHCH5CH5C2HNCH5CH2CSC2HNC2HCHCH3CHSH3NC3HCHNHCHFeNHCH2CH3CH2C2H2FeCFeC2SHC2HC2HNC2H3C4SFeSFeS2FeS2FeNFeCS2FeSHSFeS2FeS2FeSFeS3CH2C5H4C2HCSC6HCH2C6H4CH2C4H3C3SC2H4CNHCH4C3H2CH3CH2CNSCH4C2H5C2H4C2HCHC3H3CHNCHS3H2CNHCFeC3H2NHNCH3C5HCFeHC2NC2FeH4SCFeS2FeSHFeSFeSFeSFeHSFeS2FeS2FeS2FeSFeS3CNC2HC6H2C2HCH2C6H5C5H2C6H3C5SH3FeH2CNCHC2H3SH2SHC5HCH3C2H5NC4HCH2CSCH5CH4CHC3SH3CHCNC3H2NH4CSH4C4HS2CSFeCFeS2FeS2FeSFeHS2FeS2FeS2FeCFeS3CSCFeSC5H2C3HC2HCHCHC6H8CH2C3H2SH2CHC6NSH2C8H3CHCH3CHCNCNHCHCH2SCHSC2HCHCHC2H2CH3NH6CH4C2HFeNC3H5SCHCNC2H2CH2CH3FeC2HCH3CH3CHCH3CH4S2FeSCFeS2FeS2FeSFeS3FeSCFeS2FeSFeS3C6H4SC3H7C2H3C6H2CHC4HC7H2CHC3HSCHC3H2SHCNH3CHFeNC6H10CFeC3H2C3NSC3FeHNCH3CH3SCH3CNCHSC2HC2HC2H2CH
_chemical_formula_sum              "H1152 S384 Fe192 C1152 N96"
_cell_length_a       82.2502
_cell_length_b       82.0011
_cell_length_c       32.8991
_cell_angle_alpha    88.5792
_cell_angle_beta     88.6849
_cell_angle_gamma    88.1646

_space_group_name_H-M_alt    "P 1"
_space_group_IT_number       1

loop_
  _space_group_symop_operation_xyz
  'x, y, z'

loop_
  _atom_site_type_symbol
  _atom_site_label
  _atom_site_symmetry_multiplicity
  _atom_site_fract_x
  _atom_site_fract_y
  _atom_site_fract_z
  _atom_site_occupancy
  H   H1        1.0  0.99302  0.08521  0.59936  1.0000
  H   H2        1.0  0.09511  0.04846  0.58954  1.0000
  H   H3        1.0  0.21773  0.03519  0.54617  1.0000
  H   H4        1.0  0.19741  0.23315  0.95758  1.0000
  S   S1        1.0  0.21612  0.20523  0.31536  1.0000
  H   H5        1.0  0.21852  0.23630  0.90327  1.0000
  Fe  Fe1       1.0  0.04558  0.04538  0.63027  1.0000
  S   S2        1.0  0.02337  0.06201  0.63832  1.0000
  S   S3        1.0  0.04384  0.01787  0.61892  1.0000
  Fe  Fe2       1.0  0.06880  0.07455  0.62148  1.0000
  S   S4        1.0  0.04797  0.09300  0.62872  1.0000
  S   S5        1.0  0.09600  0.08093  0.62322  1.0000
  Fe  Fe3       1.0  0.03852  0.07682  0.67971  1.0000
  S   S6        1.0  0.03025  0.08426  0.74469  1.0000
  Fe  Fe4       1.0  0.03414  0.07702  0.58675  1.0000
  S   S7        1.0  0.01893  0.08910  0.53571  1.0000
  S   S8        1.0  0.06007  0.05897  0.67489  1.0000
  S   S9        1.0  0.05566  0.05981  0.57630  1.0000
  Fe  Fe5       1.0  0.20323  0.12843  0.56085  1.0000
  S   S10       1.0  0.18874  0.13298  0.50442  1.0000
  S   S11       1.0  0.19835  0.14735  0.60901  1.0000
  Fe  Fe6       1.0  0.21769  0.09556  0.53103  1.0000
  S   S12       1.0  0.20394  0.09810  0.47248  1.0000
  S   S13       1.0  0.23230  0.07291  0.55477  1.0000
  Fe  Fe7       1.0  0.21147  0.12455  0.47096  1.0000
  S   S14       1.0  0.22459  0.13771  0.41753  1.0000
  Fe  Fe8       1.0  0.18223  0.10647  0.51148  1.0000
  S   S15       1.0  0.15570  0.09909  0.50226  1.0000
  S   S16       1.0  0.22642  0.12144  0.52759  1.0000
  S   S17       1.0  0.19549  0.10251  0.56975  1.0000
  S   S18       1.0  0.22111  0.23177  0.70237  1.0000
  S   S19       1.0  0.01134  0.14976  0.96575  1.0000
  H   H6        1.0  0.08602  0.01358  0.53631  1.0000
  H   H7        1.0  0.99277  0.06448  0.58469  1.0000
  Fe  Fe9       1.0  0.00860  0.17688  0.97593  1.0000
  S   S20       1.0  0.02821  0.19227  0.00431  1.0000
  H   H8        1.0  0.01132  0.14209  0.75951  1.0000
  H   H9        1.0  0.17726  0.22538  0.87251  1.0000
  C   C1        1.0  0.18479  0.22965  0.25955  1.0000
  C   C2        1.0  0.16474  0.22584  0.19409  1.0000
  C   C3        1.0  0.05308  0.21385  0.01298  1.0000
  C   C4        1.0  0.04299  0.20638  0.98531  1.0000
  C   C5        1.0  0.04464  0.21064  0.94396  1.0000
  H   H10       1.0  0.99463  0.21130  0.02149  1.0000
  H   H11       1.0  0.21735  0.19416  0.68220  1.0000
  H   H12       1.0  0.05719  0.22552  0.89874  1.0000
  H   H13       1.0  0.03714  0.20498  0.92211  1.0000
  H   H14       1.0  0.05611  0.10257  0.85029  1.0000
  C   C6        1.0  0.09470  0.02471  0.67535  1.0000
  H   H15       1.0  0.15702  0.22463  0.16805  1.0000
  C   C7        1.0  0.00987  0.12887  0.81688  1.0000
  C   C8        1.0  0.01318  0.13035  0.77468  1.0000
  C   C9        1.0  0.01903  0.11686  0.75190  1.0000
  C   C10       1.0  0.02166  0.10156  0.77096  1.0000
  C   C11       1.0  0.01815  0.10003  0.81304  1.0000
  C   C12       1.0  0.01228  0.11352  0.83581  1.0000
  C   C13       1.0  0.09306  0.03780  0.60899  1.0000
  H   H16       1.0  0.02158  0.11833  0.71965  1.0000
  H   H17       1.0  0.02004  0.08830  0.82826  1.0000
  H   H18       1.0  0.00975  0.11206  0.86808  1.0000
  C   C14       1.0  0.11262  0.08482  0.58851  1.0000
  C   C15       1.0  0.12812  0.08738  0.60424  1.0000
  C   C16       1.0  0.14150  0.09134  0.57843  1.0000
  C   C17       1.0  0.13961  0.09281  0.53629  1.0000
  C   C18       1.0  0.12419  0.08990  0.52050  1.0000
  C   C19       1.0  0.11080  0.08596  0.54631  1.0000
  H   H19       1.0  0.12977  0.08646  0.63675  1.0000
  H   H20       1.0  0.15324  0.09337  0.59120  1.0000
  H   H21       1.0  0.12253  0.09095  0.48799  1.0000
  H   H22       1.0  0.09902  0.08405  0.53353  1.0000
  C   C20       1.0  0.00716  0.08040  0.49721  1.0000
  C   C21       1.0  0.04845  0.99832  0.68923  1.0000
  C   C22       1.0  0.00374  0.22825  0.90900  1.0000
  H   H23       1.0  0.09783  0.02497  0.70717  1.0000
  C   C23       1.0  0.99354  0.05761  0.46791  1.0000
  H   H24       1.0  0.05559  0.11176  0.74237  1.0000
  C   C24       1.0  0.05607  0.22231  0.93075  1.0000
  H   H25       1.0  0.19608  0.17233  0.52988  1.0000
  C   C25       1.0  0.00418  0.06370  0.49665  1.0000
  C   C26       1.0  0.04496  0.99908  0.64775  1.0000
  Fe  Fe10      1.0  0.99639  0.15458  0.90972  1.0000
  H   H26       1.0  0.04548  0.12142  0.90296  1.0000
  H   H27       1.0  0.05008  0.00948  0.70528  1.0000
  C   C27       1.0  0.15921  0.13482  0.59452  1.0000
  C   C28       1.0  0.21920  0.18681  0.34498  1.0000
  H   H28       1.0  0.19635  0.23795  0.14085  1.0000
  C   C29       1.0  0.00158  0.22417  0.95027  1.0000
  C   C30       1.0  0.22214  0.15685  0.39067  1.0000
  C   C31       1.0  0.20824  0.16700  0.39519  1.0000
  C   C32       1.0  0.20675  0.18178  0.37226  1.0000
  H   H29       1.0  0.23363  0.14732  0.59558  1.0000
  S   S21       1.0  0.20467  0.22763  0.81771  1.0000
  H   H30       1.0  0.19846  0.16329  0.41554  1.0000
  H   H31       1.0  0.19578  0.18932  0.37541  1.0000
  H   H32       1.0  0.19665  0.17509  0.66014  1.0000
  H   H33       1.0  0.07521  0.11107  0.76659  1.0000
  C   C33       1.0  0.17430  0.21260  0.20816  1.0000
  C   C34       1.0  0.21371  0.15995  0.62611  1.0000
  H   H34       1.0  0.19258  0.23094  0.28538  1.0000
  H   H35       1.0  0.16556  0.14445  0.57652  1.0000
  H   H36       1.0  0.03867  0.15032  0.88406  1.0000
  C   C35       1.0  0.22097  0.18396  0.66343  1.0000
  C   C36       1.0  0.20925  0.17313  0.65090  1.0000
  H   H37       1.0  0.00985  0.05550  0.51878  1.0000
  H   H38       1.0  0.07222  0.23102  0.02147  1.0000
  C   C37       1.0  0.22978  0.19286  0.55273  1.0000
  N   N1        1.0  0.01359  0.13402  0.11236  1.0000
  C   C38       1.0  0.02335  0.13924  0.08072  1.0000
  C   C39       1.0  0.00394  0.14495  0.13343  1.0000
  C   C40       1.0  0.02379  0.15581  0.06978  1.0000
  C   C41       1.0  0.00392  0.16160  0.12295  1.0000
  C   C42       1.0  0.01402  0.16704  0.09109  1.0000
  H   H39       1.0  0.19183  0.20427  0.25259  1.0000
  C   C43       1.0  0.08319  0.01108  0.61912  1.0000
  C   C44       1.0  0.06619  0.22981  0.95841  1.0000
  H   H40       1.0  0.03150  0.15995  0.04460  1.0000
  H   H41       1.0  0.99603  0.17019  0.13918  1.0000
  H   H42       1.0  0.01414  0.17990  0.08245  1.0000
  C   C45       1.0  0.09763  0.03814  0.64966  1.0000
  C   C46       1.0  0.04769  0.12588  0.87208  1.0000
  C   C47       1.0  0.04395  0.14212  0.86156  1.0000
  N   N2        1.0  0.05561  0.12070  0.80267  1.0000
  H   H43       1.0  0.16623  0.12311  0.59128  1.0000
  C   C48       1.0  0.21348  0.18865  0.55311  1.0000
  H   H44       1.0  0.08394  0.03551  0.53472  1.0000
  N   N3        1.0  0.08586  0.02440  0.59430  1.0000
  C   C49       1.0  0.23005  0.15748  0.61449  1.0000
  C   C50       1.0  0.08746  0.01105  0.66002  1.0000
  Fe  Fe11      1.0  0.22413  0.23335  0.77000  1.0000
  C   C51       1.0  0.04622  0.14760  0.82143  1.0000
  H   H45       1.0  0.10309  0.04893  0.66126  1.0000
  C   C52       1.0  0.22579  0.02927  0.52406  1.0000
  H   H46       1.0  0.00199  0.10372  0.46778  1.0000
  H   H47       1.0  0.05976  0.09658  0.78040  1.0000
  C   C53       1.0  0.05361  0.11527  0.84209  1.0000
  C   C54       1.0  0.22717  0.03583  0.48466  1.0000
  Fe  Fe12      1.0  0.23170  0.22229  0.27479  1.0000
  C   C55       1.0  0.18434  0.21447  0.24122  1.0000
  H   H48       1.0  0.20472  0.19483  0.57306  1.0000
  N   N4        1.0  0.14261  0.13304  0.58043  1.0000
  C   C56       1.0  0.13968  0.13411  0.53968  1.0000
  C   C57       1.0  0.13042  0.12915  0.60763  1.0000
  C   C58       1.0  0.12412  0.13157  0.52524  1.0000
  C   C59       1.0  0.11471  0.12649  0.59424  1.0000
  C   C60       1.0  0.11158  0.12773  0.55277  1.0000
  H   H49       1.0  0.14955  0.13626  0.51792  1.0000
  H   H50       1.0  0.12203  0.13183  0.49279  1.0000
  H   H51       1.0  0.10521  0.12278  0.61564  1.0000
  H   H52       1.0  0.09961  0.12509  0.54187  1.0000
  H   H53       1.0  0.15943  0.13841  0.62686  1.0000
  H   H54       1.0  0.05198  0.21073  0.04503  1.0000
  S   S22       1.0  0.99495  0.18208  0.91846  1.0000
  H   H55       1.0  0.01218  0.22143  0.96846  1.0000
  H   H56       1.0  0.21639  0.15787  0.48612  1.0000
  C   C61       1.0  0.06196  0.10952  0.77157  1.0000
  C   C62       1.0  0.20863  0.17600  0.52897  1.0000
  C   C63       1.0  0.06461  0.22542  0.99971  1.0000
  C   C64       1.0  0.22022  0.16769  0.50479  1.0000
  H   H57       1.0  0.03070  0.13053  0.06347  1.0000
  H   H58       1.0  0.13291  0.12760  0.63973  1.0000
  S   S23       1.0  0.00381  0.14680  0.84440  1.0000
  C   C65       1.0  0.08051  0.02429  0.55209  1.0000
  H   H59       1.0  0.99597  0.14080  0.15804  1.0000
  H   H60       1.0  0.23511  0.01129  0.56668  1.0000
  C   C66       1.0  0.23729  0.18158  0.65161  1.0000
  S   S24       1.0  0.22904  0.22524  0.20650  1.0000
  C   C67       1.0  0.17666  0.23736  0.85800  1.0000
  H   H61       1.0  0.00429  0.11377  0.14728  1.0000
  H   H62       1.0  0.06703  0.02358  0.55165  1.0000
  H   H63       1.0  0.05353  0.14093  0.76090  1.0000
  N   N5        1.0  0.23623  0.17170  0.50514  1.0000
  H   H64       1.0  0.02583  0.11273  0.13572  1.0000
  H   H65       1.0  0.04274  0.16006  0.81281  1.0000
  C   C68       1.0  0.99973  0.09079  0.46782  1.0000
  H   H66       1.0  0.22012  0.04676  0.47618  1.0000
  C   C69       1.0  0.05218  0.13668  0.79222  1.0000
  H   H67       1.0  0.17478  0.23242  0.09159  1.0000
  H   H68       1.0  0.01115  0.10931  0.09673  1.0000
  H   H69       1.0  0.07710  0.00062  0.60772  1.0000
  C   C70       1.0  0.23326  0.17684  0.34121  1.0000
  H   H70       1.0  0.01591  0.22853  0.89551  1.0000
  C   C71       1.0  0.01378  0.11661  0.12374  1.0000
  H   H71       1.0  0.17398  0.20093  0.19342  1.0000
  C   C72       1.0  0.23573  0.01583  0.53548  1.0000
  C   C73       1.0  0.23464  0.16194  0.36367  1.0000
  H   H72       1.0  0.23373  0.20235  0.57238  1.0000
  H   H73       1.0  0.99160  0.23480  0.85323  1.0000
  H   H74       1.0  0.99113  0.04472  0.46834  1.0000
  H   H75       1.0  0.08479  0.00064  0.67981  1.0000
  C   C74       1.0  0.23842  0.02891  0.45721  1.0000
  H   H76       1.0  0.24015  0.03440  0.42715  1.0000
  H   H77       1.0  0.13704  0.30872  0.90507  1.0000
  C   C75       1.0  0.21142  0.26126  0.88925  1.0000
  H   H78       1.0  0.11751  0.37193  0.83479  1.0000
  H   H79       1.0  0.22800  0.30168  0.48181  1.0000
  Fe  Fe13      1.0  0.22303  0.25161  0.21777  1.0000
  S   S25       1.0  0.20263  0.26717  0.18780  1.0000
  C   C76       1.0  0.04026  0.38215  0.97588  1.0000
  H   H80       1.0  0.15842  0.25121  0.20114  1.0000
  S   S26       1.0  0.15719  0.47118  0.51251  1.0000
  H   H81       1.0  0.22564  0.43278  0.44547  1.0000
  Fe  Fe14      1.0  0.18451  0.47306  0.51433  1.0000
  S   S27       1.0  0.20263  0.45504  0.48360  1.0000
  H   H82       1.0  0.05537  0.47090  0.21781  1.0000
  C   C77       1.0  0.20028  0.27399  0.89764  1.0000
  Fe  Fe15      1.0  0.07943  0.41029  0.87479  1.0000
  S   S28       1.0  0.09758  0.43004  0.88227  1.0000
  S   S29       1.0  0.08498  0.38263  0.86865  1.0000
  Fe  Fe16      1.0  0.05051  0.43510  0.86842  1.0000
  S   S30       1.0  0.06670  0.45656  0.87541  1.0000
  S   S31       1.0  0.02259  0.43794  0.87491  1.0000
  Fe  Fe17      1.0  0.08455  0.44394  0.83185  1.0000
  S   S32       1.0  0.09871  0.46174  0.78928  1.0000
  Fe  Fe18      1.0  0.07891  0.44180  0.92481  1.0000
  S   S33       1.0  0.08662  0.45087  0.98676  1.0000
  S   S34       1.0  0.06729  0.42346  0.82132  1.0000
  S   S35       1.0  0.06185  0.42095  0.92089  1.0000
  Fe  Fe19      1.0  0.13274  0.27468  0.92330  1.0000
  S   S36       1.0  0.13805  0.28852  0.97919  1.0000
  S   S37       1.0  0.14967  0.27951  0.86915  1.0000
  Fe  Fe20      1.0  0.10120  0.26046  0.96090  1.0000
  S   S38       1.0  0.10458  0.27370  0.01962  1.0000
  H   H83       1.0  0.11640  0.47507  0.87296  1.0000
  Fe  Fe21      1.0  0.11127  0.29564  0.97938  1.0000
  S   S39       1.0  0.10390  0.32265  0.99017  1.0000
  Fe  Fe22      1.0  0.13129  0.26577  0.01418  1.0000
  S   S40       1.0  0.14810  0.25165  0.05914  1.0000
  S   S41       1.0  0.10644  0.28293  0.92160  1.0000
  S   S42       1.0  0.12743  0.25141  0.95747  1.0000
  H   H84       1.0  0.13841  0.37599  0.84650  1.0000
  C   C78       1.0  0.08942  0.36612  0.90371  1.0000
  C   C79       1.0  0.09036  0.35006  0.88929  1.0000
  C   C80       1.0  0.09449  0.33663  0.91526  1.0000
  C   C81       1.0  0.09774  0.33902  0.95626  1.0000
  C   C82       1.0  0.09654  0.35506  0.97080  1.0000
  C   C83       1.0  0.09246  0.36852  0.94479  1.0000
  H   H85       1.0  0.08802  0.34798  0.85764  1.0000
  H   H86       1.0  0.09528  0.32441  0.90349  1.0000
  H   H87       1.0  0.09900  0.35712  0.00241  1.0000
  H   H88       1.0  0.09183  0.38074  0.95652  1.0000
  C   C84       1.0  0.00459  0.42969  0.80733  1.0000
  C   C85       1.0  0.00441  0.43524  0.84725  1.0000
  C   C86       1.0  0.23490  0.41199  0.53354  1.0000
  H   H89       1.0  0.01609  0.42711  0.79186  1.0000
  C   C87       1.0  0.02756  0.39780  0.92147  1.0000
  H   H90       1.0  0.23825  0.27740  0.51887  1.0000
  H   H91       1.0  0.22024  0.26245  0.86437  1.0000
  C   C88       1.0  0.08843  0.47155  0.05125  1.0000
  C   C89       1.0  0.08301  0.46989  0.01129  1.0000
  C   C90       1.0  0.16441  0.24873  0.86999  1.0000
  C   C91       1.0  0.10694  0.47857  0.59174  1.0000
  H   H92       1.0  0.09373  0.46105  0.06715  1.0000
  C   C92       1.0  0.18738  0.25698  0.80908  1.0000
  N   N6        1.0  0.22981  0.48551  0.51079  1.0000
  C   C93       1.0  0.13016  0.46279  0.66951  1.0000
  C   C94       1.0  0.12297  0.44823  0.68348  1.0000
  C   C95       1.0  0.11342  0.44761  0.71986  1.0000
  C   C96       1.0  0.11077  0.46161  0.74296  1.0000
  C   C97       1.0  0.11787  0.47620  0.72881  1.0000
  C   C98       1.0  0.12748  0.47681  0.69252  1.0000
  H   H93       1.0  0.11879  0.46729  0.96219  1.0000
  H   H94       1.0  0.10809  0.43628  0.73000  1.0000
  S   S43       1.0  0.18450  0.47930  0.58035  1.0000
  H   H95       1.0  0.17309  0.26869  0.24328  1.0000
  C   C99       1.0  0.21444  0.43815  0.50373  1.0000
  C   C100      1.0  0.22516  0.42945  0.47750  1.0000
  H   H96       1.0  0.05362  0.36941  0.88337  1.0000
  C   C101      1.0  0.21399  0.43364  0.54505  1.0000
  H   H97       1.0  0.11597  0.48715  0.74620  1.0000
  S   S44       1.0  0.23049  0.27434  0.65319  1.0000
  H   H98       1.0  0.20586  0.44018  0.56570  1.0000
  C   C102      1.0  0.04676  0.37654  0.90563  1.0000
  C   C103      1.0  0.16419  0.25681  0.09162  1.0000
  C   C104      1.0  0.16540  0.27237  0.10764  1.0000
  C   C105      1.0  0.17746  0.27538  0.13623  1.0000
  C   C106      1.0  0.18868  0.26301  0.14876  1.0000
  H   H99       1.0  0.05734  0.36321  0.95649  1.0000
  C   C107      1.0  0.17558  0.24451  0.10365  1.0000
  H   H100      1.0  0.15671  0.28195  0.09901  1.0000
  H   H101      1.0  0.22981  0.37081  0.59596  1.0000
  H   H102      1.0  0.23046  0.30176  0.59755  1.0000
  C   C108      1.0  0.13526  0.32138  0.89560  1.0000
  C   C109      1.0  0.16556  0.24087  0.21301  1.0000
  C   C110      1.0  0.17510  0.26834  0.82102  1.0000
  C   C111      1.0  0.16374  0.26434  0.85195  1.0000
  C   C112      1.0  0.18833  0.27181  0.92808  1.0000
  H   H103      1.0  0.12485  0.43728  0.66608  1.0000
  H   H104      1.0  0.02519  0.38560  0.83724  1.0000
  H   H105      1.0  0.12218  0.37839  0.88419  1.0000
  H   H106      1.0  0.04654  0.39053  0.83304  1.0000
  H   H107      1.0  0.04201  0.37968  0.00806  1.0000
  H   H108      1.0  0.17797  0.28736  0.14914  1.0000
  C   C113      1.0  0.22418  0.42070  0.55979  1.0000
  N   N7        1.0  0.11217  0.47627  0.55247  1.0000
  H   H109      1.0  0.10459  0.46817  0.61182  1.0000
  C   C114      1.0  0.23670  0.47042  0.51915  1.0000
  N   N8        1.0  0.18770  0.25744  0.95002  1.0000
  H   H110      1.0  0.13174  0.31572  0.83305  1.0000
  C   C115      1.0  0.07303  0.47785  0.26110  1.0000
  S   S45       1.0  0.22414  0.24854  0.28610  1.0000
  C   C116      1.0  0.21049  0.24655  0.91124  1.0000
  Fe  Fe23      1.0  0.15706  0.47891  0.57825  1.0000
  H   H111      1.0  0.19628  0.26027  0.78583  1.0000
  H   H112      1.0  0.15558  0.24544  0.89336  1.0000
  C   C117      1.0  0.18833  0.24152  0.82799  1.0000
  H   H113      1.0  0.17459  0.28036  0.80676  1.0000
  C   C118      1.0  0.03486  0.39297  0.84991  1.0000
  H   H114      1.0  0.13295  0.35939  0.93380  1.0000
  H   H115      1.0  0.12684  0.34475  0.81189  1.0000
  H   H116      1.0  0.12156  0.45922  0.50882  1.0000
  C   C119      1.0  0.18784  0.24761  0.13164  1.0000
  C   C120      1.0  0.08762  0.48682  0.07036  1.0000
  H   H117      1.0  0.23337  0.47014  0.62234  1.0000
  H   H118      1.0  0.16406  0.24973  0.96655  1.0000
  C   C121      1.0  0.05821  0.47933  0.24135  1.0000
  H   H119      1.0  0.11923  0.48762  0.49592  1.0000
  H   H120      1.0  0.17882  0.24689  0.00601  1.0000
  N   N9        1.0  0.17569  0.24268  0.24493  1.0000
  H   H121      1.0  0.01914  0.40750  0.91182  1.0000
  C   C122      1.0  0.23259  0.47453  0.59107  1.0000
  H   H122      1.0  0.21430  0.34664  0.61952  1.0000
  H   H123      1.0  0.08186  0.46830  0.25303  1.0000
  H   H124      1.0  0.22372  0.41739  0.59182  1.0000
  S   S46       1.0  0.14160  0.46279  0.62227  1.0000
  H   H125      1.0  0.08839  0.48814  0.30498  1.0000
  S   S47       1.0  0.23777  0.25668  0.76638  1.0000
  C   C123      1.0  0.02942  0.39459  0.96311  1.0000
  C   C124      1.0  0.11408  0.45962  0.53739  1.0000
  H   H126      1.0  0.10198  0.45463  0.53181  1.0000
  H   H127      1.0  0.13769  0.33060  0.95581  1.0000
  H   H128      1.0  0.18873  0.26070  0.27500  1.0000
  C   C125      1.0  0.11596  0.48031  0.96044  1.0000
  H   H129      1.0  0.02266  0.40189  0.98519  1.0000
  C   C126      1.0  0.04888  0.37294  0.94700  1.0000
  C   C127      1.0  0.17622  0.25845  0.26483  1.0000
  H   H130      1.0  0.13285  0.48812  0.68243  1.0000
  C   C128      1.0  0.12691  0.37084  0.85859  1.0000
  N   N10       1.0  0.03657  0.38914  0.89340  1.0000
  C   C129      1.0  0.13579  0.33370  0.92394  1.0000
  H   H131      1.0  0.03167  0.40612  0.84464  1.0000
  N   N11       1.0  0.12964  0.35375  0.87155  1.0000
  C   C130      1.0  0.12940  0.34173  0.84342  1.0000
  C   C131      1.0  0.13298  0.34994  0.91130  1.0000
  C   C132      1.0  0.13215  0.32536  0.85505  1.0000
  H   H132      1.0  0.21671  0.48516  0.45623  1.0000
  H   H133      1.0  0.17071  0.26684  0.99449  1.0000
  H   H134      1.0  0.20040  0.28517  0.87937  1.0000
  C   C133      1.0  0.22623  0.34867  0.63152  1.0000
  C   C134      1.0  0.07623  0.48363  0.99115  1.0000
  H   H135      1.0  0.17919  0.28144  0.93304  1.0000
  H   H136      1.0  0.12055  0.45162  0.56003  1.0000
  C   C135      1.0  0.19843  0.24481  0.94161  1.0000
  H   H137      1.0  0.22646  0.32704  0.67026  1.0000
  N   N12       1.0  0.10860  0.48709  0.92690  1.0000
  C   C136      1.0  0.17472  0.25511  0.98063  1.0000
  H   H138      1.0  0.12407  0.48425  0.02133  1.0000
  H   H139      1.0  0.09243  0.48797  0.10045  1.0000
  H   H140      1.0  0.16765  0.25873  0.29136  1.0000
  S   S48       1.0  0.08022  0.24467  0.93953  1.0000
  Fe  Fe24      1.0  0.23668  0.25394  0.69860  1.0000
  H   H141      1.0  0.07197  0.48260  0.96049  1.0000
  C   C137      1.0  0.23529  0.41646  0.49220  1.0000
  H   H142      1.0  0.10121  0.46465  0.90348  1.0000
  C   C138      1.0  0.23300  0.33776  0.66012  1.0000
  C   C139      1.0  0.10530  0.47678  0.89245  1.0000
  C   C140      1.0  0.23493  0.36220  0.61821  1.0000
  H   H143      1.0  0.09541  0.48211  0.87326  1.0000
  C   C141      1.0  0.23824  0.46472  0.55936  1.0000
  C   C142      1.0  0.07666  0.48915  0.29049  1.0000
  H   H144      1.0  0.23838  0.48721  0.44927  1.0000
  H   H145      1.0  0.04308  0.51352  0.28632  1.0000
  Fe  Fe25      1.0  0.22940  0.72201  0.89210  1.0000
  H   H146      1.0  0.10793  0.51996  0.59372  1.0000
  H   H147      1.0  0.06651  0.69454  0.01837  1.0000
  S   S49       1.0  0.21532  0.70471  0.93427  1.0000
  S   S50       1.0  0.22894  0.72111  0.82377  1.0000
  Fe  Fe26      1.0  0.10145  0.71148  0.11686  1.0000
  S   S51       1.0  0.10561  0.69843  0.05809  1.0000
  C   C143      1.0  0.17395  0.73395  0.23601  1.0000
  Fe  Fe27      1.0  0.13397  0.69764  0.15134  1.0000
  S   S52       1.0  0.13995  0.68383  0.09441  1.0000
  S   S53       1.0  0.15280  0.69227  0.20010  1.0000
  Fe  Fe28      1.0  0.13149  0.70661  0.06131  1.0000
  S   S54       1.0  0.14445  0.72004  0.00924  1.0000
  Fe  Fe29      1.0  0.11370  0.67665  0.09710  1.0000
  S   S55       1.0  0.10718  0.65045  0.08232  1.0000
  S   S56       1.0  0.12691  0.72099  0.11816  1.0000
  S   S57       1.0  0.10812  0.68910  0.15587  1.0000
  Fe  Fe30      1.0  0.18232  0.50565  0.55814  1.0000
  S   S58       1.0  0.19720  0.52458  0.59134  1.0000
  S   S59       1.0  0.13786  0.51109  0.45068  1.0000
  S   S60       1.0  0.15473  0.50564  0.56044  1.0000
  Fe  Fe31      1.0  0.05421  0.53553  0.19791  1.0000
  S   S61       1.0  0.06214  0.55024  0.14292  1.0000
  S   S62       1.0  0.02823  0.52721  0.21324  1.0000
  Fe  Fe32      1.0  0.09005  0.52864  0.22569  1.0000
  S   S63       1.0  0.10003  0.54246  0.17046  1.0000
  S   S64       1.0  0.10682  0.51397  0.27088  1.0000
  Fe  Fe33      1.0  0.08030  0.56158  0.18348  1.0000
  S   S65       1.0  0.08456  0.58904  0.19212  1.0000
  Fe  Fe34      1.0  0.08114  0.52999  0.13380  1.0000
  H   H148      1.0  0.12960  0.60952  0.16336  1.0000
  S   S66       1.0  0.07093  0.54808  0.24010  1.0000
  S   S67       1.0  0.07262  0.51494  0.18746  1.0000
  H   H149      1.0  0.99489  0.53146  0.09187  1.0000
  C   C144      1.0  0.00908  0.53416  0.19356  1.0000
  H   H150      1.0  0.23394  0.66697  0.72965  1.0000
  C   C145      1.0  0.00713  0.54904  0.17220  1.0000
  H   H151      1.0  0.14240  0.64446  0.09967  1.0000
  H   H152      1.0  0.01755  0.55658  0.16665  1.0000
  C   C146      1.0  0.12963  0.51170  0.40015  1.0000
  H   H153      1.0  0.07725  0.73596  0.04616  1.0000
  H   H154      1.0  0.19225  0.73226  0.92316  1.0000
  C   C147      1.0  0.11555  0.51370  0.32084  1.0000
  C   C148      1.0  0.11180  0.52565  0.34968  1.0000
  C   C149      1.0  0.11870  0.52459  0.38888  1.0000
  H   H155      1.0  0.12944  0.49138  0.31052  1.0000
  H   H156      1.0  0.10365  0.53578  0.34179  1.0000
  H   H157      1.0  0.11568  0.53398  0.41054  1.0000
  C   C150      1.0  0.13335  0.49975  0.37132  1.0000
  H   H158      1.0  0.20678  0.69218  0.10065  1.0000
  C   C151      1.0  0.21856  0.54822  0.61288  1.0000
  C   C152      1.0  0.21230  0.53955  0.58050  1.0000
  C   C153      1.0  0.21833  0.54294  0.54110  1.0000
  H   H159      1.0  0.23941  0.70125  0.53441  1.0000
  H   H160      1.0  0.09874  0.50879  0.89860  1.0000
  C   C154      1.0  0.11469  0.50642  0.99281  1.0000
  H   H161      1.0  0.21358  0.53664  0.51567  1.0000
  C   C155      1.0  0.12694  0.63681  0.23920  1.0000
  H   H162      1.0  0.04971  0.71215  0.06383  1.0000
  C   C156      1.0  0.12562  0.62208  0.21932  1.0000
  H   H163      1.0  0.07098  0.50960  0.99353  1.0000
  C   C157      1.0  0.99158  0.55443  0.15908  1.0000
  C   C158      1.0  0.10024  0.63369  0.11309  1.0000
  C   C159      1.0  0.09534  0.63538  0.15383  1.0000
  C   C160      1.0  0.09021  0.62166  0.17704  1.0000
  C   C161      1.0  0.09010  0.60601  0.16019  1.0000
  C   C162      1.0  0.09491  0.60437  0.11938  1.0000
  C   C163      1.0  0.09986  0.61812  0.09602  1.0000
  H   H164      1.0  0.09558  0.64721  0.16761  1.0000
  H   H165      1.0  0.08647  0.62311  0.20852  1.0000
  H   H166      1.0  0.09486  0.59247  0.10584  1.0000
  H   H167      1.0  0.10350  0.61663  0.06448  1.0000
  C   C164      1.0  0.19539  0.70892  0.95376  1.0000
  C   C165      1.0  0.18683  0.72343  0.94390  1.0000
  C   C166      1.0  0.17114  0.72647  0.96065  1.0000
  C   C167      1.0  0.16392  0.71517  0.98777  1.0000
  C   C168      1.0  0.17248  0.70065  0.99771  1.0000
  C   C169      1.0  0.18810  0.69751  0.98052  1.0000
  H   H168      1.0  0.21369  0.67980  0.86631  1.0000
  H   H169      1.0  0.16704  0.69184  0.01844  1.0000
  H   H170      1.0  0.19461  0.68623  0.98823  1.0000
  C   C170      1.0  0.99528  0.52463  0.20075  1.0000
  H   H171      1.0  0.03670  0.71718  0.12611  1.0000
  H   H172      1.0  0.03189  0.69933  0.15634  1.0000
  S   S68       1.0  0.23898  0.71381  0.31819  1.0000
  C   C171      1.0  0.18929  0.71102  0.26474  1.0000
  C   C172      1.0  0.17875  0.70033  0.24623  1.0000
  C   C173      1.0  0.16576  0.70636  0.22251  1.0000
  C   C174      1.0  0.16344  0.72326  0.21737  1.0000
  S   S69       1.0  0.22162  0.73616  0.38984  1.0000
  C   C175      1.0  0.17421  0.71845  0.11057  1.0000
  C   C176      1.0  0.23059  0.56003  0.60619  1.0000
  H   H173      1.0  0.16456  0.73768  0.95258  1.0000
  C   C177      1.0  0.19865  0.70260  0.09474  1.0000
  H   H174      1.0  0.07590  0.52440  0.31184  1.0000
  H   H175      1.0  0.21272  0.71163  0.04317  1.0000
  C   C178      1.0  0.19136  0.72687  0.05544  1.0000
  H   H176      1.0  0.15335  0.72811  0.19983  1.0000
  C   C179      1.0  0.18467  0.70507  0.11893  1.0000
  C   C180      1.0  0.22348  0.65961  0.83131  1.0000
  H   H177      1.0  0.21166  0.65544  0.82294  1.0000
  H   H178      1.0  0.22385  0.68343  0.58262  1.0000
  C   C181      1.0  0.10538  0.49429  0.60726  1.0000
  H   H179      1.0  0.04966  0.71092  0.16698  1.0000
  H   H180      1.0  0.22106  0.62341  0.46225  1.0000
  C   C182      1.0  0.22460  0.67327  0.85547  1.0000
  C   C183      1.0  0.23043  0.55469  0.53444  1.0000
  H   H181      1.0  0.23494  0.55713  0.50383  1.0000
  C   C184      1.0  0.18690  0.72792  0.25992  1.0000
  H   H182      1.0  0.07931  0.50899  0.35073  1.0000
  H   H183      1.0  0.07850  0.66825  0.04519  1.0000
  Fe  Fe35      1.0  0.15633  0.49794  0.49444  1.0000
  H   H184      1.0  0.11625  0.51379  0.01937  1.0000
  H   H185      1.0  0.23374  0.66677  0.48632  1.0000
  C   C185      1.0  0.07030  0.51399  0.32865  1.0000
  H   H186      1.0  0.12258  0.63794  0.27041  1.0000
  S   S70       1.0  0.23616  0.69385  0.43066  1.0000
  C   C186      1.0  0.06828  0.67146  0.10541  1.0000
  H   H187      1.0  0.10189  0.49594  0.63895  1.0000
  H   H188      1.0  0.21833  0.50694  0.53519  1.0000
  C   C187      1.0  0.14334  0.63253  0.11648  1.0000
  H   H189      1.0  0.05947  0.51860  0.34613  1.0000
  C   C188      1.0  0.07563  0.49895  0.01006  1.0000
  H   H190      1.0  0.15618  0.62795  0.11572  1.0000
  H   H191      1.0  0.13573  0.62407  0.09979  1.0000
  S   S71       1.0  0.08386  0.52076  0.06830  1.0000
  N   N13       1.0  0.06588  0.50164  0.29974  1.0000
  H   H192      1.0  0.13503  0.66163  0.23371  1.0000
  C   C189      1.0  0.10460  0.50342  0.92515  1.0000
  C   C190      1.0  0.10880  0.50771  0.58196  1.0000
  C   C191      1.0  0.13107  0.62090  0.17887  1.0000
  C   C192      1.0  0.20206  0.71357  0.06280  1.0000
  H   H193      1.0  0.21402  0.54580  0.64349  1.0000
  N   N14       1.0  0.17753  0.72904  0.07887  1.0000
  C   C193      1.0  0.07094  0.67600  0.06474  1.0000
  H   H194      1.0  0.10367  0.52610  0.95760  1.0000
  N   N15       1.0  0.05204  0.69599  0.11542  1.0000
  C   C194      1.0  0.05470  0.70062  0.07561  1.0000
  H   H195      1.0  0.07367  0.66014  0.11736  1.0000
  N   N16       1.0  0.13751  0.63408  0.15868  1.0000
  C   C195      1.0  0.10750  0.51331  0.95816  1.0000
  S   S72       1.0  0.18381  0.49947  0.49180  1.0000
  H   H196      1.0  0.11642  0.51560  0.52158  1.0000
  C   C196      1.0  0.06418  0.69071  0.04970  1.0000
  C   C197      1.0  0.13383  0.65009  0.21864  1.0000
  C   C198      1.0  0.05882  0.68170  0.13054  1.0000
  H   H197      1.0  0.16338  0.72024  0.12952  1.0000
  H   H198      1.0  0.18190  0.69669  0.14405  1.0000
  H   H199      1.0  0.23518  0.56651  0.63154  1.0000
  C   C199      1.0  0.13916  0.64846  0.17823  1.0000
  H   H200      1.0  0.14454  0.65885  0.16263  1.0000
  H   H201      1.0  0.23607  0.64167  0.41450  1.0000
  H   H202      1.0  0.12000  0.61173  0.23464  1.0000
  H   H203      1.0  0.18064  0.68729  0.25056  1.0000
  H   H204      1.0  0.19916  0.70620  0.28312  1.0000
  C   C200      1.0  0.11357  0.50528  0.54153  1.0000
  C   C201      1.0  0.08154  0.50072  0.04955  1.0000
  C   C202      1.0  0.04203  0.70633  0.14251  1.0000
  C   C203      1.0  0.12633  0.50073  0.33225  1.0000
  H   H205      1.0  0.05698  0.67819  0.16227  1.0000
  H   H206      1.0  0.99657  0.51314  0.21741  1.0000
  S   S73       1.0  0.07825  0.72660  0.13332  1.0000
  C   C204      1.0  0.22418  0.49517  0.54171  1.0000
  C   C205      1.0  0.04726  0.49205  0.25111  1.0000
  H   H207      1.0  0.14169  0.48974  0.37904  1.0000
  H   H208      1.0  0.03589  0.49363  0.23514  1.0000
  H   H209      1.0  0.23877  0.66382  0.62852  1.0000
  C   C206      1.0  0.05139  0.50327  0.28022  1.0000
  C   C207      1.0  0.23705  0.68278  0.58193  1.0000
  H   H210      1.0  0.22594  0.50435  0.46548  1.0000
  H   H211      1.0  0.22087  0.49758  0.60656  1.0000
  H   H212      1.0  0.23680  0.64088  0.79881  1.0000
  Fe  Fe36      1.0  0.22199  0.73575  0.32130  1.0000
  H   H213      1.0  0.99245  0.50270  0.11417  1.0000
  C   C208      1.0  0.23422  0.62232  0.45947  1.0000
  C   C209      1.0  0.22558  0.48990  0.58226  1.0000
  C   C210      1.0  0.22763  0.49087  0.46836  1.0000
  H   H214      1.0  0.23632  0.60258  0.50397  1.0000
  C   C211      1.0  0.23668  0.56336  0.56685  1.0000
  H   H215      1.0  0.19396  0.73517  0.03011  1.0000
  C   C212      1.0  0.23774  0.65142  0.81789  1.0000
  C   C213      1.0  0.11904  0.48984  0.99396  1.0000
  C   C214      1.0  0.23987  0.67858  0.86567  1.0000
  H   H216      1.0  0.99024  0.56612  0.14336  1.0000
  C   C215      1.0  0.11521  0.48938  0.52719  1.0000
  C   C216      1.0  0.22241  0.93272  0.60819  1.0000
  C   C217      1.0  0.03758  0.81880  0.89811  1.0000
  H   H217      1.0  0.04259  0.83062  0.90345  1.0000
  C   C218      1.0  0.22404  0.77933  0.56232  1.0000
  S   S74       1.0  0.21408  0.76520  0.78707  1.0000
  H   H218      1.0  0.20455  0.76691  0.35712  1.0000
  Fe  Fe37      1.0  0.20161  0.83932  0.56025  1.0000
  C   C219      1.0  0.04128  0.75880  0.10166  1.0000
  S   S75       1.0  0.19540  0.81915  0.51720  1.0000
  Fe  Fe38      1.0  0.18553  0.86458  0.61783  1.0000
  S   S76       1.0  0.21008  0.87129  0.64146  1.0000
  S   S77       1.0  0.16384  0.88089  0.63979  1.0000
  Fe  Fe39      1.0  0.21892  0.87150  0.57630  1.0000
  H   H219      1.0  0.20988  0.77491  0.30724  1.0000
  Fe  Fe40      1.0  0.21621  0.84419  0.64218  1.0000
  H   H220      1.0  0.05063  0.74709  0.15628  1.0000
  S   S78       1.0  0.19417  0.86588  0.55245  1.0000
  S   S79       1.0  0.19114  0.83747  0.62420  1.0000
  Fe  Fe41      1.0  0.00709  0.79085  0.03678  1.0000
  C   C220      1.0  0.00021  0.93913  0.75966  1.0000
  S   S80       1.0  0.02962  0.77347  0.02948  1.0000
  H   H221      1.0  0.99409  0.85304  0.22804  1.0000
  C   C221      1.0  0.01305  0.91234  0.80237  1.0000
  S   S81       1.0  0.00881  0.81765  0.04951  1.0000
  Fe  Fe42      1.0  0.06337  0.89177  0.66561  1.0000
  S   S82       1.0  0.05677  0.90094  0.72833  1.0000
  S   S83       1.0  0.08578  0.87601  0.64569  1.0000
  Fe  Fe43      1.0  0.02986  0.90331  0.63106  1.0000
  S   S84       1.0  0.02139  0.91291  0.69172  1.0000
  S   S85       1.0  0.01586  0.91025  0.57294  1.0000
  Fe  Fe44      1.0  0.04629  0.92337  0.69480  1.0000
  S   S86       1.0  0.04966  0.94933  0.71764  1.0000
  Fe  Fe45      1.0  0.03230  0.88976  0.72060  1.0000
  S   S87       1.0  0.01720  0.87372  0.76624  1.0000
  S   S88       1.0  0.05446  0.91478  0.63313  1.0000
  S   S89       1.0  0.03927  0.87955  0.65896  1.0000
  C   C222      1.0  0.00080  0.90252  0.54081  1.0000
  C   C223      1.0  0.20244  0.77726  0.33527  1.0000
  H   H222      1.0  0.05792  0.75393  0.00724  1.0000
  H   H223      1.0  0.18124  0.89973  0.57788  1.0000
  C   C224      1.0  0.04773  0.96831  0.68984  1.0000
  C   C225      1.0  0.04422  0.96910  0.64840  1.0000
  C   C226      1.0  0.21365  0.79503  0.85978  1.0000
  H   H224      1.0  0.04250  0.95795  0.63234  1.0000
  C   C227      1.0  0.21525  0.82086  0.39188  1.0000
  C   C228      1.0  0.01088  0.85042  0.89668  1.0000
  C   C229      1.0  0.02366  0.86112  0.88753  1.0000
  C   C230      1.0  0.02596  0.86811  0.84801  1.0000
  C   C231      1.0  0.01534  0.86476  0.81675  1.0000
  C   C232      1.0  0.00254  0.85409  0.82591  1.0000
  C   C233      1.0  0.00039  0.84691  0.86529  1.0000
  N   N17       1.0  0.02195  0.92607  0.79715  1.0000
  H   H225      1.0  0.03595  0.87613  0.84185  1.0000
  H   H226      1.0  0.21767  0.77028  0.54591  1.0000
  C   C234      1.0  0.19804  0.78858  0.59339  1.0000
  H   H227      1.0  0.21260  0.77126  0.43838  1.0000
  C   C235      1.0  0.14214  0.87923  0.64088  1.0000
  C   C236      1.0  0.13442  0.86553  0.62694  1.0000
  C   C237      1.0  0.11724  0.86482  0.62875  1.0000
  C   C238      1.0  0.10747  0.87774  0.64445  1.0000
  C   C239      1.0  0.11518  0.89150  0.65808  1.0000
  C   C240      1.0  0.13236  0.89221  0.65633  1.0000
  H   H228      1.0  0.14166  0.85542  0.61502  1.0000
  H   H229      1.0  0.11149  0.85408  0.61815  1.0000
  H   H230      1.0  0.10793  0.90155  0.67028  1.0000
  H   H231      1.0  0.13812  0.90287  0.66731  1.0000
  H   H232      1.0  0.05613  0.81660  0.96400  1.0000
  C   C241      1.0  0.04317  0.76085  0.05945  1.0000
  H   H233      1.0  0.01119  0.86073  0.25433  1.0000
  C   C242      1.0  0.03039  0.81615  0.86083  1.0000
  H   H234      1.0  0.19215  0.80077  0.59873  1.0000
  C   C243      1.0  0.21954  0.78233  0.75638  1.0000
  H   H235      1.0  0.02258  0.95046  0.77301  1.0000
  C   C244      1.0  0.16667  0.74325  0.07129  1.0000
  C   C245      1.0  0.22692  0.81130  0.71199  1.0000
  C   C246      1.0  0.21078  0.80666  0.71700  1.0000
  C   C247      1.0  0.20713  0.79226  0.73913  1.0000
  C   C248      1.0  0.21655  0.78213  0.45277  1.0000
  H   H236      1.0  0.20105  0.81443  0.70500  1.0000
  H   H237      1.0  0.19457  0.78897  0.74368  1.0000
  H   H238      1.0  0.01720  0.79923  0.82607  1.0000
  C   C249      1.0  0.22655  0.81051  0.48990  1.0000
  C   C250      1.0  0.04428  0.81057  0.96782  1.0000
  C   C251      1.0  0.22256  0.79722  0.35235  1.0000
  C   C252      1.0  0.21018  0.80646  0.49258  1.0000
  C   C253      1.0  0.20526  0.79216  0.47423  1.0000
  C   C254      1.0  0.19509  0.80166  0.37420  1.0000
  C   C255      1.0  0.06537  0.74017  0.10404  1.0000
  S   S90       1.0  0.22921  0.74931  0.89284  1.0000
  H   H239      1.0  0.18793  0.90478  0.64499  1.0000
  C   C256      1.0  0.19916  0.81595  0.39351  1.0000
  C   C257      1.0  0.01560  0.93949  0.77684  1.0000
  C   C258      1.0  0.20783  0.91908  0.66290  1.0000
  C   C259      1.0  0.03810  0.92657  0.81499  1.0000
  H   H240      1.0  0.20616  0.91609  0.69500  1.0000
  N   N18       1.0  0.05051  0.88514  0.53775  1.0000
  C   C260      1.0  0.04768  0.89960  0.51706  1.0000
  C   C261      1.0  0.06516  0.88194  0.55564  1.0000
  C   C262      1.0  0.05969  0.91130  0.51384  1.0000
  C   C263      1.0  0.07756  0.89323  0.55233  1.0000
  C   C264      1.0  0.07474  0.90803  0.53155  1.0000
  C   C265      1.0  0.03741  0.87352  0.54310  1.0000
  H   H241      1.0  0.03589  0.90238  0.50397  1.0000
  H   H242      1.0  0.06727  0.87072  0.57325  1.0000
  H   H243      1.0  0.05717  0.92292  0.49848  1.0000
  H   H244      1.0  0.08912  0.89067  0.56686  1.0000
  H   H245      1.0  0.08410  0.91706  0.52989  1.0000
  H   H246      1.0  0.02893  0.87436  0.51723  1.0000
  H   H247      1.0  0.04232  0.86075  0.54534  1.0000
  H   H248      1.0  0.03028  0.87628  0.57132  1.0000
  H   H249      1.0  0.19007  0.82281  0.41109  1.0000
  H   H250      1.0  0.21868  0.83157  0.40805  1.0000
  H   H251      1.0  0.19234  0.78392  0.56584  1.0000
  H   H252      1.0  0.18160  0.91879  0.54968  1.0000
  H   H253      1.0  0.23049  0.82149  0.50382  1.0000
  H   H254      1.0  0.04632  0.79932  0.98682  1.0000
  H   H255      1.0  0.23195  0.78959  0.33798  1.0000
  H   H256      1.0  0.21713  0.80959  0.62803  1.0000
  H   H257      1.0  0.04019  0.98473  0.59554  1.0000
  N   N19       1.0  0.03763  0.80698  0.92818  1.0000
  N   N20       1.0  0.21566  0.78992  0.58726  1.0000
  H   H258      1.0  0.22178  0.81912  0.80799  1.0000
  C   C266      1.0  0.19759  0.91264  0.63438  1.0000
  S   S91       1.0  0.19952  0.74199  0.28351  1.0000
  C   C267      1.0  0.99789  0.86223  0.24997  1.0000
  H   H259      1.0  0.03047  0.78302  0.94616  1.0000
  S   S92       1.0  0.22688  0.84487  0.57843  1.0000
  H   H260      1.0  0.23238  0.94018  0.59739  1.0000
  H   H261      1.0  0.19260  0.78894  0.47619  1.0000
  H   H262      1.0  0.04443  0.91439  0.81390  1.0000
  H   H263      1.0  0.21431  0.92803  0.54816  1.0000
  H   H264      1.0  0.19683  0.90282  0.53977  1.0000
  N   N21       1.0  0.19997  0.91590  0.59371  1.0000
  H   H265      1.0  0.03561  0.81882  0.98449  1.0000
  H   H266      1.0  0.21359  0.78173  0.86720  1.0000
  C   C268      1.0  0.02334  0.78925  0.88526  1.0000
  H   H267      1.0  0.03693  0.93042  0.84705  1.0000
  H   H268      1.0  0.17038  0.75367  0.08944  1.0000
  H   H269      1.0  0.03134  0.76512  0.11734  1.0000
  H   H270      1.0  0.03193  0.86397  0.91125  1.0000
  C   C269      1.0  0.21213  0.92585  0.58047  1.0000
  H   H271      1.0  0.99419  0.85133  0.80227  1.0000
  C   C270      1.0  0.03070  0.79232  0.92212  1.0000
  Fe  Fe46      1.0  0.99613  0.82247  0.98960  1.0000
  H   H272      1.0  0.05255  0.98263  0.74208  1.0000
  S   S93       1.0  0.00915  0.84147  0.94719  1.0000
  H   H273      1.0  0.99513  0.87443  0.23576  1.0000
  H   H274      1.0  0.20879  0.80190  0.88627  1.0000
  H   H275      1.0  0.99547  0.94962  0.74245  1.0000
  C   C271      1.0  0.99511  0.91244  0.50821  1.0000
  C   C272      1.0  0.23573  0.78667  0.75019  1.0000
  S   S94       1.0  0.23196  0.83023  0.68850  1.0000
  H   H276      1.0  0.19544  0.78038  0.61995  1.0000
  C   C273      1.0  0.05626  0.75248  0.03983  1.0000
  H   H277      1.0  0.02999  0.82577  0.83754  1.0000
  N   N22       1.0  0.20672  0.79261  0.35359  1.0000
  H   H278      1.0  0.16675  0.74681  0.03843  1.0000
  C   C274      1.0  0.04985  0.98304  0.71004  1.0000
  C   C275      1.0  0.04291  0.98436  0.62758  1.0000
  Fe  Fe47      1.0  0.23103  0.74852  0.82447  1.0000
  C   C276      1.0  0.02315  0.80129  0.85451  1.0000
  H   H279      1.0  0.18950  0.77738  0.32621  1.0000
  H   H280      1.0  0.01754  0.77774  0.88101  1.0000
  C   C277      1.0  0.05228  0.74854  0.12369  1.0000
  C   C278      1.0  0.22036  0.92914  0.64961  1.0000
  H   H281      1.0  0.20535  0.79696  0.83373  1.0000
  C   C279      1.0  0.22705  0.81147  0.37115  1.0000
  H   H282      1.0  0.18266  0.79765  0.37662  1.0000
  H   H283      1.0  0.22863  0.93396  0.67122  1.0000
  H   H284      1.0  0.17192  0.74700  0.23229  1.0000
  S   S95       1.0  0.23213  0.89218  0.54165  1.0000
  H   H285      1.0  0.99258  0.88519  0.30494  1.0000
  C   C280      1.0  0.18936  0.90900  0.56382  1.0000
  H   H286      1.0  0.04599  0.93520  0.79773  1.0000
  C   C281      1.0  0.23285  0.78642  0.44925  1.0000
  H   H287      1.0  0.15384  0.74040  0.07925  1.0000
  C   C282      1.0  0.22373  0.80134  0.60788  1.0000
  C   C283      1.0  0.06730  0.74226  0.06187  1.0000
  S   S96       1.0  0.99513  0.79574  0.97624  1.0000
  H   H288      1.0  0.99052  0.83872  0.87138  1.0000
  H   H289      1.0  0.99960  0.92464  0.50403  1.0000
  H   H290      1.0  0.01797  0.90175  0.81883  1.0000
  C   C284      1.0  0.23938  0.80109  0.72803  1.0000
  C   C285      1.0  0.99481  0.88679  0.54577  1.0000
  H   H291      1.0  0.99890  0.87900  0.57076  1.0000
  C   C286      1.0  0.23780  0.80056  0.46820  1.0000
  N   N23       1.0  0.23011  0.80020  0.84891  1.0000
  C   C287      1.0  0.99765  0.91152  0.78552  1.0000
  C   C288      1.0  0.23219  0.81312  0.82236  1.0000
  C   C289      1.0  0.99123  0.92499  0.76388  1.0000
  H   H292      1.0  0.99098  0.90030  0.78842  1.0000
  H   H293      1.0  0.23973  0.81473  0.37129  1.0000
  S   S97       1.0  0.34211  0.20075  0.09144  1.0000
  C   C290      1.0  0.31137  0.20051  0.77056  1.0000
  C   C291      1.0  0.25614  0.04872  0.56368  1.0000
  H   H294      1.0  0.41689  0.16065  0.00748  1.0000
  H   H295      1.0  0.41540  0.00247  0.06271  1.0000
  S   S98       1.0  0.25855  0.22759  0.27209  1.0000
  C   C292      1.0  0.35948  0.99946  0.70299  1.0000
  S   S99       1.0  0.33005  0.99883  0.51384  1.0000
  C   C293      1.0  0.35773  0.06112  0.80145  1.0000
  N   N24       1.0  0.29068  0.19872  0.01204  1.0000
  H   H296      1.0  0.28079  0.20844  0.70624  1.0000
  Fe  Fe48      1.0  0.30244  0.00148  0.51659  1.0000
  S   S100      1.0  0.28886  0.02409  0.48954  1.0000
  H   H297      1.0  0.28421  0.20053  0.95011  1.0000
  Fe  Fe49      1.0  0.40384  0.03499  0.79341  1.0000
  S   S101      1.0  0.41663  0.05828  0.80738  1.0000
  S   S102      1.0  0.39489  0.03210  0.72777  1.0000
  Fe  Fe50      1.0  0.40668  0.02227  0.88236  1.0000
  S   S103      1.0  0.41875  0.04488  0.90241  1.0000
  H   H298      1.0  0.26075  0.16424  0.48932  1.0000
  Fe  Fe51      1.0  0.40067  0.05934  0.86399  1.0000
  S   S104      1.0  0.38441  0.08238  0.87558  1.0000
  Fe  Fe52      1.0  0.43409  0.04253  0.84452  1.0000
  S   S105      1.0  0.46143  0.04476  0.85641  1.0000
  S   S106      1.0  0.38720  0.03668  0.84829  1.0000
  S   S107      1.0  0.42269  0.01929  0.82617  1.0000
  Fe  Fe53      1.0  0.37762  0.21273  0.96211  1.0000
  S   S108      1.0  0.38046  0.19439  0.01386  1.0000
  C   C294      1.0  0.30158  0.21242  0.16050  1.0000
  Fe  Fe54      1.0  0.34516  0.19792  0.93835  1.0000
  S   S109      1.0  0.34671  0.17865  0.98822  1.0000
  S   S110      1.0  0.32164  0.19475  0.90446  1.0000
  Fe  Fe55      1.0  0.35357  0.19934  0.02717  1.0000
  C   C295      1.0  0.42141  0.17296  0.94997  1.0000
  Fe  Fe56      1.0  0.37299  0.17523  0.96993  1.0000
  S   S111      1.0  0.38796  0.15089  0.96688  1.0000
  S   S112      1.0  0.35108  0.21883  0.97809  1.0000
  S   S113      1.0  0.37120  0.19329  0.91756  1.0000
  H   H299      1.0  0.41630  0.22026  0.02715  1.0000
  C   C296      1.0  0.38596  0.10151  0.90049  1.0000
  C   C297      1.0  0.39929  0.10522  0.92396  1.0000
  C   C298      1.0  0.39966  0.12035  0.94377  1.0000
  C   C299      1.0  0.38682  0.13211  0.94028  1.0000
  C   C300      1.0  0.37359  0.12847  0.91642  1.0000
  C   C301      1.0  0.37315  0.11329  0.89690  1.0000
  H   H300      1.0  0.40923  0.09637  0.92727  1.0000
  H   H301      1.0  0.40996  0.12291  0.96216  1.0000
  H   H302      1.0  0.36359  0.13727  0.91337  1.0000
  H   H303      1.0  0.36274  0.11063  0.87899  1.0000
  C   C302      1.0  0.48103  0.04139  0.78610  1.0000
  C   C303      1.0  0.48023  0.04313  0.82832  1.0000
  H   H304      1.0  0.44088  0.99409  0.95649  1.0000
  H   H305      1.0  0.46990  0.04112  0.76925  1.0000
  C   C304      1.0  0.24808  0.16284  0.47928  1.0000
  C   C305      1.0  0.46162  0.99020  0.82017  1.0000
  H   H306      1.0  0.43567  0.22427  0.00289  1.0000
  C   C306      1.0  0.40951  0.00097  0.99931  1.0000
  C   C307      1.0  0.30735  0.22437  0.72510  1.0000
  C   C308      1.0  0.36061  0.05474  0.73162  1.0000
  H   H307      1.0  0.33093  0.03236  0.77704  1.0000
  H   H308      1.0  0.41185  0.01366  0.99245  1.0000
  H   H309      1.0  0.25443  0.16626  0.61832  1.0000
  C   C309      1.0  0.42856  0.21486  0.01976  1.0000
  C   C310      1.0  0.35629  0.00269  0.66155  1.0000
  C   C311      1.0  0.36507  0.01489  0.64118  1.0000
  C   C312      1.0  0.37689  0.02353  0.66183  1.0000
  C   C313      1.0  0.38008  0.02031  0.70328  1.0000
  C   C314      1.0  0.37117  0.00824  0.72377  1.0000
  H   H310      1.0  0.25764  0.01085  0.44902  1.0000
  H   H311      1.0  0.36283  0.01764  0.60943  1.0000
  H   H312      1.0  0.38362  0.03284  0.64550  1.0000
  H   H313      1.0  0.27351  0.19072  0.10461  1.0000
  H   H314      1.0  0.29066  0.23298  0.07404  1.0000
  C   C315      1.0  0.25619  0.06260  0.49811  1.0000
  C   C316      1.0  0.26865  0.05160  0.48459  1.0000
  C   C317      1.0  0.27476  0.03892  0.51022  1.0000
  C   C318      1.0  0.26864  0.03776  0.55021  1.0000
  H   H315      1.0  0.25139  0.07199  0.47764  1.0000
  H   H316      1.0  0.27334  0.05271  0.45368  1.0000
  H   H317      1.0  0.27329  0.02825  0.57055  1.0000
  C   C319      1.0  0.29184  0.22188  0.13407  1.0000
  H   H318      1.0  0.25374  0.18741  0.52881  1.0000
  C   C320      1.0  0.31342  0.21949  0.08139  1.0000
  C   C321      1.0  0.32299  0.20964  0.10741  1.0000
  Fe  Fe57      1.0  0.25544  0.23262  0.20466  1.0000
  S   S114      1.0  0.34165  0.99077  0.63681  1.0000
  C   C322      1.0  0.40437  0.99097  0.96855  1.0000
  H   H319      1.0  0.31785  0.22226  0.05086  1.0000
  C   C323      1.0  0.28798  0.20851  0.97476  1.0000
  C   C324      1.0  0.28293  0.18712  0.74497  1.0000
  H   H320      1.0  0.24292  0.18042  0.32032  1.0000
  H   H321      1.0  0.42139  0.18516  0.04762  1.0000
  C   C325      1.0  0.31765  0.22490  0.86539  1.0000
  C   C326      1.0  0.31082  0.21002  0.87656  1.0000
  C   C327      1.0  0.29513  0.20670  0.86365  1.0000
  C   C328      1.0  0.28648  0.21794  0.83875  1.0000
  C   C329      1.0  0.47031  0.00137  0.84165  1.0000
  H   H322      1.0  0.28979  0.19518  0.87209  1.0000
  H   H323      1.0  0.27454  0.21511  0.82840  1.0000
  H   H324      1.0  0.25126  0.04745  0.59436  1.0000
  H   H325      1.0  0.43441  0.01319  0.93281  1.0000
  H   H326      1.0  0.41881  0.16238  0.93223  1.0000
  H   H327      1.0  0.29704  0.20937  0.19078  1.0000
  H   H328      1.0  0.38550  0.99095  0.26468  1.0000
  C   C330      1.0  0.24106  0.18422  0.52836  1.0000
  H   H329      1.0  0.31898  0.17281  0.05318  1.0000
  N   N25       1.0  0.45121  0.99911  0.89775  1.0000
  H   H330      1.0  0.35282  0.99008  0.71926  1.0000
  Fe  Fe58      1.0  0.24477  0.21735  0.70289  1.0000
  C   C331      1.0  0.34043  0.04120  0.77343  1.0000
  H   H331      1.0  0.32234  0.20580  0.78146  1.0000
  H   H332      1.0  0.43046  0.21285  0.93874  1.0000
  C   C332      1.0  0.41146  0.99457  0.03923  1.0000
  C   C333      1.0  0.24823  0.01553  0.46971  1.0000
  C   C334      1.0  0.29346  0.23265  0.82665  1.0000
  H   H333      1.0  0.27859  0.21836  0.97929  1.0000
  C   C335      1.0  0.42035  0.17197  0.99233  1.0000
  C   C336      1.0  0.34808  0.04364  0.73558  1.0000
  H   H334      1.0  0.24708  0.16732  0.44724  1.0000
  H   H335      1.0  0.32435  0.19884  0.16769  1.0000
  C   C337      1.0  0.34520  0.05006  0.80658  1.0000
  H   H336      1.0  0.28825  0.16725  0.78717  1.0000
  N   N26       1.0  0.36548  0.06309  0.76448  1.0000
  C   C338      1.0  0.30447  0.18905  0.01486  1.0000
  H   H337      1.0  0.43498  0.21187  0.04844  1.0000
  H   H338      1.0  0.34466  0.03664  0.70968  1.0000
  C   C339      1.0  0.29800  0.22559  0.09473  1.0000
  C   C340      1.0  0.46490  0.00570  0.88064  1.0000
  C   C341      1.0  0.37886  0.07440  0.75942  1.0000
  H   H339      1.0  0.42554  0.18876  0.89770  1.0000
  H   H340      1.0  0.33941  0.04825  0.83625  1.0000
  C   C342      1.0  0.30661  0.18545  0.78698  1.0000
  H   H341      1.0  0.29941  0.21446  0.96459  1.0000
  S   S115      1.0  0.25218  0.19543  0.66503  1.0000
  H   H342      1.0  0.37473  0.08552  0.74223  1.0000
  H   H343      1.0  0.38346  0.07817  0.78919  1.0000
  H   H344      1.0  0.38930  0.06842  0.74287  1.0000
  H   H345      1.0  0.26849  0.20674  0.04135  1.0000
  H   H346      1.0  0.27171  0.18210  0.73464  1.0000
  C   C343      1.0  0.31705  0.20638  0.14722  1.0000
  C   C344      1.0  0.44498  0.00460  0.93736  1.0000
  H   H347      1.0  0.24573  0.14954  0.48027  1.0000
  H   H348      1.0  0.31374  0.23137  0.74811  1.0000
  H   H349      1.0  0.45431  0.01101  0.95426  1.0000
  S   S116      1.0  0.40200  0.99815  0.91730  1.0000
  H   H350      1.0  0.31556  0.22227  0.69840  1.0000
  H   H351      1.0  0.31326  0.18873  0.98984  1.0000
  N   N27       1.0  0.30201  0.20874  0.74243  1.0000
  H   H352      1.0  0.24545  0.15421  0.35976  1.0000
  H   H353      1.0  0.29676  0.23225  0.71570  1.0000
  S   S117      1.0  0.27155  0.22849  0.14719  1.0000
  C   C345      1.0  0.29640  0.18035  0.08273  1.0000
  C   C346      1.0  0.30763  0.17984  0.05032  1.0000
  C   C347      1.0  0.27940  0.19900  0.04330  1.0000
  C   C348      1.0  0.29223  0.17879  0.77424  1.0000
  H   H354      1.0  0.29900  0.17374  0.11093  1.0000
  H   H355      1.0  0.37333  0.00559  0.75561  1.0000
  C   C349      1.0  0.28809  0.20211  0.72909  1.0000
  C   C350      1.0  0.28210  0.18986  0.07914  1.0000
  H   H356      1.0  0.37500  0.99230  0.51947  1.0000
  H   H357      1.0  0.36141  0.06787  0.82746  1.0000
  N   N28       1.0  0.42680  0.20026  0.99562  1.0000
  C   C351      1.0  0.42291  0.18587  0.01481  1.0000
  C   C352      1.0  0.42793  0.20132  0.95407  1.0000
  H   H358      1.0  0.36687  0.05619  0.70241  1.0000
  C   C353      1.0  0.42518  0.18772  0.93063  1.0000
  H   H359      1.0  0.32971  0.22759  0.87527  1.0000
  S   S118      1.0  0.39859  0.22930  0.94002  1.0000
  H   H360      1.0  0.31382  0.17927  0.81037  1.0000
  S   S119      1.0  0.24674  0.21702  0.77088  1.0000
  C   C354      1.0  0.30897  0.23618  0.84047  1.0000
  S   S120      1.0  0.30014  0.99159  0.58070  1.0000
  C   C355      1.0  0.25770  0.99568  0.52169  1.0000
  H   H361      1.0  0.47145  0.01480  0.89651  1.0000
  C   C356      1.0  0.24961  0.06104  0.53759  1.0000
  H   H362      1.0  0.26845  0.00079  0.53605  1.0000
  H   H363      1.0  0.48092  0.00703  0.82784  1.0000
  C   C357      1.0  0.24181  0.16822  0.62744  1.0000
  N   N29       1.0  0.24666  0.00904  0.50829  1.0000
  H   H364      1.0  0.39417  0.00324  0.22421  1.0000
  H   H365      1.0  0.39273  0.99259  0.15258  1.0000
  C   C358      1.0  0.39062  0.99067  0.23312  1.0000
  C   C359      1.0  0.40325  0.36789  0.49329  1.0000
  C   C360      1.0  0.40946  0.25236  0.99444  1.0000
  H   H366      1.0  0.31154  0.24848  0.26466  1.0000
  C   C361      1.0  0.41179  0.24464  0.95715  1.0000
  H   H367      1.0  0.44136  0.33147  0.82432  1.0000
  S   S121      1.0  0.26593  0.26751  0.32637  1.0000
  Fe  Fe59      1.0  0.41013  0.40028  0.62368  1.0000
  S   S122      1.0  0.42994  0.38064  0.62690  1.0000
  S   S123      1.0  0.38344  0.39240  0.62594  1.0000
  Fe  Fe60      1.0  0.43505  0.42790  0.62748  1.0000
  S   S124      1.0  0.45630  0.40978  0.63036  1.0000
  S   S125      1.0  0.44256  0.45464  0.61969  1.0000
  Fe  Fe61      1.0  0.44364  0.39661  0.58150  1.0000
  S   S126      1.0  0.45305  0.38674  0.52046  1.0000
  Fe  Fe62      1.0  0.44106  0.39527  0.67579  1.0000
  S   S127      1.0  0.44907  0.38772  0.74093  1.0000
  S   S128      1.0  0.42318  0.41536  0.57595  1.0000
  S   S129      1.0  0.42045  0.41428  0.67525  1.0000
  Fe  Fe63      1.0  0.28122  0.34445  0.55716  1.0000
  S   S130      1.0  0.29703  0.34119  0.50118  1.0000
  S   S131      1.0  0.28383  0.32644  0.60992  1.0000
  Fe  Fe64      1.0  0.26585  0.37706  0.52681  1.0000
  S   S132      1.0  0.28072  0.37609  0.46834  1.0000
  C   C362      1.0  0.37824  0.35587  0.51701  1.0000
  Fe  Fe65      1.0  0.27460  0.34925  0.46714  1.0000
  S   S133      1.0  0.26310  0.33704  0.41279  1.0000
  Fe  Fe66      1.0  0.30211  0.36796  0.50748  1.0000
  S   S134      1.0  0.32809  0.37753  0.49852  1.0000
  S   S135      1.0  0.25850  0.35085  0.52347  1.0000
  S   S136      1.0  0.28758  0.37054  0.56555  1.0000
  C   C363      1.0  0.48359  0.40017  0.50831  1.0000
  Fe  Fe67      1.0  0.47101  0.29599  0.97693  1.0000
  H   H368      1.0  0.28766  0.26078  0.13699  1.0000
  S   S137      1.0  0.44740  0.28359  0.99947  1.0000
  H   H369      1.0  0.47321  0.44493  0.69221  1.0000
  C   C364      1.0  0.24976  0.28338  0.52101  1.0000
  H   H370      1.0  0.37517  0.35533  0.61762  1.0000
  S   S138      1.0  0.47153  0.32347  0.96691  1.0000
  H   H371      1.0  0.48192  0.42583  0.37604  1.0000
  H   H372      1.0  0.43055  0.31247  0.96581  1.0000
  H   H373      1.0  0.43801  0.42025  0.76721  1.0000
  C   C365      1.0  0.43652  0.26049  0.94518  1.0000
  C   C366      1.0  0.43410  0.26833  0.98231  1.0000
  C   C367      1.0  0.42048  0.26412  0.00675  1.0000
  H   H374      1.0  0.25386  0.33166  0.69610  1.0000
  H   H375      1.0  0.44697  0.26335  0.92607  1.0000
  C   C368      1.0  0.44945  0.29992  0.83714  1.0000
  H   H376      1.0  0.45927  0.29214  0.85104  1.0000
  C   C369      1.0  0.45795  0.37064  0.76878  1.0000
  C   C370      1.0  0.46352  0.35627  0.75013  1.0000
  S   S139      1.0  0.24910  0.25930  0.21323  1.0000
  C   C371      1.0  0.47228  0.34434  0.81597  1.0000
  C   C372      1.0  0.46656  0.35863  0.83471  1.0000
  C   C373      1.0  0.45952  0.37165  0.81128  1.0000
  H   H377      1.0  0.46249  0.35520  0.71759  1.0000
  C   C374      1.0  0.37362  0.34856  0.58910  1.0000
  H   H378      1.0  0.46765  0.35972  0.86723  1.0000
  H   H379      1.0  0.45532  0.38265  0.82625  1.0000
  C   C375      1.0  0.36765  0.39007  0.59016  1.0000
  C   C376      1.0  0.36981  0.39332  0.54843  1.0000
  C   C377      1.0  0.35739  0.38987  0.52110  1.0000
  C   C378      1.0  0.34266  0.38307  0.53491  1.0000
  C   C379      1.0  0.34035  0.38023  0.57674  1.0000
  C   C380      1.0  0.35271  0.38377  0.60408  1.0000
  H   H380      1.0  0.38113  0.39825  0.53713  1.0000
  H   H381      1.0  0.35930  0.39227  0.48889  1.0000
  H   H382      1.0  0.32910  0.37511  0.58800  1.0000
  H   H383      1.0  0.35080  0.38130  0.63626  1.0000
  H   H384      1.0  0.27210  0.36481  0.70290  1.0000
  H   H385      1.0  0.29044  0.30492  0.53096  1.0000
  N   N30       1.0  0.25709  0.35358  0.66087  1.0000
  H   H386      1.0  0.42075  0.37162  0.53966  1.0000
  N   N31       1.0  0.38372  0.35542  0.55601  1.0000
  H   H387      1.0  0.46893  0.47475  0.68236  1.0000
  N   N32       1.0  0.46348  0.43436  0.48289  1.0000
  H   H388      1.0  0.27614  0.30138  0.21410  1.0000
  C   C381      1.0  0.48496  0.43773  0.43285  1.0000
  C   C382      1.0  0.43635  0.47331  0.64320  1.0000
  C   C383      1.0  0.42511  0.47398  0.67576  1.0000
  C   C384      1.0  0.39884  0.36083  0.56421  1.0000
  H   H389      1.0  0.41928  0.46295  0.68627  1.0000
  C   C385      1.0  0.25040  0.36454  0.63348  1.0000
  C   C386      1.0  0.47647  0.42865  0.40554  1.0000
  H   H390      1.0  0.46112  0.41928  0.71762  1.0000
  C   C387      1.0  0.26472  0.28689  0.35019  1.0000
  C   C388      1.0  0.27647  0.29046  0.37894  1.0000
  C   C389      1.0  0.27628  0.30570  0.39820  1.0000
  C   C390      1.0  0.26430  0.31765  0.38894  1.0000
  H   H391      1.0  0.24233  0.29777  0.44023  1.0000
  C   C391      1.0  0.25275  0.29883  0.34091  1.0000
  H   H392      1.0  0.28586  0.28140  0.38625  1.0000
  H   H393      1.0  0.28556  0.30826  0.41968  1.0000
  C   C392      1.0  0.24521  0.28901  0.64218  1.0000
  C   C393      1.0  0.44369  0.48785  0.62991  1.0000
  H   H394      1.0  0.41085  0.37294  0.46900  1.0000
  H   H395      1.0  0.37704  0.33550  0.59449  1.0000
  C   C394      1.0  0.26011  0.28849  0.66179  1.0000
  C   C395      1.0  0.27180  0.30014  0.65177  1.0000
  C   C396      1.0  0.26873  0.31225  0.62183  1.0000
  C   C397      1.0  0.47142  0.39076  0.49265  1.0000
  H   H396      1.0  0.28133  0.36172  0.65303  1.0000
  H   H397      1.0  0.26263  0.27910  0.68471  1.0000
  H   H398      1.0  0.28332  0.29966  0.66708  1.0000
  H   H399      1.0  0.27931  0.34475  0.68711  1.0000
  C   C398      1.0  0.47064  0.34329  0.77353  1.0000
  C   C399      1.0  0.45512  0.42535  0.45637  1.0000
  Fe  Fe68      1.0  0.48602  0.31788  0.90963  1.0000
  C   C400      1.0  0.25379  0.31283  0.60231  1.0000
  C   C401      1.0  0.42539  0.24888  0.93264  1.0000
  C   C402      1.0  0.43897  0.32724  0.85531  1.0000
  H   H400      1.0  0.43979  0.29208  0.82623  1.0000
  C   C403      1.0  0.43265  0.33836  0.88361  1.0000
  C   C404      1.0  0.43279  0.31676  0.93473  1.0000
  C   C405      1.0  0.42960  0.33306  0.92362  1.0000
  H   H401      1.0  0.45783  0.42471  0.54162  1.0000
  C   C406      1.0  0.29987  0.25497  0.27249  1.0000
  H   H402      1.0  0.28501  0.28001  0.57299  1.0000
  H   H403      1.0  0.43038  0.35103  0.87455  1.0000
  C   C407      1.0  0.25259  0.31408  0.36010  1.0000
  H   H404      1.0  0.42489  0.34156  0.94607  1.0000
  S   S140      1.0  0.48444  0.29041  0.91848  1.0000
  H   H405      1.0  0.45522  0.30642  0.81072  1.0000
  H   H406      1.0  0.44210  0.29350  0.91491  1.0000
  N   N33       1.0  0.44260  0.31142  0.86685  1.0000
  C   C408      1.0  0.27916  0.29860  0.52777  1.0000
  H   H407      1.0  0.46347  0.44576  0.54110  1.0000
  C   C409      1.0  0.46143  0.42244  0.41724  1.0000
  H   H408      1.0  0.47496  0.33234  0.75849  1.0000
  C   C410      1.0  0.45646  0.43095  0.72852  1.0000
  C   C411      1.0  0.24853  0.34044  0.67463  1.0000
  H   H409      1.0  0.45506  0.41482  0.39679  1.0000
  C   C412      1.0  0.38786  0.36222  0.48512  1.0000
  H   H410      1.0  0.41840  0.27005  0.03552  1.0000
  C   C413      1.0  0.44352  0.43150  0.75659  1.0000
  H   H411      1.0  0.48522  0.44703  0.49317  1.0000
  H   H412      1.0  0.36047  0.34969  0.58196  1.0000
  H   H413      1.0  0.26963  0.31581  0.48354  1.0000
  C   C414      1.0  0.47826  0.44046  0.47169  1.0000
  C   C415      1.0  0.40882  0.36716  0.53303  1.0000
  H   H414      1.0  0.36613  0.35185  0.51055  1.0000
  C   C416      1.0  0.26726  0.30481  0.50137  1.0000
  C   C417      1.0  0.27321  0.35641  0.67700  1.0000
  C   C418      1.0  0.26135  0.27688  0.54791  1.0000
  S   S141      1.0  0.48078  0.32711  0.84387  1.0000
  H   H415      1.0  0.40308  0.36061  0.59520  1.0000
  H   H416      1.0  0.38327  0.36298  0.45446  1.0000
  N   N34       1.0  0.29390  0.26465  0.23754  1.0000
  C   C419      1.0  0.29395  0.25774  0.20012  1.0000
  C   C420      1.0  0.28763  0.28016  0.24266  1.0000
  C   C421      1.0  0.28786  0.26648  0.16642  1.0000
  C   C422      1.0  0.28136  0.28922  0.20967  1.0000
  C   C423      1.0  0.28151  0.28231  0.17130  1.0000
  Fe  Fe69      1.0  0.25067  0.25406  0.28056  1.0000
  H   H417      1.0  0.25128  0.32218  0.57938  1.0000
  H   H418      1.0  0.28718  0.28552  0.27252  1.0000
  S   S142      1.0  0.28359  0.24646  0.79257  1.0000
  H   H419      1.0  0.27641  0.28907  0.14558  1.0000
  H   H420      1.0  0.48235  0.40457  0.53897  1.0000
  C   C424      1.0  0.45690  0.43649  0.52429  1.0000
  H   H421      1.0  0.39909  0.24938  0.01373  1.0000
  N   N35       1.0  0.45758  0.46019  0.72864  1.0000
  C   C425      1.0  0.43937  0.30606  0.90581  1.0000
  H   H422      1.0  0.31441  0.24759  0.83137  1.0000
  H   H423      1.0  0.24050  0.46246  0.49460  1.0000
  S   S143      1.0  0.24764  0.39593  0.55434  1.0000
  C   C426      1.0  0.27613  0.28458  0.55127  1.0000
  H   H424      1.0  0.44390  0.44063  0.52369  1.0000
  H   H425      1.0  0.44379  0.41983  0.46600  1.0000
  H   H426      1.0  0.29846  0.24529  0.19626  1.0000
  H   H427      1.0  0.24332  0.45256  0.56566  1.0000
  H   H428      1.0  0.24327  0.32321  0.35254  1.0000
  N   N36       1.0  0.25273  0.29729  0.49856  1.0000
  C   C427      1.0  0.47350  0.38488  0.45292  1.0000
  H   H429      1.0  0.46424  0.37749  0.44053  1.0000
  Fe  Fe70      1.0  0.26017  0.24022  0.76227  1.0000
  H   H430      1.0  0.47671  0.47674  0.73306  1.0000
  H   H431      1.0  0.25705  0.37512  0.62297  1.0000
  H   H432      1.0  0.24365  0.29636  0.31883  1.0000
  C   C428      1.0  0.43768  0.44654  0.77070  1.0000
  H   H433      1.0  0.42740  0.24306  0.90373  1.0000
  C   C429      1.0  0.46333  0.44549  0.71457  1.0000
  H   H434      1.0  0.44045  0.47251  0.76778  1.0000
  H   H435      1.0  0.42756  0.44709  0.79238  1.0000
  H   H436      1.0  0.29069  0.24590  0.28206  1.0000
  H   H437      1.0  0.24343  0.40994  0.47153  1.0000
  H   H438      1.0  0.30192  0.26273  0.29904  1.0000
  C   C430      1.0  0.24201  0.30129  0.61269  1.0000
  C   C431      1.0  0.46558  0.47518  0.71527  1.0000
  C   C432      1.0  0.44502  0.46085  0.75664  1.0000
  H   H439      1.0  0.25867  0.26627  0.56700  1.0000
  H   H440      1.0  0.45739  0.48612  0.71917  1.0000
  H   H441      1.0  0.24160  0.31715  0.46496  1.0000
  H   H442      1.0  0.45239  0.48755  0.60475  1.0000
  C   C433      1.0  0.48733  0.38875  0.42866  1.0000
  H   H443      1.0  0.48857  0.38442  0.39791  1.0000
  H   H444      1.0  0.41305  0.48921  0.72074  1.0000
  C   C434      1.0  0.42161  0.48890  0.69529  1.0000
  C   C435      1.0  0.24055  0.30375  0.47004  1.0000
  S   S144      1.0  0.26012  0.23941  0.69406  1.0000
  H   H445      1.0  0.35496  0.53483  0.68591  1.0000
  H   H446      1.0  0.33623  0.55663  0.65498  1.0000
  C   C436      1.0  0.26749  0.64788  0.81453  1.0000
  S   S145      1.0  0.25676  0.71966  0.89472  1.0000
  Fe  Fe71      1.0  0.25620  0.72055  0.82615  1.0000
  S   S146      1.0  0.27305  0.70329  0.79003  1.0000
  Fe  Fe72      1.0  0.28404  0.62852  0.56344  1.0000
  S   S147      1.0  0.25871  0.62362  0.58533  1.0000
  S   S148      1.0  0.28970  0.64649  0.51163  1.0000
  Fe  Fe73      1.0  0.29977  0.60551  0.62756  1.0000
  S   S149      1.0  0.27498  0.59911  0.65438  1.0000
  S   S150      1.0  0.32249  0.59370  0.65806  1.0000
  Fe  Fe74      1.0  0.26666  0.59705  0.58976  1.0000
  H   H447      1.0  0.27126  0.63888  0.83853  1.0000
  Fe  Fe75      1.0  0.26883  0.62614  0.64784  1.0000
  H   H448      1.0  0.31044  0.71923  0.07440  1.0000
  S   S151      1.0  0.29181  0.60191  0.56334  1.0000
  S   S152      1.0  0.29385  0.63261  0.62562  1.0000
  Fe  Fe76      1.0  0.47323  0.67607  0.02639  1.0000
  C   C437      1.0  0.24539  0.67174  0.60748  1.0000
  S   S153      1.0  0.44911  0.69113  0.02141  1.0000
  Fe  Fe77      1.0  0.24027  0.71535  0.38645  1.0000
  S   S154      1.0  0.47201  0.64867  0.03363  1.0000
  Fe  Fe78      1.0  0.42101  0.57929  0.65543  1.0000
  S   S155      1.0  0.41946  0.56924  0.71922  1.0000
  S   S156      1.0  0.39956  0.59166  0.62160  1.0000
  Fe  Fe79      1.0  0.45749  0.56916  0.64644  1.0000
  S   S157      1.0  0.45784  0.55848  0.71077  1.0000
  S   S158      1.0  0.48176  0.56587  0.61089  1.0000
  Fe  Fe80      1.0  0.43400  0.54751  0.69476  1.0000
  S   S159      1.0  0.42503  0.52168  0.70970  1.0000
  Fe  Fe81      1.0  0.44351  0.58122  0.72971  1.0000
  S   S160      1.0  0.44493  0.59899  0.78401  1.0000
  S   S161      1.0  0.43434  0.55710  0.63025  1.0000
  S   S162      1.0  0.44433  0.59237  0.66604  1.0000
  H   H449      1.0  0.47816  0.58907  0.47060  1.0000
  H   H450      1.0  0.28056  0.64428  0.41087  1.0000
  C   C438      1.0  0.26786  0.61995  0.45230  1.0000
  C   C439      1.0  0.42918  0.50339  0.68243  1.0000
  C   C440      1.0  0.44015  0.50278  0.64931  1.0000
  C   C441      1.0  0.26240  0.67086  0.60567  1.0000
  H   H451      1.0  0.44610  0.51376  0.63901  1.0000
  C   C442      1.0  0.44781  0.66575  0.13935  1.0000
  C   C443      1.0  0.47522  0.62000  0.88858  1.0000
  C   C444      1.0  0.45964  0.62630  0.87951  1.0000
  C   C445      1.0  0.45067  0.61972  0.84770  1.0000
  C   C446      1.0  0.45706  0.60679  0.82396  1.0000
  C   C447      1.0  0.47271  0.60059  0.83282  1.0000
  C   C448      1.0  0.47942  0.57928  0.53209  1.0000
  H   H452      1.0  0.33643  0.54269  0.61304  1.0000
  H   H453      1.0  0.43863  0.62471  0.84149  1.0000
  H   H454      1.0  0.29328  0.66710  0.58547  1.0000
  N   N37       1.0  0.27086  0.68062  0.57890  1.0000
  C   C449      1.0  0.24577  0.69289  0.55520  1.0000
  C   C450      1.0  0.34394  0.59409  0.64816  1.0000
  C   C451      1.0  0.35454  0.58618  0.67597  1.0000
  C   C452      1.0  0.37154  0.58528  0.66846  1.0000
  C   C453      1.0  0.37822  0.59240  0.63301  1.0000
  C   C454      1.0  0.36765  0.60047  0.60546  1.0000
  C   C455      1.0  0.35065  0.60129  0.61288  1.0000
  H   H455      1.0  0.34953  0.58055  0.70339  1.0000
  H   H456      1.0  0.37946  0.57904  0.69003  1.0000
  H   H457      1.0  0.37263  0.60604  0.57792  1.0000
  H   H458      1.0  0.34271  0.60736  0.59107  1.0000
  C   C456      1.0  0.43086  0.72039  0.11245  1.0000
  C   C457      1.0  0.44125  0.70975  0.08986  1.0000
  C   C458      1.0  0.43720  0.70549  0.05048  1.0000
  C   C459      1.0  0.42278  0.71230  0.03394  1.0000
  H   H459      1.0  0.45229  0.70469  0.10307  1.0000
  H   H460      1.0  0.41946  0.70909  0.00358  1.0000
  C   C460      1.0  0.24278  0.63256  0.43249  1.0000
  C   C461      1.0  0.26704  0.68754  0.75809  1.0000
  C   C462      1.0  0.27911  0.67790  0.73833  1.0000
  C   C463      1.0  0.27499  0.66421  0.71606  1.0000
  C   C464      1.0  0.25871  0.66002  0.71347  1.0000
  H   H461      1.0  0.39705  0.55573  0.59032  1.0000
  H   H462      1.0  0.29178  0.68076  0.74132  1.0000
  H   H463      1.0  0.28446  0.65656  0.70234  1.0000
  H   H464      1.0  0.25427  0.64837  0.51938  1.0000
  C   C465      1.0  0.25818  0.65807  0.49899  1.0000
  C   C466      1.0  0.27475  0.66001  0.49067  1.0000
  C   C467      1.0  0.27959  0.67268  0.46391  1.0000
  C   C468      1.0  0.26796  0.68327  0.44541  1.0000
  H   H465      1.0  0.29240  0.67424  0.45715  1.0000
  H   H466      1.0  0.27181  0.69295  0.42475  1.0000
  H   H467      1.0  0.30768  0.72364  0.21628  1.0000
  C   C469      1.0  0.38052  0.53503  0.67103  1.0000
  C   C470      1.0  0.26278  0.69170  0.55424  1.0000
  H   H468      1.0  0.43069  0.64262  0.02641  1.0000
  N   N38       1.0  0.25268  0.65687  0.82772  1.0000
  H   H469      1.0  0.36798  0.56283  0.58000  1.0000
  S   S163      1.0  0.25204  0.57806  0.55610  1.0000
  C   C471      1.0  0.28869  0.67970  0.57793  1.0000
  C   C472      1.0  0.25387  0.67026  0.85136  1.0000
  C   C473      1.0  0.39239  0.54081  0.64391  1.0000
  H   H470      1.0  0.32411  0.73485  0.05911  1.0000
  C   C474      1.0  0.29144  0.73760  0.12100  1.0000
  C   C475      1.0  0.41640  0.72714  0.09595  1.0000
  C   C476      1.0  0.24659  0.67005  0.73173  1.0000
  H   H471      1.0  0.26909  0.63605  0.37022  1.0000
  H   H472      1.0  0.46699  0.58281  0.54001  1.0000
  H   H473      1.0  0.28696  0.72540  0.11808  1.0000
  H   H474      1.0  0.40148  0.72819  0.04305  1.0000
  H   H475      1.0  0.24128  0.69115  0.76866  1.0000
  C   C477      1.0  0.24656  0.66848  0.48004  1.0000
  S   S164      1.0  0.48753  0.62808  0.92779  1.0000
  C   C478      1.0  0.34249  0.55325  0.62588  1.0000
  H   H476      1.0  0.40511  0.53753  0.64858  1.0000
  S   S165      1.0  0.26174  0.73165  0.38440  1.0000
  Fe  Fe82      1.0  0.48902  0.64711  0.97916  1.0000
  C   C479      1.0  0.45320  0.63686  0.13227  1.0000
  S   S166      1.0  0.25303  0.64165  0.69106  1.0000
  C   C480      1.0  0.44315  0.63715  0.09852  1.0000
  H   H477      1.0  0.27757  0.65636  0.80809  1.0000
  C   C481      1.0  0.31104  0.73231  0.06514  1.0000
  H   H478      1.0  0.48894  0.64830  0.84745  1.0000
  C   C482      1.0  0.48405  0.54624  0.43134  1.0000
  C   C483      1.0  0.30735  0.73610  0.22645  1.0000
  N   N39       1.0  0.35977  0.54922  0.63232  1.0000
  H   H479      1.0  0.45443  0.63622  0.89708  1.0000
  H   H480      1.0  0.26639  0.60036  0.49732  1.0000
  H   H481      1.0  0.47791  0.59065  0.81526  1.0000
  H   H482      1.0  0.45963  0.62568  0.14177  1.0000
  C   C484      1.0  0.45566  0.65130  0.15249  1.0000
  C   C485      1.0  0.25967  0.60942  0.47923  1.0000
  H   H483      1.0  0.43406  0.72342  0.14302  1.0000
  H   H484      1.0  0.26569  0.67479  0.85867  1.0000
  C   C486      1.0  0.37136  0.55483  0.60539  1.0000
  H   H485      1.0  0.44972  0.67707  0.15466  1.0000
  H   H486      1.0  0.42637  0.66385  0.03245  1.0000
  C   C487      1.0  0.43780  0.66557  0.10558  1.0000
  C   C488      1.0  0.48916  0.57121  0.56109  1.0000
  Fe  Fe83      1.0  0.25925  0.73185  0.31621  1.0000
  H   H487      1.0  0.44170  0.62595  0.08228  1.0000
  H   H488      1.0  0.24081  0.68915  0.88448  1.0000
  H   H489      1.0  0.47365  0.55470  0.43011  1.0000
  H   H490      1.0  0.38410  0.52728  0.69678  1.0000
  H   H491      1.0  0.29348  0.68824  0.60004  1.0000
  C   C489      1.0  0.25070  0.68377  0.75388  1.0000
  H   H492      1.0  0.34079  0.56398  0.60484  1.0000
  C   C490      1.0  0.36414  0.53936  0.66470  1.0000
  C   C491      1.0  0.48581  0.58282  0.49272  1.0000
  N   N40       1.0  0.40831  0.62402  0.68532  1.0000
  C   C492      1.0  0.39181  0.62442  0.68066  1.0000
  C   C493      1.0  0.41492  0.61794  0.72056  1.0000
  C   C494      1.0  0.38146  0.61883  0.71199  1.0000
  C   C495      1.0  0.40495  0.61213  0.75239  1.0000
  C   C496      1.0  0.38811  0.61257  0.74798  1.0000
  C   C497      1.0  0.41890  0.62933  0.65140  1.0000
  H   H493      1.0  0.38660  0.62856  0.65206  1.0000
  H   H494      1.0  0.42800  0.61738  0.72415  1.0000
  H   H495      1.0  0.36840  0.61885  0.70775  1.0000
  H   H496      1.0  0.41034  0.60711  0.78002  1.0000
  H   H497      1.0  0.38026  0.60786  0.77219  1.0000
  H   H498      1.0  0.41990  0.61963  0.62836  1.0000
  H   H499      1.0  0.41390  0.64070  0.63672  1.0000
  H   H500      1.0  0.43136  0.63180  0.66164  1.0000
  N   N41       1.0  0.43597  0.65150  0.08494  1.0000
  H   H501      1.0  0.43179  0.67684  0.09537  1.0000
  C   C498      1.0  0.24276  0.61066  0.48290  1.0000
  C   C499      1.0  0.48163  0.60709  0.86481  1.0000
  C   C500      1.0  0.38784  0.55083  0.61097  1.0000
  S   S167      1.0  0.27984  0.72737  0.26953  1.0000
  C   C501      1.0  0.41250  0.72312  0.05633  1.0000
  H   H502      1.0  0.46395  0.65130  0.17772  1.0000
  H   H503      1.0  0.29361  0.68265  0.54693  1.0000
  C   C502      1.0  0.42598  0.65175  0.04858  1.0000
  H   H504      1.0  0.48680  0.54461  0.36622  1.0000
  H   H505      1.0  0.26946  0.69936  0.53277  1.0000
  C   C503      1.0  0.25137  0.68114  0.45326  1.0000
  H   H506      1.0  0.41317  0.64918  0.05718  1.0000
  N   N42       1.0  0.25940  0.63138  0.42948  1.0000
  C   C504      1.0  0.26812  0.64190  0.40026  1.0000
  H   H507      1.0  0.28105  0.61909  0.45031  1.0000
  H   H508      1.0  0.26175  0.65402  0.39669  1.0000
  H   H509      1.0  0.48490  0.54611  0.49642  1.0000
  H   H510      1.0  0.26556  0.64131  0.78591  1.0000
  H   H511      1.0  0.26877  0.66223  0.62562  1.0000
  H   H512      1.0  0.30439  0.73447  0.03636  1.0000
  S   S168      1.0  0.48949  0.67447  0.96989  1.0000
  C   C505      1.0  0.29005  0.76341  0.15471  1.0000
  H   H513      1.0  0.36509  0.94313  0.48817  1.0000
  C   C506      1.0  0.35478  0.94354  0.37268  1.0000
  H   H514      1.0  0.34763  0.93318  0.38187  1.0000
  H   H515      1.0  0.42568  0.75715  0.98911  1.0000
  S   S169      1.0  0.26869  0.76456  0.93306  1.0000
  Fe  Fe84      1.0  0.37335  0.79435  0.10045  1.0000
  S   S170      1.0  0.37663  0.77784  0.15522  1.0000
  S   S171      1.0  0.38930  0.81692  0.10240  1.0000
  Fe  Fe85      1.0  0.35254  0.76858  0.06007  1.0000
  S   S172      1.0  0.35483  0.75077  0.11319  1.0000
  S   S173      1.0  0.34034  0.75855  0.00465  1.0000
  Fe  Fe86      1.0  0.35001  0.77300  0.15086  1.0000
  S   S174      1.0  0.33283  0.77749  0.20488  1.0000
  Fe  Fe87      1.0  0.38139  0.75717  0.11206  1.0000
  C   C507      1.0  0.36374  0.95554  0.62411  1.0000
  S   S175      1.0  0.34630  0.79060  0.09791  1.0000
  S   S176      1.0  0.37940  0.77384  0.05724  1.0000
  H   H516      1.0  0.24883  0.89987  0.61718  1.0000
  S   S177      1.0  0.28107  0.94847  0.58523  1.0000
  H   H517      1.0  0.38908  0.80878  0.19159  1.0000
  S   S178      1.0  0.32539  0.96220  0.55327  1.0000
  Fe  Fe88      1.0  0.39610  0.91289  0.16439  1.0000
  S   S179      1.0  0.40912  0.91320  0.22407  1.0000
  S   S180      1.0  0.37886  0.89242  0.14811  1.0000
  Fe  Fe89      1.0  0.40774  0.94732  0.13833  1.0000
  S   S181      1.0  0.42135  0.94928  0.19659  1.0000
  S   S182      1.0  0.41096  0.97095  0.10019  1.0000
  Fe  Fe90      1.0  0.43000  0.92351  0.18623  1.0000
  S   S183      1.0  0.45614  0.91288  0.18841  1.0000
  Fe  Fe91      1.0  0.39924  0.93921  0.22965  1.0000
  S   S184      1.0  0.38968  0.95451  0.28447  1.0000
  S   S185      1.0  0.41744  0.92181  0.12639  1.0000
  S   S186      1.0  0.38523  0.93857  0.17162  1.0000
  H   H518      1.0  0.24802  0.91674  0.49269  1.0000
  C   C508      1.0  0.47525  0.92214  0.17953  1.0000
  H   H519      1.0  0.37421  0.98132  0.10326  1.0000
  C   C509      1.0  0.47666  0.93906  0.17524  1.0000
  H   H520      1.0  0.26218  0.79337  0.57216  1.0000
  H   H521      1.0  0.46598  0.94696  0.17907  1.0000
  H   H522      1.0  0.45381  0.91860  0.09254  1.0000
  C   C510      1.0  0.33949  0.83919  0.21159  1.0000
  C   C511      1.0  0.37348  0.96992  0.34861  1.0000
  C   C512      1.0  0.37530  0.95537  0.32663  1.0000
  C   C513      1.0  0.36572  0.94222  0.33886  1.0000
  C   C514      1.0  0.35296  0.95808  0.39467  1.0000
  C   C515      1.0  0.37247  0.97981  0.52850  1.0000
  H   H523      1.0  0.48846  0.89900  0.17879  1.0000
  H   H524      1.0  0.36687  0.93092  0.32259  1.0000
  C   C516      1.0  0.35265  0.84946  0.21364  1.0000
  C   C517      1.0  0.42437  0.76607  0.01289  1.0000
  C   C518      1.0  0.25235  0.91776  0.52329  1.0000
  C   C519      1.0  0.26320  0.93021  0.53186  1.0000
  C   C520      1.0  0.26873  0.93196  0.57140  1.0000
  C   C521      1.0  0.26344  0.92083  0.60194  1.0000
  C   C522      1.0  0.36701  0.95216  0.51105  1.0000
  C   C523      1.0  0.46449  0.92536  0.08340  1.0000
  H   H525      1.0  0.26708  0.93862  0.50797  1.0000
  C   C524      1.0  0.44775  0.98342  0.83798  1.0000
  H   H526      1.0  0.36932  0.94342  0.63214  1.0000
  H   H527      1.0  0.36028  0.80284  0.20983  1.0000
  H   H528      1.0  0.43802  0.75624  0.12636  1.0000
  C   C525      1.0  0.36496  0.94823  0.55242  1.0000
  C   C526      1.0  0.38600  0.83795  0.11449  1.0000
  C   C527      1.0  0.39950  0.84727  0.12353  1.0000
  C   C528      1.0  0.39761  0.86390  0.13373  1.0000
  C   C529      1.0  0.38215  0.87156  0.13443  1.0000
  C   C530      1.0  0.36867  0.86228  0.12488  1.0000
  C   C531      1.0  0.37053  0.84558  0.11528  1.0000
  H   H529      1.0  0.41156  0.84161  0.12278  1.0000
  H   H530      1.0  0.40812  0.87081  0.14086  1.0000
  H   H531      1.0  0.35666  0.86806  0.12500  1.0000
  H   H532      1.0  0.36001  0.83870  0.10809  1.0000
  H   H533      1.0  0.39074  0.81497  0.24382  1.0000
  C   C532      1.0  0.32021  0.76035  0.98602  1.0000
  C   C533      1.0  0.30893  0.77230  0.99940  1.0000
  C   C534      1.0  0.29318  0.77330  0.98315  1.0000
  C   C535      1.0  0.28847  0.76234  0.95364  1.0000
  S   S187      1.0  0.25834  0.74803  0.82228  1.0000
  H   H534      1.0  0.38076  0.98022  0.33982  1.0000
  H   H535      1.0  0.31244  0.78103  0.02140  1.0000
  H   H536      1.0  0.28464  0.78275  0.99317  1.0000
  H   H537      1.0  0.27350  0.81409  0.82083  1.0000
  C   C536      1.0  0.31880  0.76311  0.22439  1.0000
  C   C537      1.0  0.30665  0.76820  0.25252  1.0000
  C   C538      1.0  0.29477  0.75736  0.26717  1.0000
  C   C539      1.0  0.43344  0.76912  0.12362  1.0000
  N   N43       1.0  0.36680  0.95979  0.58112  1.0000
  C   C540      1.0  0.44809  0.95064  0.08880  1.0000
  H   H538      1.0  0.30631  0.78064  0.26279  1.0000
  H   H539      1.0  0.28539  0.76147  0.28849  1.0000
  H   H540      1.0  0.26944  0.79108  0.87059  1.0000
  S   S188      1.0  0.33916  0.95881  0.43804  1.0000
  H   H541      1.0  0.35070  0.86262  0.21410  1.0000
  C   C541      1.0  0.35827  0.81598  0.21065  1.0000
  C   C542      1.0  0.36235  0.97133  0.38202  1.0000
  H   H542      1.0  0.39673  0.82828  0.20168  1.0000
  C   C543      1.0  0.36847  0.84268  0.21404  1.0000
  S   S189      1.0  0.29872  0.97692  0.48879  1.0000
  H   H543      1.0  0.44835  0.96383  0.08031  1.0000
  H   H544      1.0  0.36881  0.96466  0.64447  1.0000
  N   N44       1.0  0.37111  0.82615  0.21182  1.0000
  H   H545      1.0  0.25193  0.80452  0.72405  1.0000
  H   H546      1.0  0.33219  0.81415  0.20900  1.0000
  C   C544      1.0  0.25279  0.90821  0.59324  1.0000
  C   C545      1.0  0.37047  0.97543  0.56963  1.0000
  C   C546      1.0  0.41681  0.78127  0.00508  1.0000
  Fe  Fe92      1.0  0.25663  0.74703  0.89084  1.0000
  C   C547      1.0  0.40312  0.96814  0.01839  1.0000
  C   C548      1.0  0.24780  0.81835  0.81192  1.0000
  H   H547      1.0  0.24169  0.78258  0.88851  1.0000
  C   C549      1.0  0.41499  0.79248  0.03624  1.0000
  Fe  Fe93      1.0  0.32617  0.97358  0.48975  1.0000
  C   C550      1.0  0.47930  0.91683  0.07707  1.0000
  C   C551      1.0  0.30281  0.76875  0.12961  1.0000
  H   H548      1.0  0.32717  0.84430  0.21094  1.0000
  H   H549      1.0  0.35039  0.95536  0.63033  1.0000
  H   H550      1.0  0.26759  0.92202  0.63266  1.0000
  H   H551      1.0  0.44500  0.94956  0.12179  1.0000
  H   H552      1.0  0.24937  0.82824  0.78973  1.0000
  Fe  Fe94      1.0  0.29823  0.96674  0.55301  1.0000
  C   C552      1.0  0.34229  0.82233  0.21031  1.0000
  H   H553      1.0  0.40056  0.95551  0.02537  1.0000
  H   H554      1.0  0.44330  0.77726  0.13189  1.0000
  H   H555      1.0  0.47682  0.96384  0.07019  1.0000
  C   C553      1.0  0.42056  0.78819  0.07504  1.0000
  H   H556      1.0  0.25039  0.80397  0.46559  1.0000
  H   H557      1.0  0.36143  0.93600  0.56134  1.0000
  H   H558      1.0  0.31963  0.76249  0.08122  1.0000
  C   C554      1.0  0.26131  0.81034  0.82910  1.0000
  H   H559      1.0  0.37863  0.85080  0.21486  1.0000
  C   C555      1.0  0.29968  0.75027  0.94071  1.0000
  C   C556      1.0  0.37146  0.98013  0.13565  1.0000
  C   C557      1.0  0.35782  0.97181  0.14965  1.0000
  C   C558      1.0  0.43001  0.76229  0.05191  1.0000
  H   H560      1.0  0.41876  0.79682  0.09933  1.0000
  C   C559      1.0  0.31915  0.74696  0.21156  1.0000
  H   H561      1.0  0.24541  0.77910  0.76311  1.0000
  C   C560      1.0  0.47733  0.95061  0.07123  1.0000
  H   H562      1.0  0.34978  0.96655  0.12818  1.0000
  C   C561      1.0  0.40122  0.97453  0.97841  1.0000
  H   H563      1.0  0.43815  0.94537  0.07146  1.0000
  S   S190      1.0  0.24733  0.77507  0.41998  1.0000
  H   H564      1.0  0.44068  0.97499  0.82130  1.0000
  C   C562      1.0  0.35485  0.96991  0.19143  1.0000
  C   C563      1.0  0.40826  0.97815  0.04910  1.0000
  C   C564      1.0  0.38775  0.81920  0.21249  1.0000
  Fe  Fe95      1.0  0.24299  0.75237  0.38343  1.0000
  N   N45       1.0  0.42787  0.77323  0.08250  1.0000
  C   C565      1.0  0.29502  0.74126  0.25404  1.0000
  S   S191      1.0  0.40411  0.74095  0.12564  1.0000
  C   C566      1.0  0.37075  0.96806  0.49911  1.0000
  C   C567      1.0  0.30967  0.75829  0.10051  1.0000
  H   H565      1.0  0.41214  0.78428  0.97515  1.0000
  H   H566      1.0  0.24682  0.81195  0.61916  1.0000
  H   H567      1.0  0.39719  0.96667  0.95495  1.0000
  H   H568      1.0  0.37157  0.98471  0.59223  1.0000
  C   C568      1.0  0.24328  0.79257  0.86669  1.0000
  N   N46       1.0  0.46364  0.94203  0.08020  1.0000
  H   H569      1.0  0.42308  0.77041  0.14578  1.0000
  H   H570      1.0  0.48001  0.90366  0.08123  1.0000
  H   H571      1.0  0.43585  0.75044  0.05766  1.0000
  C   C569      1.0  0.38195  0.98646  0.16373  1.0000
  H   H572      1.0  0.46549  0.98705  0.78953  1.0000
  H   H573      1.0  0.40886  0.80424  0.03086  1.0000
  C   C570      1.0  0.48938  0.91210  0.17526  1.0000
  H   H574      1.0  0.30768  0.78075  0.13349  1.0000
  C   C571      1.0  0.31547  0.74936  0.95664  1.0000
  C   C572      1.0  0.24698  0.90670  0.55387  1.0000
  H   H575      1.0  0.32846  0.74285  0.19010  1.0000
  Fe  Fe96      1.0  0.32746  0.98767  0.57733  1.0000
  H   H576      1.0  0.34450  0.96314  0.20277  1.0000
  C   C573      1.0  0.25906  0.79741  0.85682  1.0000
  S   S192      1.0  0.24216  0.75373  0.31505  1.0000
  H   H577      1.0  0.28499  0.77119  0.17836  1.0000
  H   H578      1.0  0.36113  0.98266  0.39810  1.0000
  H   H579      1.0  0.37187  0.97132  0.46703  1.0000
  C   C574      1.0  0.36563  0.97636  0.21864  1.0000
  H   H580      1.0  0.25163  0.98735  0.54400  1.0000
  H   H581      1.0  0.36344  0.97447  0.25106  1.0000
  C   C575      1.0  0.24916  0.79225  0.57680  1.0000
  H   H582      1.0  0.32411  0.74012  0.94591  1.0000
  C   C576      1.0  0.24089  0.78042  0.55643  1.0000
  N   N47       1.0  0.30404  0.74289  0.09672  1.0000
  H   H583      1.0  0.24739  0.77240  0.53541  1.0000
  H   H584      1.0  0.40164  0.98245  0.23348  1.0000
  H   H585      1.0  0.43160  0.98311  0.89023  1.0000
  H   H586      1.0  0.29629  0.74180  0.91788  1.0000
  N   N48       1.0  0.37895  0.98457  0.20459  1.0000
  C   C577      1.0  0.28431  0.74773  0.15050  1.0000
  H   H587      1.0  0.26212  0.98821  0.49569  1.0000
  H   H588      1.0  0.27477  0.74329  0.17091  1.0000
  C   C578      1.0  0.44267  0.98806  0.87704  1.0000
  C   C579      1.0  0.24056  0.80272  0.60294  1.0000
  H   H589      1.0  0.65310  0.03496  0.48530  1.0000
  H   H590      1.0  0.69142  0.03985  0.56995  1.0000
  H   H591      1.0  0.65522  0.06381  0.43010  1.0000
  S   S193      1.0  0.72498  0.22301  0.16580  1.0000
  Fe  Fe97      1.0  0.72611  0.22448  0.09726  1.0000
  S   S194      1.0  0.71372  0.20733  0.05471  1.0000
  Fe  Fe98      1.0  0.60372  0.21471  0.87224  1.0000
  S   S195      1.0  0.60447  0.19902  0.92918  1.0000
  H   H592      1.0  0.65993  0.04319  0.41355  1.0000
  Fe  Fe99      1.0  0.63614  0.19932  0.84041  1.0000
  S   S196      1.0  0.63894  0.18284  0.89579  1.0000
  S   S197      1.0  0.65524  0.19553  0.79007  1.0000
  Fe  Fe100     1.0  0.61230  0.17799  0.88888  1.0000
  S   S198      1.0  0.60215  0.15245  0.90259  1.0000
  Fe  Fe101     1.0  0.63107  0.20503  0.93064  1.0000
  S   S199      1.0  0.64125  0.21418  0.98954  1.0000
  S   S200      1.0  0.60988  0.19332  0.83155  1.0000
  S   S201      1.0  0.62996  0.22187  0.87568  1.0000
  Fe  Fe102     1.0  0.68117  0.00491  0.42481  1.0000
  Fe  Fe103     1.0  0.65443  0.99625  0.48884  1.0000
  S   S202      1.0  0.69340  0.02701  0.39354  1.0000
  C   C580      1.0  0.60966  0.23227  0.76738  1.0000
  S   S203      1.0  0.63611  0.01017  0.53178  1.0000
  S   S204      1.0  0.65366  0.00463  0.42259  1.0000
  Fe  Fe104     1.0  0.57959  0.03090  0.84995  1.0000
  S   S205      1.0  0.57103  0.01763  0.79566  1.0000
  S   S206      1.0  0.58034  0.02153  0.91635  1.0000
  Fe  Fe105     1.0  0.58405  0.06311  0.80100  1.0000
  S   S207      1.0  0.57545  0.05176  0.74352  1.0000
  S   S208      1.0  0.59135  0.08994  0.79265  1.0000
  Fe  Fe106     1.0  0.55580  0.04051  0.78328  1.0000
  S   S209      1.0  0.52988  0.04032  0.75885  1.0000
  Fe  Fe107     1.0  0.59138  0.02986  0.75967  1.0000
  S   S210      1.0  0.60841  0.01453  0.71673  1.0000
  S   S211      1.0  0.56327  0.05332  0.83908  1.0000
  S   S212      1.0  0.60103  0.04165  0.81547  1.0000
  C   C581      1.0  0.51096  0.04083  0.78667  1.0000
  C   C582      1.0  0.67120  0.03641  0.53092  1.0000
  C   C583      1.0  0.51015  0.04224  0.82898  1.0000
  H   H593      1.0  0.72807  0.07414  0.36524  1.0000
  H   H594      1.0  0.52127  0.04251  0.84585  1.0000
  C   C584      1.0  0.62982  0.01197  0.58433  1.0000
  H   H595      1.0  0.61198  0.01827  0.99048  1.0000
  C   C585      1.0  0.62862  0.00219  0.65521  1.0000
  C   C586      1.0  0.61723  0.01468  0.66606  1.0000
  C   C587      1.0  0.61253  0.02609  0.63578  1.0000
  C   C588      1.0  0.61871  0.02469  0.59536  1.0000
  N   N49       1.0  0.67236  0.05035  0.46585  1.0000
  C   C589      1.0  0.73477  0.06206  0.42143  1.0000
  H   H596      1.0  0.60392  0.03585  0.64331  1.0000
  C   C590      1.0  0.57833  0.00151  0.93785  1.0000
  C   C591      1.0  0.63490  0.00086  0.61487  1.0000
  C   C592      1.0  0.63901  0.20940  0.69921  1.0000
  H   H597      1.0  0.57268  0.01045  0.99777  1.0000
  H   H598      1.0  0.66502  0.02819  0.55210  1.0000
  C   C593      1.0  0.59958  0.13511  0.87148  1.0000
  C   C594      1.0  0.59401  0.12049  0.88967  1.0000
  C   C595      1.0  0.59169  0.10648  0.86639  1.0000
  C   C596      1.0  0.59481  0.10691  0.82435  1.0000
  C   C597      1.0  0.60029  0.12154  0.80617  1.0000
  C   C598      1.0  0.60273  0.13550  0.82947  1.0000
  H   H599      1.0  0.59152  0.11997  0.92209  1.0000
  H   H600      1.0  0.58749  0.09538  0.88098  1.0000
  H   H601      1.0  0.60272  0.12210  0.77371  1.0000
  H   H602      1.0  0.60699  0.14658  0.81485  1.0000
  C   C599      1.0  0.70987  0.03984  0.40460  1.0000
  C   C600      1.0  0.71910  0.03772  0.43968  1.0000
  C   C601      1.0  0.72567  0.06406  0.38612  1.0000
  C   C602      1.0  0.71330  0.05307  0.37792  1.0000
  H   H603      1.0  0.71670  0.02763  0.46055  1.0000
  C   C603      1.0  0.73176  0.17356  0.11971  1.0000
  H   H604      1.0  0.70629  0.05488  0.35064  1.0000
  C   C604      1.0  0.69388  0.21041  0.03500  1.0000
  C   C605      1.0  0.68944  0.20152  0.00110  1.0000
  C   C606      1.0  0.67357  0.20304  0.98571  1.0000
  C   C607      1.0  0.66186  0.21318  0.00474  1.0000
  C   C608      1.0  0.64753  0.22215  0.68079  1.0000
  C   C609      1.0  0.68226  0.22080  0.05342  1.0000
  H   H605      1.0  0.69834  0.19344  0.98666  1.0000
  H   H606      1.0  0.67032  0.19615  0.95965  1.0000
  H   H607      1.0  0.60093  0.22221  0.77080  1.0000
  H   H608      1.0  0.73026  0.16771  0.26115  1.0000
  H   H609      1.0  0.70535  0.05857  0.52050  1.0000
  C   C610      1.0  0.66575  0.22689  0.77337  1.0000
  C   C611      1.0  0.66781  0.21020  0.76626  1.0000
  C   C612      1.0  0.67987  0.20490  0.73818  1.0000
  C   C613      1.0  0.68973  0.21615  0.71707  1.0000
  C   C614      1.0  0.73138  0.04879  0.44806  1.0000
  C   C615      1.0  0.66501  0.05430  0.42649  1.0000
  H   H610      1.0  0.68152  0.19200  0.73244  1.0000
  H   H611      1.0  0.69891  0.21192  0.69534  1.0000
  C   C616      1.0  0.70153  0.21038  0.82956  1.0000
  N   N50       1.0  0.62576  0.17456  0.01689  1.0000
  C   C617      1.0  0.64170  0.17645  0.02625  1.0000
  C   C618      1.0  0.62158  0.16263  0.99109  1.0000
  C   C619      1.0  0.65402  0.16673  0.00823  1.0000
  C   C620      1.0  0.63357  0.15260  0.97276  1.0000
  C   C621      1.0  0.64989  0.15478  0.98115  1.0000
  C   C622      1.0  0.61307  0.18492  0.03610  1.0000
  H   H612      1.0  0.64502  0.18590  0.04677  1.0000
  H   H613      1.0  0.60894  0.16098  0.98390  1.0000
  H   H614      1.0  0.66667  0.16871  0.01471  1.0000
  H   H615      1.0  0.63018  0.14345  0.95143  1.0000
  H   H616      1.0  0.65931  0.14733  0.96636  1.0000
  H   H617      1.0  0.61727  0.19760  0.03887  1.0000
  H   H618      1.0  0.60193  0.18580  0.01753  1.0000
  H   H619      1.0  0.60989  0.17991  0.06680  1.0000
  H   H620      1.0  0.68546  0.22763  0.07965  1.0000
  H   H621      1.0  0.72309  0.15660  0.16581  1.0000
  C   C623      1.0  0.62650  0.21294  0.72749  1.0000
  H   H622      1.0  0.55745  0.01611  0.66163  1.0000
  H   H623      1.0  0.69875  0.19927  0.81260  1.0000
  C   C624      1.0  0.56917  0.01222  0.67560  1.0000
  H   H624      1.0  0.61878  0.00447  0.92591  1.0000
  H   H625      1.0  0.54122  0.09707  0.73012  1.0000
  H   H626      1.0  0.54423  0.07523  0.73750  1.0000
  H   H627      1.0  0.59247  0.00075  0.55040  1.0000
  H   H628      1.0  0.53219  0.09343  0.90574  1.0000
  H   H629      1.0  0.56627  0.00590  0.70504  1.0000
  H   H630      1.0  0.51646  0.07518  0.86291  1.0000
  H   H631      1.0  0.69290  0.06521  0.45435  1.0000
  H   H632      1.0  0.56118  0.10680  0.80087  1.0000
  S   S213      1.0  0.73584  0.19652  0.55907  1.0000
  H   H633      1.0  0.73835  0.04702  0.47541  1.0000
  C   C625      1.0  0.68598  0.04298  0.54093  1.0000
  H   H634      1.0  0.65649  0.23110  0.79489  1.0000
  C   C626      1.0  0.69375  0.05350  0.51333  1.0000
  C   C627      1.0  0.67544  0.23817  0.75175  1.0000
  C   C628      1.0  0.73711  0.23815  0.76591  1.0000
  H   H635      1.0  0.73187  0.16705  0.51602  1.0000
  H   H636      1.0  0.57610  0.02322  0.68231  1.0000
  C   C629      1.0  0.54757  0.08739  0.74845  1.0000
  C   C630      1.0  0.61436  0.00517  0.99063  1.0000
  H   H637      1.0  0.72024  0.17965  0.41481  1.0000
  N   N51       1.0  0.57892  0.00171  0.64836  1.0000
  H   H638      1.0  0.57443  0.01706  0.59630  1.0000
  C   C631      1.0  0.68741  0.23286  0.72339  1.0000
  C   C632      1.0  0.64342  0.23822  0.69067  1.0000
  H   H639      1.0  0.73555  0.19846  0.45701  1.0000
  C   C633      1.0  0.53054  0.08071  0.80839  1.0000
  C   C634      1.0  0.54773  0.10134  0.85589  1.0000
  H   H640      1.0  0.73765  0.19270  0.22142  1.0000
  H   H641      1.0  0.52368  0.07271  0.78996  1.0000
  C   C635      1.0  0.53515  0.09238  0.87359  1.0000
  H   H642      1.0  0.65773  0.21954  0.66015  1.0000
  C   C636      1.0  0.49629  0.04035  0.76546  1.0000
  N   N52       1.0  0.71362  0.22001  0.80699  1.0000
  H   H643      1.0  0.61471  0.03346  0.57231  1.0000
  S   S214      1.0  0.68180  0.99769  0.49132  1.0000
  H   H644      1.0  0.64262  0.19682  0.69330  1.0000
  H   H645      1.0  0.61519  0.23400  0.79738  1.0000
  C   C637      1.0  0.57508  0.99970  0.97994  1.0000
  C   C638      1.0  0.52637  0.08212  0.84965  1.0000
  C   C639      1.0  0.59064  0.99688  0.58193  1.0000
  C   C640      1.0  0.55148  0.09971  0.81449  1.0000
  S   S215      1.0  0.58410  0.23396  0.85341  1.0000
  C   C641      1.0  0.68664  0.05720  0.47584  1.0000
  H   H646      1.0  0.67425  0.05864  0.40382  1.0000
  H   H647      1.0  0.56095  0.08833  0.74339  1.0000
  C   C642      1.0  0.66451  0.04026  0.49302  1.0000
  N   N53       1.0  0.54323  0.08913  0.79162  1.0000
  C   C643      1.0  0.66630  0.22203  0.03862  1.0000
  H   H648      1.0  0.55467  0.10941  0.87403  1.0000
  C   C644      1.0  0.58052  0.00607  0.60808  1.0000
  H   H649      1.0  0.63247  0.99330  0.67816  1.0000
  C   C645      1.0  0.73945  0.22134  0.77155  1.0000
  C   C646      1.0  0.61266  0.99582  0.02659  1.0000
  H   H650      1.0  0.71973  0.17726  0.10930  1.0000
  H   H651      1.0  0.60909  0.00188  0.05447  1.0000
  H   H652      1.0  0.62046  0.20289  0.74294  1.0000
  H   H653      1.0  0.72933  0.19929  0.79604  1.0000
  H   H654      1.0  0.70618  0.20671  0.85998  1.0000
  N   N54       1.0  0.62240  0.22875  0.73662  1.0000
  H   H655      1.0  0.68982  0.21733  0.83394  1.0000
  H   H656      1.0  0.49448  0.04471  0.88222  1.0000
  C   C647      1.0  0.71134  0.23655  0.80204  1.0000
  H   H657      1.0  0.73535  0.16142  0.36647  1.0000
  C   C648      1.0  0.61819  0.99740  0.95426  1.0000
  C   C649      1.0  0.72748  0.21239  0.79215  1.0000
  H   H658      1.0  0.49673  0.03930  0.73273  1.0000
  H   H659      1.0  0.57496  0.23318  0.94072  1.0000
  C   C650      1.0  0.73366  0.16200  0.15124  1.0000
  H   H660      1.0  0.65732  0.22985  0.05366  1.0000
  S   S216      1.0  0.73780  0.21891  0.66547  1.0000
  C   C651      1.0  0.49490  0.04346  0.84955  1.0000
  H   H661      1.0  0.64344  0.99103  0.60731  1.0000
  C   C652      1.0  0.73337  0.18007  0.41175  1.0000
  N   N55       1.0  0.58712  0.44153  0.30143  1.0000
  H   H662      1.0  0.72084  0.25882  0.77577  1.0000
  C   C653      1.0  0.49929  0.39853  0.44397  1.0000
  Fe  Fe108     1.0  0.72702  0.25049  0.16296  1.0000
  S   S217      1.0  0.71045  0.26770  0.19976  1.0000
  S   S218      1.0  0.72584  0.25185  0.09457  1.0000
  Fe  Fe109     1.0  0.70229  0.34450  0.42012  1.0000
  S   S219      1.0  0.72781  0.34892  0.39934  1.0000
  S   S220      1.0  0.69678  0.32772  0.47446  1.0000
  Fe  Fe110     1.0  0.68751  0.36655  0.35272  1.0000
  S   S221      1.0  0.71268  0.37242  0.32722  1.0000
  S   S222      1.0  0.66529  0.37731  0.31829  1.0000
  Fe  Fe111     1.0  0.71838  0.34543  0.33657  1.0000
  H   H663      1.0  0.71737  0.37463  0.48706  1.0000
  Fe  Fe112     1.0  0.72016  0.37547  0.39232  1.0000
  S   S223      1.0  0.72233  0.23997  0.58884  1.0000
  S   S224      1.0  0.69313  0.33943  0.35790  1.0000
  S   S225      1.0  0.69466  0.37116  0.41713  1.0000
  S   S226      1.0  0.51017  0.31852  0.94142  1.0000
  H   H664      1.0  0.62793  0.25382  0.72731  1.0000
  Fe  Fe113     1.0  0.50752  0.29152  0.95397  1.0000
  S   S227      1.0  0.52849  0.27210  0.95837  1.0000
  Fe  Fe114     1.0  0.56373  0.39334  0.31914  1.0000
  S   S228      1.0  0.55779  0.40171  0.25527  1.0000
  S   S229      1.0  0.58768  0.38330  0.34685  1.0000
  Fe  Fe115     1.0  0.52831  0.40106  0.35117  1.0000
  S   S230      1.0  0.52011  0.40986  0.28899  1.0000
  S   S231      1.0  0.51601  0.40558  0.41366  1.0000
  Fe  Fe116     1.0  0.53435  0.38797  0.26334  1.0000
  S   S232      1.0  0.52547  0.36805  0.21970  1.0000
  Fe  Fe117     1.0  0.54394  0.42287  0.28514  1.0000
  S   S233      1.0  0.54719  0.44941  0.26317  1.0000
  S   S234      1.0  0.54114  0.37853  0.32665  1.0000
  S   S235      1.0  0.55140  0.41518  0.34768  1.0000
  C   C654      1.0  0.54552  0.46757  0.29214  1.0000
  C   C655      1.0  0.55776  0.25552  0.86378  1.0000
  H   H665      1.0  0.54071  0.45561  0.34989  1.0000
  C   C656      1.0  0.72542  0.34240  0.55012  1.0000
  C   C657      1.0  0.50964  0.34978  0.09263  1.0000
  C   C658      1.0  0.50964  0.33950  0.12740  1.0000
  C   C659      1.0  0.51449  0.34527  0.16556  1.0000
  C   C660      1.0  0.51941  0.36147  0.17015  1.0000
  C   C661      1.0  0.51947  0.37173  0.13535  1.0000
  C   C662      1.0  0.51466  0.36595  0.09717  1.0000
  H   H666      1.0  0.55895  0.25763  0.83128  1.0000
  H   H667      1.0  0.51423  0.33712  0.19190  1.0000
  H   H668      1.0  0.52314  0.38421  0.13782  1.0000
  C   C663      1.0  0.56858  0.24429  0.88313  1.0000
  C   C664      1.0  0.58520  0.44119  0.38594  1.0000
  S   S236      1.0  0.49398  0.29562  0.01382  1.0000
  H   H669      1.0  0.58307  0.45309  0.24317  1.0000
  C   C665      1.0  0.54533  0.26400  0.88595  1.0000
  C   C666      1.0  0.54351  0.26137  0.92802  1.0000
  C   C667      1.0  0.55438  0.25021  0.94740  1.0000
  H   H670      1.0  0.67361  0.25109  0.75683  1.0000
  C   C668      1.0  0.56680  0.24174  0.92523  1.0000
  H   H671      1.0  0.53713  0.27250  0.87043  1.0000
  H   H672      1.0  0.59302  0.41586  0.38225  1.0000
  H   H673      1.0  0.60465  0.35723  0.27337  1.0000
  C   C669      1.0  0.54264  0.46718  0.33426  1.0000
  C   C670      1.0  0.56675  0.35654  0.23513  1.0000
  H   H674      1.0  0.58032  0.43166  0.24559  1.0000
  C   C671      1.0  0.64374  0.37890  0.32718  1.0000
  C   C672      1.0  0.63383  0.38598  0.29662  1.0000
  C   C673      1.0  0.61674  0.38756  0.30201  1.0000
  C   C674      1.0  0.60926  0.38214  0.33831  1.0000
  C   C675      1.0  0.61914  0.37502  0.36883  1.0000
  C   C676      1.0  0.63622  0.37338  0.36335  1.0000
  H   H675      1.0  0.63947  0.39025  0.26845  1.0000
  H   H676      1.0  0.60942  0.39282  0.27786  1.0000
  H   H677      1.0  0.61357  0.37074  0.39706  1.0000
  H   H678      1.0  0.64360  0.36793  0.38721  1.0000
  C   C677      1.0  0.72725  0.31104  0.27273  1.0000
  H   H679      1.0  0.70338  0.35977  0.50580  1.0000
  H   H680      1.0  0.70033  0.24263  0.81345  1.0000
  C   C678      1.0  0.71728  0.28380  0.22938  1.0000
  C   C679      1.0  0.70576  0.29494  0.24606  1.0000
  C   C680      1.0  0.71070  0.30851  0.26762  1.0000
  C   C681      1.0  0.58327  0.35970  0.23724  1.0000
  H   H681      1.0  0.69293  0.29322  0.24166  1.0000
  H   H682      1.0  0.70171  0.31720  0.27939  1.0000
  C   C682      1.0  0.58797  0.44145  0.25687  1.0000
  H   H683      1.0  0.54608  0.34615  0.26633  1.0000
  C   C683      1.0  0.55900  0.34841  0.26749  1.0000
  C   C684      1.0  0.70680  0.30206  0.52410  1.0000
  C   C685      1.0  0.71136  0.31320  0.49309  1.0000
  C   C686      1.0  0.72740  0.31271  0.47810  1.0000
  C   C687      1.0  0.58255  0.45547  0.32130  1.0000
  H   H684      1.0  0.73113  0.32119  0.45433  1.0000
  S   S237      1.0  0.73417  0.32861  0.29655  1.0000
  C   C688      1.0  0.72141  0.29787  0.37833  1.0000
  C   C689      1.0  0.59185  0.35458  0.27179  1.0000
  H   H685      1.0  0.71169  0.37413  0.54014  1.0000
  C   C690      1.0  0.72296  0.24583  0.78109  1.0000
  S   S238      1.0  0.69900  0.24750  0.69626  1.0000
  N   N56       1.0  0.71224  0.28976  0.40706  1.0000
  H   H686      1.0  0.65040  0.24815  0.67756  1.0000
  H   H687      1.0  0.55037  0.48329  0.24003  1.0000
  H   H688      1.0  0.59222  0.32821  0.34542  1.0000
  N   N57       1.0  0.58411  0.34669  0.30352  1.0000
  H   H689      1.0  0.60611  0.34458  0.33740  1.0000
  H   H690      1.0  0.53193  0.32198  0.07375  1.0000
  H   H691      1.0  0.69192  0.30651  0.40288  1.0000
  C   C691      1.0  0.63079  0.24132  0.71899  1.0000
  S   S239      1.0  0.50391  0.34311  0.04289  1.0000
  C   C692      1.0  0.58138  0.45549  0.36379  1.0000
  C   C693      1.0  0.54244  0.48176  0.35633  1.0000
  C   C694      1.0  0.71040  0.29749  0.12421  1.0000
  H   H692      1.0  0.55985  0.36056  0.20872  1.0000
  C   C695      1.0  0.59104  0.42752  0.32294  1.0000
  H   H693      1.0  0.71024  0.28437  0.11648  1.0000
  H   H694      1.0  0.70631  0.30503  0.09769  1.0000
  C   C696      1.0  0.56788  0.34368  0.30181  1.0000
  H   H695      1.0  0.50574  0.32709  0.12505  1.0000
  N   N58       1.0  0.72671  0.30206  0.13580  1.0000
  H   H696      1.0  0.71344  0.34069  0.56382  1.0000
  C   C697      1.0  0.49741  0.40401  0.48411  1.0000
  N   N59       1.0  0.72789  0.35483  0.52239  1.0000
  H   H697      1.0  0.69441  0.30235  0.53597  1.0000
  H   H698      1.0  0.71453  0.28197  0.56390  1.0000
  C   C698      1.0  0.73875  0.29964  0.25712  1.0000
  C   C699      1.0  0.73585  0.27387  0.42759  1.0000
  H   H699      1.0  0.60240  0.24348  0.75920  1.0000
  H   H700      1.0  0.73814  0.44885  0.45727  1.0000
  C   C700      1.0  0.71817  0.29051  0.54002  1.0000
  H   H701      1.0  0.57936  0.46659  0.30434  1.0000
  H   H702      1.0  0.71779  0.32066  0.17558  1.0000
  C   C701      1.0  0.54810  0.48278  0.27255  1.0000
  C   C702      1.0  0.71444  0.36642  0.51344  1.0000
  C   C703      1.0  0.69473  0.29349  0.41086  1.0000
  C   C704      1.0  0.73426  0.29017  0.52531  1.0000
  H   H703      1.0  0.56165  0.33777  0.32730  1.0000
  N   N60       1.0  0.55387  0.30517  0.97772  1.0000
  C   C705      1.0  0.55104  0.29498  0.01054  1.0000
  C   C706      1.0  0.54912  0.32130  0.97891  1.0000
  C   C707      1.0  0.54316  0.30086  0.04561  1.0000
  C   C708      1.0  0.54145  0.32763  0.01374  1.0000
  C   C709      1.0  0.53838  0.31730  0.04715  1.0000
  C   C710      1.0  0.56102  0.29867  0.93999  1.0000
  H   H704      1.0  0.55427  0.28207  0.00914  1.0000
  H   H705      1.0  0.55083  0.32926  0.95247  1.0000
  H   H706      1.0  0.54038  0.29262  0.07092  1.0000
  H   H707      1.0  0.53733  0.34035  0.01437  1.0000
  H   H708      1.0  0.68798  0.28564  0.39050  1.0000
  H   H709      1.0  0.55123  0.29712  0.91777  1.0000
  H   H710      1.0  0.57019  0.30701  0.92662  1.0000
  H   H711      1.0  0.56715  0.28653  0.94516  1.0000
  H   H712      1.0  0.49702  0.44189  0.42453  1.0000
  Fe  Fe118     1.0  0.49557  0.32263  0.00002  1.0000
  H   H713      1.0  0.50663  0.41148  0.49639  1.0000
  H   H714      1.0  0.58783  0.34809  0.36683  1.0000
  C   C711      1.0  0.59303  0.34158  0.34001  1.0000
  H   H715      1.0  0.59453  0.41644  0.30726  1.0000
  H   H716      1.0  0.71590  0.30729  0.35889  1.0000
  H   H717      1.0  0.54028  0.48123  0.38887  1.0000
  H   H718      1.0  0.58935  0.36621  0.21247  1.0000
  C   C712      1.0  0.59021  0.42714  0.36546  1.0000
  H   H719      1.0  0.51475  0.37415  0.07091  1.0000
  H   H720      1.0  0.60074  0.43946  0.24607  1.0000
  H   H721      1.0  0.73602  0.32124  0.58133  1.0000
  C   C713      1.0  0.73813  0.33139  0.56021  1.0000
  H   H722      1.0  0.70155  0.29900  0.15003  1.0000
  C   C714      1.0  0.72841  0.31455  0.16206  1.0000
  C   C715      1.0  0.73381  0.28612  0.23541  1.0000
  H   H723      1.0  0.55316  0.24802  0.97986  1.0000
  Fe  Fe119     1.0  0.72153  0.24112  0.65720  1.0000
  H   H724      1.0  0.69030  0.29164  0.44279  1.0000
  H   H725      1.0  0.58411  0.44094  0.41888  1.0000
  S   S240      1.0  0.73545  0.39357  0.42731  1.0000
  C   C716      1.0  0.73809  0.29431  0.37390  1.0000
  H   H726      1.0  0.57724  0.46646  0.37923  1.0000
  H   H727      1.0  0.73887  0.28469  0.09739  1.0000
  C   C717      1.0  0.73881  0.30135  0.49441  1.0000
  H   H728      1.0  0.71199  0.27142  0.45430  1.0000
  C   C718      1.0  0.71919  0.27774  0.43120  1.0000
  C   C719      1.0  0.74014  0.29431  0.11903  1.0000
  S   S241      1.0  0.49434  0.63730  0.13640  1.0000
  C   C720      1.0  0.70409  0.68188  0.60978  1.0000
  H   H729      1.0  0.64971  0.72089  0.15836  1.0000
  N   N61       1.0  0.62623  0.72392  0.13123  1.0000
  C   C721      1.0  0.72963  0.67572  0.48849  1.0000
  H   H730      1.0  0.70079  0.56679  0.39529  1.0000
  Fe  Fe120     1.0  0.73020  0.72066  0.70233  1.0000
  S   S242      1.0  0.51132  0.64685  0.01884  1.0000
  H   H731      1.0  0.73705  0.56459  0.51123  1.0000
  S   S243      1.0  0.70436  0.72949  0.15637  1.0000
  Fe  Fe121     1.0  0.51049  0.67450  0.01327  1.0000
  S   S244      1.0  0.53499  0.68664  0.99732  1.0000
  C   C722      1.0  0.50528  0.53036  0.39761  1.0000
  Fe  Fe122     1.0  0.53127  0.57320  0.39335  1.0000
  S   S245      1.0  0.55235  0.55646  0.41108  1.0000
  S   S246      1.0  0.50892  0.58215  0.43070  1.0000
  Fe  Fe123     1.0  0.54201  0.57494  0.30300  1.0000
  S   S247      1.0  0.56356  0.55764  0.31482  1.0000
  S   S248      1.0  0.53932  0.58554  0.23750  1.0000
  Fe  Fe124     1.0  0.54671  0.54264  0.35452  1.0000
  S   S249      1.0  0.54486  0.51488  0.36677  1.0000
  Fe  Fe125     1.0  0.56806  0.57248  0.37029  1.0000
  S   S250      1.0  0.59481  0.58054  0.37366  1.0000
  S   S251      1.0  0.52492  0.55878  0.33870  1.0000
  S   S252      1.0  0.54724  0.59039  0.35646  1.0000
  Fe  Fe126     1.0  0.67935  0.60833  0.47533  1.0000
  S   S253      1.0  0.69260  0.60539  0.41556  1.0000
  S   S254      1.0  0.65395  0.59798  0.48839  1.0000
  Fe  Fe127     1.0  0.70798  0.62676  0.51171  1.0000
  S   S255      1.0  0.72282  0.62465  0.45344  1.0000
  S   S256      1.0  0.72201  0.63879  0.56213  1.0000
  Fe  Fe128     1.0  0.69954  0.63143  0.42258  1.0000
  S   S257      1.0  0.69583  0.65023  0.37197  1.0000
  Fe  Fe129     1.0  0.71487  0.59860  0.45217  1.0000
  H   H732      1.0  0.70596  0.66573  0.49634  1.0000
  S   S258      1.0  0.68496  0.63501  0.48055  1.0000
  S   S259      1.0  0.70133  0.60007  0.51221  1.0000
  C   C723      1.0  0.73239  0.69578  0.43408  1.0000
  H   H733      1.0  0.64825  0.54291  0.49809  1.0000
  H   H734      1.0  0.64928  0.55992  0.40477  1.0000
  C   C724      1.0  0.61076  0.58607  0.40648  1.0000
  C   C725      1.0  0.60917  0.58546  0.44895  1.0000
  C   C726      1.0  0.62232  0.58961  0.47335  1.0000
  C   C727      1.0  0.63727  0.59448  0.45585  1.0000
  C   C728      1.0  0.63878  0.59531  0.41337  1.0000
  C   C729      1.0  0.62566  0.59108  0.38898  1.0000
  H   H735      1.0  0.59784  0.58170  0.46307  1.0000
  H   H736      1.0  0.62090  0.58894  0.50612  1.0000
  H   H737      1.0  0.65013  0.59902  0.39926  1.0000
  H   H738      1.0  0.62711  0.59167  0.35622  1.0000
  C   C730      1.0  0.69081  0.56302  0.45577  1.0000
  C   C731      1.0  0.54780  0.49739  0.29461  1.0000
  C   C732      1.0  0.51568  0.66471  0.87593  1.0000
  H   H739      1.0  0.59171  0.72250  0.07721  1.0000
  C   C733      1.0  0.51169  0.57022  0.51063  1.0000
  H   H740      1.0  0.54981  0.50894  0.27899  1.0000
  C   C734      1.0  0.67664  0.56042  0.47905  1.0000
  C   C735      1.0  0.50193  0.57821  0.48158  1.0000
  H   H741      1.0  0.66312  0.72261  0.82916  1.0000
  C   C736      1.0  0.61529  0.71842  0.10441  1.0000
  H   H742      1.0  0.67396  0.56492  0.36241  1.0000
  Fe  Fe130     1.0  0.49424  0.65004  0.07274  1.0000
  H   H743      1.0  0.73039  0.65149  0.39002  1.0000
  C   C737      1.0  0.50708  0.62282  0.16371  1.0000
  C   C738      1.0  0.52109  0.61543  0.14641  1.0000
  C   C739      1.0  0.53060  0.60397  0.16929  1.0000
  C   C740      1.0  0.52636  0.59970  0.20988  1.0000
  C   C741      1.0  0.51238  0.60714  0.22726  1.0000
  C   C742      1.0  0.50285  0.61857  0.20434  1.0000
  H   H744      1.0  0.52454  0.61845  0.11527  1.0000
  H   H745      1.0  0.54130  0.59830  0.15527  1.0000
  H   H746      1.0  0.50885  0.60403  0.25829  1.0000
  C   C743      1.0  0.60031  0.72668  0.09898  1.0000
  C   C744      1.0  0.54550  0.70480  0.00872  1.0000
  C   C745      1.0  0.53853  0.71723  0.03250  1.0000
  C   C746      1.0  0.57019  0.72098  0.00031  1.0000
  C   C747      1.0  0.56141  0.70682  0.99279  1.0000
  H   H747      1.0  0.52635  0.71596  0.04504  1.0000
  C   C748      1.0  0.67486  0.56339  0.39514  1.0000
  H   H748      1.0  0.56699  0.69736  0.97431  1.0000
  S   S260      1.0  0.73201  0.57805  0.42821  1.0000
  C   C749      1.0  0.71692  0.68688  0.63384  1.0000
  H   H749      1.0  0.51944  0.62378  0.87837  1.0000
  C   C750      1.0  0.70541  0.66734  0.58749  1.0000
  C   C751      1.0  0.71961  0.65747  0.58909  1.0000
  H   H750      1.0  0.49206  0.62412  0.21822  1.0000
  C   C752      1.0  0.73118  0.67710  0.63505  1.0000
  H   H751      1.0  0.69370  0.70268  0.73355  1.0000
  H   H752      1.0  0.68726  0.68425  0.40521  1.0000
  S   S261      1.0  0.71902  0.73484  0.27273  1.0000
  H   H753      1.0  0.70242  0.56418  0.47032  1.0000
  C   C753      1.0  0.54501  0.49698  0.33675  1.0000
  C   C754      1.0  0.70747  0.67626  0.32808  1.0000
  C   C755      1.0  0.71136  0.66331  0.35520  1.0000
  H   H754      1.0  0.51125  0.52606  0.36993  1.0000
  H   H755      1.0  0.71612  0.69740  0.29469  1.0000
  H   H756      1.0  0.71086  0.70104  0.39995  1.0000
  H   H757      1.0  0.69521  0.67773  0.31696  1.0000
  C   C756      1.0  0.52672  0.66835  0.90586  1.0000
  C   C757      1.0  0.50138  0.64548  0.83506  1.0000
  N   N62       1.0  0.56130  0.62048  0.27384  1.0000
  C   C758      1.0  0.56843  0.62195  0.31069  1.0000
  C   C759      1.0  0.56867  0.61116  0.24435  1.0000
  C   C760      1.0  0.58340  0.61408  0.31860  1.0000
  C   C761      1.0  0.58351  0.60291  0.25148  1.0000
  C   C762      1.0  0.59090  0.60442  0.28886  1.0000
  C   C763      1.0  0.54510  0.62794  0.26734  1.0000
  H   H758      1.0  0.56234  0.62883  0.33462  1.0000
  H   H759      1.0  0.56277  0.60954  0.21561  1.0000
  H   H760      1.0  0.58884  0.61485  0.34824  1.0000
  H   H761      1.0  0.58896  0.59502  0.22861  1.0000
  H   H762      1.0  0.60218  0.59772  0.29537  1.0000
  H   H763      1.0  0.54246  0.62938  0.23440  1.0000
  H   H764      1.0  0.53576  0.61998  0.28160  1.0000
  H   H765      1.0  0.54399  0.64022  0.28078  1.0000
  C   C764      1.0  0.73914  0.67251  0.35619  1.0000
  H   H766      1.0  0.64639  0.56422  0.51147  1.0000
  S   S262      1.0  0.49424  0.67771  0.06902  1.0000
  H   H767      1.0  0.67899  0.69911  0.79991  1.0000
  H   H768      1.0  0.69866  0.73653  0.85410  1.0000
  H   H769      1.0  0.52415  0.56678  0.50273  1.0000
  H   H770      1.0  0.63612  0.55727  0.46825  1.0000
  C   C765      1.0  0.66095  0.56059  0.41930  1.0000
  C   C766      1.0  0.71330  0.67420  0.47863  1.0000
  H   H771      1.0  0.64882  0.71531  0.10621  1.0000
  N   N63       1.0  0.70674  0.68319  0.44710  1.0000
  H   H772      1.0  0.67802  0.73259  0.90971  1.0000
  N   N64       1.0  0.50436  0.53165  0.47050  1.0000
  C   C767      1.0  0.53525  0.65568  0.92584  1.0000
  C   C768      1.0  0.66945  0.72392  0.80001  1.0000
  H   H773      1.0  0.49360  0.60196  0.87128  1.0000
  H   H774      1.0  0.73477  0.66852  0.51349  1.0000
  C   C769      1.0  0.51175  0.52617  0.43552  1.0000
  H   H775      1.0  0.68114  0.73087  0.09317  1.0000
  C   C770      1.0  0.50535  0.56681  0.55009  1.0000
  H   H776      1.0  0.53890  0.62960  0.93186  1.0000
  H   H777      1.0  0.67736  0.55967  0.51192  1.0000
  H   H778      1.0  0.51305  0.56071  0.57237  1.0000
  C   C771      1.0  0.49148  0.54067  0.39555  1.0000
  H   H779      1.0  0.50354  0.65294  0.80694  1.0000
  H   H780      1.0  0.69296  0.68925  0.60868  1.0000
  C   C772      1.0  0.68946  0.68187  0.43811  1.0000
  S   S263      1.0  0.72786  0.72113  0.77094  1.0000
  H   H781      1.0  0.69530  0.66361  0.56985  1.0000
  H   H782      1.0  0.54351  0.65835  0.94993  1.0000
  C   C773      1.0  0.73922  0.68656  0.46596  1.0000
  C   C774      1.0  0.64748  0.55562  0.48581  1.0000
  N   N65       1.0  0.66198  0.55911  0.46071  1.0000
  C   C775      1.0  0.68667  0.71279  0.74656  1.0000
  C   C776      1.0  0.71929  0.68741  0.31541  1.0000
  N   N66       1.0  0.51342  0.64889  0.86570  1.0000
  C   C777      1.0  0.52178  0.63637  0.88507  1.0000
  H   H783      1.0  0.69269  0.72950  0.69770  1.0000
  C   C778      1.0  0.53274  0.63957  0.91556  1.0000
  S   S264      1.0  0.71420  0.70517  0.66224  1.0000
  C   C779      1.0  0.68612  0.72803  0.72648  1.0000
  H   H784      1.0  0.52836  0.68090  0.91430  1.0000
  C   C780      1.0  0.72725  0.66144  0.36922  1.0000
  H   H785      1.0  0.61820  0.70771  0.08661  1.0000
  C   C781      1.0  0.73246  0.66250  0.61298  1.0000
  C   C782      1.0  0.68990  0.56445  0.41356  1.0000
  H   H786      1.0  0.50347  0.53065  0.53574  1.0000
  C   C783      1.0  0.64195  0.71517  0.13571  1.0000
  C   C784      1.0  0.56316  0.73347  0.02381  1.0000
  C   C785      1.0  0.51182  0.52764  0.50969  1.0000
  H   H787      1.0  0.52288  0.51870  0.43666  1.0000
  H   H788      1.0  0.51510  0.51441  0.51203  1.0000
  H   H789      1.0  0.68204  0.69065  0.45642  1.0000
  C   C786      1.0  0.67838  0.71079  0.78371  1.0000
  H   H790      1.0  0.52298  0.53477  0.51262  1.0000
  H   H791      1.0  0.64009  0.70233  0.14589  1.0000
  C   C787      1.0  0.54728  0.73143  0.03988  1.0000
  H   H792      1.0  0.50874  0.67460  0.86143  1.0000
  H   H793      1.0  0.58233  0.72228  0.98753  1.0000
  C   C788      1.0  0.71600  0.69401  0.42520  1.0000
  Fe  Fe131     1.0  0.72234  0.73549  0.20457  1.0000
  C   C789      1.0  0.73515  0.68561  0.32957  1.0000
  H   H794      1.0  0.68529  0.66931  0.44479  1.0000
  C   C790      1.0  0.62263  0.73756  0.15322  1.0000
  H   H795      1.0  0.50183  0.63242  0.82666  1.0000
  H   H796      1.0  0.73980  0.70398  0.41565  1.0000
  C   C791      1.0  0.49059  0.54143  0.46881  1.0000
  C   C792      1.0  0.66917  0.73899  0.77910  1.0000
  H   H797      1.0  0.66254  0.74925  0.79252  1.0000
  S   S265      1.0  0.57348  0.75183  0.03421  1.0000
  H   H798      1.0  0.50501  0.91907  0.06456  1.0000
  H   H799      1.0  0.66537  0.94102  0.41246  1.0000
  C   C793      1.0  0.71064  0.76517  0.09468  1.0000
  H   H800      1.0  0.73645  0.93014  0.39316  1.0000
  Fe  Fe132     1.0  0.57795  0.90940  0.11643  1.0000
  S   S266      1.0  0.59685  0.92837  0.10291  1.0000
  S   S267      1.0  0.58272  0.88148  0.12109  1.0000
  Fe  Fe133     1.0  0.55068  0.93542  0.13157  1.0000
  S   S268      1.0  0.56791  0.95590  0.11870  1.0000
  S   S269      1.0  0.52447  0.94490  0.14466  1.0000
  Fe  Fe134     1.0  0.57725  0.94134  0.06595  1.0000
  S   S270      1.0  0.58244  0.95061  0.00071  1.0000
  Fe  Fe135     1.0  0.58625  0.94179  0.15721  1.0000
  S   S271      1.0  0.59967  0.95848  0.20067  1.0000
  S   S272      1.0  0.55903  0.92156  0.07622  1.0000
  S   S273      1.0  0.56835  0.92218  0.17334  1.0000
  Fe  Fe136     1.0  0.62846  0.77308  0.07042  1.0000
  S   S274      1.0  0.63878  0.78817  0.01898  1.0000
  S   S275      1.0  0.64011  0.77276  0.13180  1.0000
  Fe  Fe137     1.0  0.59875  0.76290  0.02259  1.0000
  S   S276      1.0  0.60719  0.77750  0.96719  1.0000
  H   H801      1.0  0.55708  0.84027  0.94978  1.0000
  Fe  Fe138     1.0  0.63260  0.76714  0.97993  1.0000
  S   S277      1.0  0.65177  0.75268  0.94186  1.0000
  Fe  Fe139     1.0  0.61286  0.79744  0.01114  1.0000
  S   S278      1.0  0.60618  0.82462  0.99936  1.0000
  C   C794      1.0  0.67552  0.93323  0.40248  1.0000
  S   S279      1.0  0.60307  0.78350  0.06509  1.0000
  S   S280      1.0  0.72452  0.74774  0.69595  1.0000
  S   S281      1.0  0.65547  0.96978  0.47109  1.0000
  S   S282      1.0  0.68393  0.97898  0.40269  1.0000
  Fe  Fe140     1.0  0.68283  0.97169  0.46893  1.0000
  S   S283      1.0  0.69746  0.95050  0.49881  1.0000
  C   C795      1.0  0.70379  0.77724  0.11946  1.0000
  C   C796      1.0  0.71307  0.93725  0.47833  1.0000
  C   C797      1.0  0.71848  0.92358  0.50171  1.0000
  C   C798      1.0  0.73012  0.91219  0.48598  1.0000
  C   C799      1.0  0.71975  0.93958  0.43919  1.0000
  H   H802      1.0  0.71351  0.92168  0.53213  1.0000
  C   C800      1.0  0.56726  0.83945  0.97134  1.0000
  H   H803      1.0  0.71581  0.95003  0.42081  1.0000
  S   S284      1.0  0.64398  0.96124  0.36021  1.0000
  C   C801      1.0  0.61249  0.95889  0.24430  1.0000
  C   C802      1.0  0.61574  0.97404  0.26133  1.0000
  C   C803      1.0  0.62536  0.97507  0.29636  1.0000
  C   C804      1.0  0.63191  0.96091  0.31526  1.0000
  C   C805      1.0  0.62865  0.94575  0.29821  1.0000
  C   C806      1.0  0.61913  0.94473  0.26302  1.0000
  H   H804      1.0  0.65609  0.74805  0.08222  1.0000
  C   C807      1.0  0.68632  0.74132  0.15074  1.0000
  H   H805      1.0  0.67916  0.78504  0.83225  1.0000
  H   H806      1.0  0.61702  0.93296  0.25034  1.0000
  C   C808      1.0  0.59010  0.86609  0.08688  1.0000
  C   C809      1.0  0.59338  0.86935  0.04555  1.0000
  C   C810      1.0  0.59875  0.85664  0.01965  1.0000
  C   C811      1.0  0.60092  0.84044  0.03445  1.0000
  C   C812      1.0  0.59781  0.83720  0.07585  1.0000
  C   C813      1.0  0.59238  0.84991  0.10171  1.0000
  H   H807      1.0  0.59177  0.88168  0.03352  1.0000
  H   H808      1.0  0.60118  0.85939  0.98781  1.0000
  H   H809      1.0  0.59942  0.82488  0.08793  1.0000
  H   H810      1.0  0.58998  0.84719  0.13359  1.0000
  H   H811      1.0  0.52845  0.96716  0.21320  1.0000
  C   C814      1.0  0.67713  0.73959  0.11575  1.0000
  C   C815      1.0  0.59664  0.74073  0.12089  1.0000
  H   H812      1.0  0.58487  0.96125  0.91709  1.0000
  C   C816      1.0  0.56668  0.79533  0.00284  1.0000
  C   C817      1.0  0.50463  0.91880  0.16547  1.0000
  C   C818      1.0  0.50594  0.93569  0.16017  1.0000
  H   H813      1.0  0.56302  0.78516  0.06315  1.0000
  H   H814      1.0  0.51529  0.91088  0.16141  1.0000
  H   H815      1.0  0.60455  0.96860  0.65096  1.0000
  S   S285      1.0  0.62360  0.75142  0.03299  1.0000
  C   C819      1.0  0.73797  0.80476  0.35152  1.0000
  H   H816      1.0  0.61810  0.95739  0.06268  1.0000
  C   C820      1.0  0.69038  0.76103  0.83901  1.0000
  H   H817      1.0  0.62265  0.97425  0.92583  1.0000
  C   C821      1.0  0.66740  0.77146  0.88118  1.0000
  C   C822      1.0  0.66682  0.75662  0.90304  1.0000
  H   H818      1.0  0.70058  0.92768  0.32005  1.0000
  C   C823      1.0  0.68208  0.93565  0.36329  1.0000
  H   H819      1.0  0.65871  0.78121  0.88831  1.0000
  H   H820      1.0  0.71187  0.90592  0.36657  1.0000
  C   C824      1.0  0.58192  0.97195  0.93473  1.0000
  C   C825      1.0  0.66301  0.74932  0.10946  1.0000
  C   C826      1.0  0.69519  0.92576  0.35012  1.0000
  C   C827      1.0  0.56373  0.79627  0.04463  1.0000
  C   C828      1.0  0.65787  0.76061  0.13854  1.0000
  C   C829      1.0  0.66685  0.76210  0.17391  1.0000
  H   H821      1.0  0.60541  0.75744  0.16443  1.0000
  C   C830      1.0  0.57540  0.98415  0.99940  1.0000
  H   H822      1.0  0.55056  0.92451  0.26919  1.0000
  H   H823      1.0  0.66286  0.77080  0.19657  1.0000
  C   C831      1.0  0.70318  0.76170  0.05819  1.0000
  H   H824      1.0  0.73395  0.90166  0.50418  1.0000
  C   C832      1.0  0.68959  0.78565  0.10762  1.0000
  H   H825      1.0  0.56827  0.78349  0.98891  1.0000
  H   H826      1.0  0.55338  0.98251  0.22619  1.0000
  H   H827      1.0  0.67704  0.94525  0.34350  1.0000
  H   H828      1.0  0.54164  0.74092  0.05814  1.0000
  H   H829      1.0  0.58679  0.98539  0.69604  1.0000
  C   C833      1.0  0.56216  0.81153  0.06248  1.0000
  H   H830      1.0  0.59856  0.96767  0.06775  1.0000
  H   H831      1.0  0.68383  0.79465  0.12737  1.0000
  H   H832      1.0  0.58523  0.74745  0.11625  1.0000
  H   H833      1.0  0.66525  0.90954  0.46800  1.0000
  H   H834      1.0  0.56241  0.83747  0.05228  1.0000
  C   C834      1.0  0.68132  0.76588  0.00910  1.0000
  C   C835      1.0  0.67472  0.91884  0.46872  1.0000
  H   H835      1.0  0.67114  0.78813  0.06269  1.0000
  N   N67       1.0  0.68939  0.77018  0.04650  1.0000
  C   C836      1.0  0.56794  0.80971  0.97935  1.0000
  H   H836      1.0  0.69979  0.90211  0.43534  1.0000
  H   H837      1.0  0.72562  0.80608  0.36329  1.0000
  H   H838      1.0  0.61080  0.98514  0.24730  1.0000
  H   H839      1.0  0.57069  0.80889  0.94706  1.0000
  H   H840      1.0  0.68421  0.91489  0.49074  1.0000
  C   C837      1.0  0.69455  0.91139  0.41502  1.0000
  H   H841      1.0  0.56693  0.85067  0.98970  1.0000
  H   H842      1.0  0.52707  0.93810  0.23516  1.0000
  C   C838      1.0  0.58141  0.98749  0.91518  1.0000
  S   S286      1.0  0.72726  0.77804  0.31254  1.0000
  C   C839      1.0  0.67736  0.75683  0.72165  1.0000
  C   C840      1.0  0.53849  0.96134  0.22948  1.0000
  H   H843      1.0  0.61623  0.97581  0.09082  1.0000
  N   N68       1.0  0.56462  0.94595  0.26843  1.0000
  C   C841      1.0  0.56546  0.96201  0.25649  1.0000
  C   C842      1.0  0.55101  0.93739  0.26113  1.0000
  H   H844      1.0  0.57904  0.83925  0.95397  1.0000
  C   C843      1.0  0.61846  0.97148  0.99067  1.0000
  H   H845      1.0  0.50334  0.94927  0.05940  1.0000
  C   C844      1.0  0.61181  0.96958  0.06374  1.0000
  H   H846      1.0  0.57513  0.92798  0.30891  1.0000
  H   H847      1.0  0.67223  0.75641  0.01594  1.0000
  H   H848      1.0  0.57643  0.96868  0.26120  1.0000
  C   C845      1.0  0.70143  0.91347  0.37601  1.0000
  H   H849      1.0  0.68957  0.75940  0.70819  1.0000
  S   S287      1.0  0.70381  0.76402  0.79613  1.0000
  H   H850      1.0  0.66924  0.93043  0.48046  1.0000
  H   H851      1.0  0.62770  0.98685  0.30876  1.0000
  H   H852      1.0  0.73110  0.78605  0.45160  1.0000
  N   N69       1.0  0.68192  0.92137  0.42796  1.0000
  C   C846      1.0  0.57920  0.97019  0.97702  1.0000
  C   C847      1.0  0.68114  0.75258  0.17987  1.0000
  C   C848      1.0  0.73147  0.92825  0.42357  1.0000
  H   H853      1.0  0.70830  0.75193  0.03982  1.0000
  C   C849      1.0  0.57882  0.93748  0.28620  1.0000
  H   H854      1.0  0.69017  0.76112  0.98590  1.0000
  N   N70       1.0  0.56614  0.82462  0.99698  1.0000
  H   H855      1.0  0.56035  0.81242  0.09512  1.0000
  C   C850      1.0  0.68247  0.78189  0.07093  1.0000
  H   H856      1.0  0.58659  0.94610  0.30192  1.0000
  Fe  Fe141     1.0  0.65645  0.97818  0.40501  1.0000
  N   N71       1.0  0.61480  0.97920  0.02629  1.0000
  H   H857      1.0  0.67494  0.77667  0.99490  1.0000
  C   C851      1.0  0.67904  0.77359  0.84931  1.0000
  H   H858      1.0  0.70918  0.77967  0.14843  1.0000
  H   H859      1.0  0.58627  0.93163  0.26163  1.0000
  C   C852      1.0  0.56331  0.82567  0.03802  1.0000
  H   H860      1.0  0.67447  0.76694  0.74284  1.0000
  H   H861      1.0  0.63365  0.93467  0.31220  1.0000
  H   H862      1.0  0.61922  0.95824  0.98998  1.0000
  C   C853      1.0  0.67829  0.74413  0.89306  1.0000
  H   H863      1.0  0.49280  0.95885  0.16213  1.0000
  H   H864      1.0  0.72128  0.75808  0.10454  1.0000
  C   C854      1.0  0.55245  0.96993  0.23672  1.0000
  C   C855      1.0  0.53771  0.94498  0.24187  1.0000
  H   H865      1.0  0.66827  0.75698  0.69725  1.0000
  H   H866      1.0  0.68816  0.75395  0.20695  1.0000
  Fe  Fe142     1.0  0.73430  0.75724  0.27086  1.0000
  C   C856      1.0  0.69005  0.74633  0.86152  1.0000
  Fe  Fe143     1.0  0.72394  0.74828  0.76467  1.0000
  C   C857      1.0  0.73662  0.91439  0.44660  1.0000
  C   C858      1.0  0.62033  0.98046  0.95421  1.0000
  S   S288      1.0  0.73551  0.75906  0.20252  1.0000
  H   H867      1.0  0.57321  0.98303  0.03187  1.0000
  C   C859      1.0  0.49330  0.92546  0.06777  1.0000
  C   C860      1.0  0.49235  0.94246  0.06480  1.0000
  H   H868      1.0  0.73926  0.81651  0.46883  1.0000
  C   C861      1.0  0.49192  0.94576  0.16581  1.0000
  C   C862      1.0  0.60788  0.74626  0.14810  1.0000
  H   H869      1.0  0.63134  0.74212  0.17413  1.0000
  N   N72       1.0  0.67770  0.74096  0.74320  1.0000
  C   C863      1.0  0.58730  0.98832  0.66369  1.0000
  C   C864      1.0  0.59746  0.97881  0.63836  1.0000
  H   H870      1.0  0.58401  0.98866  0.88288  1.0000
  H   H871      1.0  0.73978  0.76529  0.40154  1.0000
  H   H872      1.0  0.60760  0.97640  0.57766  1.0000
  C   C865      1.0  0.59917  0.98319  0.59727  1.0000
  C   C866      1.0  0.74183  0.16978  0.38489  1.0000
  C   C867      1.0  0.77772  0.05212  0.37558  1.0000
  C   C868      1.0  0.89339  0.10134  0.20655  1.0000
  S   S289      1.0  0.75351  0.22249  0.09366  1.0000
  Fe  Fe144     1.0  0.75228  0.22271  0.16208  1.0000
  S   S290      1.0  0.76942  0.20548  0.19742  1.0000
  Fe  Fe145     1.0  0.78020  0.12917  0.42460  1.0000
  S   S291      1.0  0.75491  0.12388  0.40598  1.0000
  S   S292      1.0  0.78676  0.14803  0.47074  1.0000
  Fe  Fe146     1.0  0.79646  0.10630  0.36156  1.0000
  S   S293      1.0  0.77192  0.09973  0.33755  1.0000
  S   S294      1.0  0.81898  0.09352  0.33155  1.0000
  Fe  Fe147     1.0  0.76522  0.12661  0.34215  1.0000
  N   N73       1.0  0.76713  0.18037  0.40587  1.0000
  Fe  Fe148     1.0  0.76334  0.09743  0.40289  1.0000
  C   C869      1.0  0.99013  0.23183  0.88540  1.0000
  S   S295      1.0  0.79015  0.13330  0.36082  1.0000
  S   S296      1.0  0.78826  0.10259  0.42680  1.0000
  Fe  Fe149     1.0  0.97206  0.17750  0.95542  1.0000
  S   S297      1.0  0.94978  0.19500  0.96326  1.0000
  H   H873      1.0  0.80552  0.04781  0.29836  1.0000
  S   S298      1.0  0.97243  0.15042  0.94337  1.0000
  Fe  Fe150     1.0  0.91875  0.07744  0.33073  1.0000
  S   S299      1.0  0.92294  0.07005  0.26574  1.0000
  S   S300      1.0  0.89624  0.09097  0.35835  1.0000
  Fe  Fe151     1.0  0.95452  0.06782  0.35384  1.0000
  S   S301      1.0  0.96081  0.06048  0.28944  1.0000
  S   S302      1.0  0.97126  0.05974  0.40650  1.0000
  Fe  Fe152     1.0  0.94673  0.08315  0.26763  1.0000
  S   S303      1.0  0.95248  0.10436  0.22136  1.0000
  Fe  Fe153     1.0  0.93670  0.04795  0.29253  1.0000
  S   S304      1.0  0.93582  0.02169  0.26978  1.0000
  S   S305      1.0  0.94206  0.09128  0.33249  1.0000
  S   S306      1.0  0.93085  0.05457  0.35705  1.0000
  C   C870      1.0  0.93311  0.00289  0.29738  1.0000
  H   H874      1.0  0.96541  0.99925  0.41705  1.0000
  H   H875      1.0  0.92882  0.01349  0.35595  1.0000
  C   C871      1.0  0.97445  0.11976  0.09419  1.0000
  C   C872      1.0  0.96642  0.13112  0.11941  1.0000
  C   C873      1.0  0.95980  0.12616  0.15783  1.0000
  C   C874      1.0  0.96085  0.10973  0.17179  1.0000
  C   C875      1.0  0.96866  0.09833  0.14629  1.0000
  H   H876      1.0  0.97735  0.07230  0.62009  1.0000
  H   H877      1.0  0.98318  0.23027  0.02888  1.0000
  H   H878      1.0  0.76526  0.16208  0.36133  1.0000
  H   H879      1.0  0.86761  0.09733  0.20526  1.0000
  C   C876      1.0  0.91562  0.12251  0.28726  1.0000
  C   C877      1.0  0.90587  0.10803  0.22836  1.0000
  H   H880      1.0  0.79391  0.23254  0.79006  1.0000
  C   C878      1.0  0.91535  0.22796  0.88423  1.0000
  S   S307      1.0  0.98569  0.17384  0.01407  1.0000
  C   C879      1.0  0.92400  0.21674  0.94998  1.0000
  C   C880      1.0  0.93656  0.20723  0.93153  1.0000
  C   C881      1.0  0.93852  0.20825  0.88916  1.0000
  C   C882      1.0  0.92799  0.21853  0.86576  1.0000
  C   C883      1.0  0.81045  0.05635  0.35825  1.0000
  C   C884      1.0  0.95564  0.07153  0.50768  1.0000
  H   H881      1.0  0.94810  0.20107  0.87437  1.0000
  C   C885      1.0  0.93024  0.00226  0.33949  1.0000
  H   H882      1.0  0.95933  0.02834  0.33487  1.0000
  H   H883      1.0  0.96547  0.14379  0.10955  1.0000
  C   C886      1.0  0.84035  0.09259  0.34079  1.0000
  C   C887      1.0  0.85049  0.08182  0.31807  1.0000
  C   C888      1.0  0.86751  0.08081  0.32364  1.0000
  C   C889      1.0  0.87470  0.09069  0.35187  1.0000
  C   C890      1.0  0.86454  0.10138  0.37472  1.0000
  C   C891      1.0  0.84751  0.10229  0.36939  1.0000
  H   H884      1.0  0.84516  0.07426  0.29576  1.0000
  H   H885      1.0  0.87509  0.07256  0.30569  1.0000
  H   H886      1.0  0.86989  0.10910  0.39665  1.0000
  H   H887      1.0  0.83997  0.11065  0.38713  1.0000
  C   C892      1.0  0.75502  0.16035  0.27428  1.0000
  H   H888      1.0  0.96707  0.05511  0.55095  1.0000
  H   H889      1.0  0.92960  0.21911  0.83304  1.0000
  C   C893      1.0  0.76341  0.18876  0.22884  1.0000
  C   C894      1.0  0.77548  0.17856  0.24665  1.0000
  C   C895      1.0  0.77133  0.16444  0.26935  1.0000
  C   C896      1.0  0.98477  0.07520  0.59241  1.0000
  H   H890      1.0  0.88426  0.12274  0.30800  1.0000
  H   H891      1.0  0.78816  0.18145  0.24220  1.0000
  H   H892      1.0  0.78078  0.15649  0.28195  1.0000
  C   C897      1.0  0.77250  0.16079  0.49729  1.0000
  C   C898      1.0  0.75576  0.15830  0.49657  1.0000
  C   C899      1.0  0.74193  0.19072  0.43510  1.0000
  S   S308      1.0  0.74930  0.14183  0.29871  1.0000
  C   C900      1.0  0.76711  0.18498  0.53847  1.0000
  C   C901      1.0  0.77811  0.17408  0.51868  1.0000
  H   H893      1.0  0.74388  0.18953  0.07730  1.0000
  H   H894      1.0  0.91478  0.11843  0.31973  1.0000
  H   H895      1.0  0.77157  0.19527  0.55436  1.0000
  H   H896      1.0  0.79104  0.17604  0.51968  1.0000
  C   C902      1.0  0.85507  0.21359  0.79863  1.0000
  N   N74       1.0  0.98629  0.22352  0.96741  1.0000
  H   H897      1.0  0.97222  0.00756  0.28963  1.0000
  C   C903      1.0  0.75880  0.17016  0.38218  1.0000
  H   H898      1.0  0.87773  0.22510  0.80784  1.0000
  H   H899      1.0  0.85690  0.20466  0.82312  1.0000
  H   H900      1.0  0.78545  0.17557  0.09427  1.0000
  H   H901      1.0  0.77871  0.19429  0.11806  1.0000
  C   C904      1.0  0.74553  0.18060  0.10186  1.0000
  C   C905      1.0  0.88686  0.11702  0.27907  1.0000
  C   C906      1.0  0.75036  0.18257  0.53745  1.0000
  H   H902      1.0  0.91471  0.13604  0.28524  1.0000
  H   H903      1.0  0.78861  0.18994  0.37907  1.0000
  C   C907      1.0  0.78403  0.04832  0.33717  1.0000
  H   H904      1.0  0.90385  0.23412  0.94142  1.0000
  H   H905      1.0  0.80832  0.06921  0.45522  1.0000
  H   H906      1.0  0.81931  0.07900  0.41417  1.0000
  C   C908      1.0  0.91347  0.22701  0.92661  1.0000
  H   H907      1.0  0.96085  0.22764  0.95880  1.0000
  H   H908      1.0  0.77256  0.18998  0.06732  1.0000
  C   C909      1.0  0.97275  0.09549  0.54462  1.0000
  N   N75       1.0  0.96887  0.00510  0.35394  1.0000
  S   S309      1.0  0.77627  0.23215  0.71583  1.0000
  C   C910      1.0  0.96570  0.06772  0.54054  1.0000
  H   H909      1.0  0.95378  0.13517  0.17690  1.0000
  H   H910      1.0  0.77467  0.16253  0.15877  1.0000
  H   H911      1.0  0.82535  0.05863  0.43125  1.0000
  H   H912      1.0  0.82318  0.05832  0.35093  1.0000
  C   C911      1.0  0.96271  0.09974  0.51197  1.0000
  C   C912      1.0  0.83869  0.22541  0.74490  1.0000
  H   H913      1.0  0.83156  0.20498  0.78282  1.0000
  H   H914      1.0  0.76550  0.19873  0.45080  1.0000
  H   H915      1.0  0.96389  0.23441  0.88558  1.0000
  H   H916      1.0  0.91826  0.10696  0.21644  1.0000
  H   H917      1.0  0.75127  0.14809  0.48047  1.0000
  C   C913      1.0  0.97461  0.23164  0.90346  1.0000
  C   C914      1.0  0.80051  0.05044  0.32835  1.0000
  H   H918      1.0  0.97901  0.02850  0.35826  1.0000
  H   H919      1.0  0.79016  0.16853  0.39397  1.0000
  H   H920      1.0  0.82760  0.22585  0.72752  1.0000
  H   H921      1.0  0.96070  0.02575  0.38856  1.0000
  C   C915      1.0  0.95418  0.08764  0.49331  1.0000
  C   C916      1.0  0.87740  0.10262  0.22155  1.0000
  H   H922      1.0  0.92784  0.11852  0.27543  1.0000
  C   C917      1.0  0.78492  0.18069  0.40239  1.0000
  H   H923      1.0  0.96197  0.11223  0.50042  1.0000
  C   C918      1.0  0.98579  0.06806  0.43917  1.0000
  C   C919      1.0  0.97294  0.22766  0.94489  1.0000
  C   C920      1.0  0.74706  0.18494  0.23487  1.0000
  H   H924      1.0  0.92232  0.21612  0.98269  1.0000
  H   H925      1.0  0.98336  0.09290  0.41704  1.0000
  H   H926      1.0  0.76489  0.05062  0.38270  1.0000
  C   C921      1.0  0.97539  0.10332  0.10803  1.0000
  H   H927      1.0  0.78281  0.06147  0.43409  1.0000
  N   N76       1.0  0.97420  0.07962  0.55829  1.0000
  C   C922      1.0  0.74922  0.15769  0.16459  1.0000
  H   H928      1.0  0.94682  0.09062  0.46700  1.0000
  S   S310      1.0  0.75046  0.07561  0.43399  1.0000
  S   S311      1.0  0.76232  0.23458  0.59560  1.0000
  S   S312      1.0  0.98471  0.12545  0.04711  1.0000
  H   H929      1.0  0.94948  0.06198  0.49241  1.0000
  H   H930      1.0  0.97305  0.21188  0.01569  1.0000
  C   C923      1.0  0.87407  0.11063  0.25787  1.0000
  N   N77       1.0  0.76075  0.17643  0.11543  1.0000
  H   H931      1.0  0.86171  0.11150  0.27021  1.0000
  C   C924      1.0  0.81477  0.06707  0.42568  1.0000
  Fe  Fe154     1.0  0.75852  0.23641  0.66362  1.0000
  C   C925      1.0  0.77506  0.18444  0.09781  1.0000
  C   C926      1.0  0.96695  0.02275  0.35925  1.0000
  C   C927      1.0  0.97178  0.99923  0.31580  1.0000
  H   H932      1.0  0.96959  0.08566  0.15610  1.0000
  H   H933      1.0  0.79027  0.18344  0.43211  1.0000
  N   N78       1.0  0.90253  0.11555  0.26441  1.0000
  H   H934      1.0  0.75081  0.14900  0.18977  1.0000
  N   N79       1.0  0.80411  0.06030  0.39566  1.0000
  C   C928      1.0  0.78796  0.05822  0.40460  1.0000
  H   H935      1.0  0.89618  0.09511  0.17840  1.0000
  H   H936      1.0  0.77610  0.04390  0.31423  1.0000
  H   H937      1.0  0.75040  0.21529  0.75948  1.0000
  C   C929      1.0  0.96781  0.99461  0.38686  1.0000
  C   C930      1.0  0.84090  0.21375  0.77602  1.0000
  C   C931      1.0  0.75892  0.19076  0.43163  1.0000
  C   C932      1.0  0.86680  0.22524  0.78992  1.0000
  C   C933      1.0  0.76269  0.16530  0.14676  1.0000
  H   H938      1.0  0.97979  0.10485  0.55805  1.0000
  C   C934      1.0  0.74291  0.17077  0.25742  1.0000
  Fe  Fe155     1.0  0.98728  0.14713  0.00046  1.0000
  H   H939      1.0  0.98146  0.09431  0.08903  1.0000
  C   C935      1.0  0.74479  0.16906  0.51683  1.0000
  C   C936      1.0  0.85058  0.23700  0.73736  1.0000
  N   N80       1.0  0.86430  0.23692  0.76008  1.0000
  C   C937      1.0  0.98915  0.08469  0.43894  1.0000
  C   C938      1.0  0.98421  0.21908  0.01059  1.0000
  Fe  Fe156     1.0  0.74038  0.21886  0.59707  1.0000
  H   H940      1.0  0.83386  0.34016  0.94080  1.0000
  H   H941      1.0  0.75125  0.30117  0.48288  1.0000
  H   H942      1.0  0.81704  0.24865  0.81257  1.0000
  H   H943      1.0  0.74525  0.45879  0.38790  1.0000
  S   S313      1.0  0.76638  0.26729  0.05232  1.0000
  C   C939      1.0  0.94428  0.38949  0.81759  1.0000
  Fe  Fe157     1.0  0.84954  0.27255  0.82998  1.0000
  S   S314      1.0  0.84316  0.28867  0.88316  1.0000
  S   S315      1.0  0.83620  0.27366  0.76980  1.0000
  Fe  Fe158     1.0  0.88078  0.25809  0.86945  1.0000
  S   S316      1.0  0.87648  0.27327  0.92483  1.0000
  H   H944      1.0  0.86475  0.43455  0.43579  1.0000
  Fe  Fe159     1.0  0.85018  0.26641  0.92116  1.0000
  S   S317      1.0  0.83814  0.25602  0.97892  1.0000
  Fe  Fe160     1.0  0.86988  0.29442  0.88209  1.0000
  S   S318      1.0  0.88012  0.31944  0.89666  1.0000
  Fe  Fe161     1.0  0.74404  0.25575  0.59115  1.0000
  S   S319      1.0  0.87585  0.27967  0.82689  1.0000
  Fe  Fe162     1.0  0.80051  0.46906  0.42853  1.0000
  H   H945      1.0  0.75159  0.30146  0.26106  1.0000
  S   S320      1.0  0.78569  0.45127  0.39174  1.0000
  Fe  Fe163     1.0  0.82357  0.47573  0.49951  1.0000
  S   S321      1.0  0.83656  0.46127  0.55196  1.0000
  S   S322      1.0  0.82789  0.46758  0.43465  1.0000
  Fe  Fe164     1.0  0.89809  0.41279  0.80495  1.0000
  S   S323      1.0  0.91184  0.42260  0.74978  1.0000
  S   S324      1.0  0.88787  0.38722  0.79676  1.0000
  Fe  Fe165     1.0  0.90130  0.44533  0.84899  1.0000
  S   S325      1.0  0.91499  0.45690  0.79625  1.0000
  S   S326      1.0  0.89209  0.45830  0.90673  1.0000
  Fe  Fe166     1.0  0.89657  0.44574  0.75547  1.0000
  S   S327      1.0  0.88554  0.46216  0.70349  1.0000
  Fe  Fe167     1.0  0.92915  0.43283  0.79447  1.0000
  S   S328      1.0  0.95641  0.42868  0.77871  1.0000
  S   S329      1.0  0.88203  0.43560  0.80869  1.0000
  S   S330      1.0  0.91628  0.42161  0.84915  1.0000
  C   C940      1.0  0.97464  0.43135  0.80615  1.0000
  N   N81       1.0  0.84098  0.31742  0.96994  1.0000
  C   C941      1.0  0.97447  0.43674  0.84620  1.0000
  C   C942      1.0  0.75944  0.48654  0.36629  1.0000
  H   H946      1.0  0.96297  0.43958  0.86145  1.0000
  C   C943      1.0  0.85006  0.46193  0.59436  1.0000
  C   C944      1.0  0.85349  0.44750  0.61729  1.0000
  C   C945      1.0  0.86417  0.44727  0.65061  1.0000
  C   C946      1.0  0.87177  0.46152  0.66163  1.0000
  C   C947      1.0  0.86837  0.47596  0.63863  1.0000
  C   C948      1.0  0.85763  0.47620  0.60545  1.0000
  H   H947      1.0  0.84778  0.43634  0.60933  1.0000
  H   H948      1.0  0.86653  0.43604  0.66768  1.0000
  C   C949      1.0  0.89191  0.47886  0.97200  1.0000
  C   C950      1.0  0.74349  0.46072  0.45279  1.0000
  H   H949      1.0  0.74513  0.32875  0.19519  1.0000
  C   C951      1.0  0.90056  0.47359  0.93697  1.0000
  H   H950      1.0  0.86456  0.46493  0.77865  1.0000
  H   H951      1.0  0.74280  0.27761  0.22291  1.0000
  C   C952      1.0  0.88173  0.33830  0.86853  1.0000
  C   C953      1.0  0.87686  0.34020  0.82818  1.0000
  C   C954      1.0  0.87857  0.35532  0.80717  1.0000
  C   C955      1.0  0.88510  0.36881  0.82608  1.0000
  C   C956      1.0  0.88986  0.36696  0.86656  1.0000
  C   C957      1.0  0.88821  0.35181  0.88753  1.0000
  H   H952      1.0  0.87184  0.32999  0.81303  1.0000
  H   H953      1.0  0.87482  0.35655  0.77590  1.0000
  H   H954      1.0  0.89490  0.37717  0.88162  1.0000
  H   H955      1.0  0.89201  0.35055  0.91875  1.0000
  H   H956      1.0  0.86035  0.48372  0.85938  1.0000
  C   C958      1.0  0.76484  0.42728  0.36994  1.0000
  C   C959      1.0  0.77245  0.43465  0.40248  1.0000
  C   C960      1.0  0.76871  0.42911  0.44211  1.0000
  C   C961      1.0  0.79203  0.24479  0.73151  1.0000
  C   C962      1.0  0.75367  0.41466  0.37673  1.0000
  H   H957      1.0  0.77440  0.43456  0.46756  1.0000
  H   H958      1.0  0.76320  0.32435  0.54831  1.0000
  C   C963      1.0  0.78577  0.26281  0.02974  1.0000
  C   C964      1.0  0.79075  0.27159  0.99454  1.0000
  C   C965      1.0  0.80648  0.26909  0.97731  1.0000
  C   C966      1.0  0.81753  0.25808  0.99582  1.0000
  C   C967      1.0  0.81251  0.24924  0.03081  1.0000
  C   C968      1.0  0.79667  0.25145  0.04747  1.0000
  H   H959      1.0  0.78238  0.28036  0.98053  1.0000
  H   H960      1.0  0.81017  0.27595  0.95034  1.0000
  H   H961      1.0  0.83367  0.28150  0.04581  1.0000
  C   C969      1.0  0.86854  0.47000  0.48555  1.0000
  C   C970      1.0  0.81860  0.26299  0.75703  1.0000
  C   C971      1.0  0.81177  0.26591  0.71860  1.0000
  C   C972      1.0  0.79849  0.25697  0.70598  1.0000
  C   C973      1.0  0.74984  0.40918  0.41635  1.0000
  S   S331      1.0  0.85487  0.24996  0.86797  1.0000
  H   H962      1.0  0.81687  0.27508  0.69827  1.0000
  H   H963      1.0  0.79348  0.25925  0.67618  1.0000
  H   H964      1.0  0.74799  0.40920  0.35126  1.0000
  Fe  Fe168     1.0  0.75321  0.24975  0.09563  1.0000
  H   H965      1.0  0.86369  0.44537  0.50586  1.0000
  H   H966      1.0  0.86141  0.28632  0.01791  1.0000
  C   C974      1.0  0.86685  0.44735  0.44059  1.0000
  N   N82       1.0  0.87143  0.48030  0.45301  1.0000
  C   C975      1.0  0.75578  0.29854  0.12976  1.0000
  H   H967      1.0  0.76634  0.29205  0.11692  1.0000
  C   C976      1.0  0.86631  0.45338  0.47988  1.0000
  C   C977      1.0  0.93926  0.37741  0.84526  1.0000
  H   H968      1.0  0.84895  0.47981  0.79312  1.0000
  H   H969      1.0  0.82099  0.24074  0.04541  1.0000
  H   H970      1.0  0.84452  0.32553  0.90879  1.0000
  S   S332      1.0  0.75430  0.25013  0.16390  1.0000
  H   H971      1.0  0.75469  0.41246  0.47974  1.0000
  H   H972      1.0  0.86104  0.48300  0.74773  1.0000
  S   S333      1.0  0.74912  0.27610  0.54432  1.0000
  H   H973      1.0  0.86972  0.45350  0.37672  1.0000
  C   C978      1.0  0.81190  0.25107  0.78297  1.0000
  C   C979      1.0  0.75450  0.48500  0.47978  1.0000
  C   C980      1.0  0.87655  0.24919  0.75130  1.0000
  C   C981      1.0  0.85378  0.30751  0.98193  1.0000
  C   C982      1.0  0.85136  0.29453  0.00957  1.0000
  H   H974      1.0  0.81530  0.32198  0.97365  1.0000
  C   C983      1.0  0.75746  0.41654  0.44892  1.0000
  H   H975      1.0  0.87410  0.48710  0.64658  1.0000
  H   H976      1.0  0.77149  0.48088  0.35799  1.0000
  H   H977      1.0  0.87058  0.26151  0.74787  1.0000
  C   C984      1.0  0.79879  0.24194  0.77007  1.0000
  C   C985      1.0  0.82274  0.30184  0.01248  1.0000
  H   H978      1.0  0.88339  0.24623  0.72285  1.0000
  H   H979      1.0  0.75831  0.27954  0.39610  1.0000
  H   H980      1.0  0.74619  0.24519  0.74945  1.0000
  H   H981      1.0  0.76968  0.31427  0.16626  1.0000
  H   H982      1.0  0.92447  0.35628  0.85423  1.0000
  N   N83       1.0  0.92824  0.37801  0.76593  1.0000
  C   C986      1.0  0.92333  0.36605  0.79281  1.0000
  C   C987      1.0  0.93857  0.38964  0.77785  1.0000
  C   C988      1.0  0.92878  0.36554  0.83280  1.0000
  C   C989      1.0  0.91498  0.48132  0.92582  1.0000
  H   H983      1.0  0.87367  0.48274  0.38833  1.0000
  C   C990      1.0  0.92150  0.37895  0.72503  1.0000
  H   H984      1.0  0.91465  0.35720  0.78385  1.0000
  H   H985      1.0  0.94226  0.39930  0.75681  1.0000
  C   C991      1.0  0.86963  0.45796  0.40750  1.0000
  S   S334      1.0  0.74200  0.25871  0.65900  1.0000
  C   C992      1.0  0.84372  0.33060  0.93985  1.0000
  H   H986      1.0  0.92951  0.38573  0.70334  1.0000
  H   H987      1.0  0.91998  0.36657  0.71301  1.0000
  H   H988      1.0  0.90938  0.38537  0.72621  1.0000
  H   H989      1.0  0.92179  0.47747  0.89902  1.0000
  H   H990      1.0  0.86763  0.47464  0.51617  1.0000
  C   C993      1.0  0.83576  0.29182  0.02520  1.0000
  H   H991      1.0  0.85534  0.33667  0.94548  1.0000
  H   H992      1.0  0.94326  0.37741  0.87644  1.0000
  H   H993      1.0  0.88073  0.47302  0.98096  1.0000
  H   H994      1.0  0.76760  0.43138  0.33910  1.0000
  C   C994      1.0  0.74388  0.31922  0.17317  1.0000
  H   H995      1.0  0.74143  0.26480  0.44799  1.0000
  C   C995      1.0  0.75763  0.31103  0.15718  1.0000
  C   C996      1.0  0.74534  0.28226  0.39880  1.0000
  C   C997      1.0  0.74285  0.35670  0.50408  1.0000
  S   S335      1.0  0.79613  0.47563  0.49388  1.0000
  H   H996      1.0  0.81049  0.29939  0.02343  1.0000
  H   H997      1.0  0.86595  0.30943  0.96976  1.0000
  H   H998      1.0  0.95224  0.39896  0.82700  1.0000
  C   C998      1.0  0.82555  0.31455  0.98427  1.0000
  H   H999      1.0  0.79307  0.24469  0.07468  1.0000
  C   C999      1.0  0.74714  0.47003  0.48610  1.0000
  N   N84       1.0  0.75465  0.48116  0.40757  1.0000
  C   C1000     1.0  0.87186  0.47451  0.41430  1.0000
  C   C1001     1.0  0.86137  0.47818  0.77963  1.0000
  C   C1002     1.0  0.74745  0.46645  0.41351  1.0000
  H   H1000     1.0  0.85518  0.48745  0.58857  1.0000
  H   H1001     1.0  0.96791  0.48752  0.09616  1.0000
  N   N85       1.0  0.87347  0.48649  0.80299  1.0000
  H   H1002     1.0  0.84848  0.24641  0.71410  1.0000
  H   H1003     1.0  0.74532  0.30097  0.35140  1.0000
  H   H1004     1.0  0.74483  0.36656  0.48204  1.0000
  H   H1005     1.0  0.75046  0.48283  0.34384  1.0000
  C   C1003     1.0  0.87102  0.48850  0.84387  1.0000
  S   S336      1.0  0.90234  0.24063  0.85297  1.0000
  H   H1006     1.0  0.88536  0.24982  0.77634  1.0000
  H   H1007     1.0  0.98888  0.44299  0.89733  1.0000
  H   H1008     1.0  0.74454  0.46554  0.51678  1.0000
  H   H1009     1.0  0.76757  0.34720  0.49814  1.0000
  C   C1004     1.0  0.75579  0.34582  0.51317  1.0000
  C   C1005     1.0  0.98981  0.42776  0.78702  1.0000
  C   C1006     1.0  0.98923  0.43865  0.86651  1.0000
  C   C1007     1.0  0.75338  0.33310  0.54147  1.0000
  H   H1010     1.0  0.99015  0.42364  0.75603  1.0000
  S   S337      1.0  0.74518  0.71961  0.20511  1.0000
  S   S338      1.0  0.91913  0.51641  0.01098  1.0000
  C   C1008     1.0  0.85165  0.50041  0.29670  1.0000
  S   S339      1.0  0.75729  0.72399  0.70215  1.0000
  Fe  Fe169     1.0  0.75483  0.72640  0.77047  1.0000
  C   C1009     1.0  0.89668  0.50178  0.84755  1.0000
  Fe  Fe170     1.0  0.93249  0.54410  0.13831  1.0000
  S   S340      1.0  0.92213  0.51916  0.13110  1.0000
  S   S341      1.0  0.95864  0.55234  0.14757  1.0000
  Fe  Fe171     1.0  0.90097  0.56212  0.10879  1.0000
  S   S342      1.0  0.88867  0.53831  0.09875  1.0000
  S   S343      1.0  0.88799  0.58755  0.10722  1.0000
  Fe  Fe172     1.0  0.89875  0.52983  0.15961  1.0000
  S   S344      1.0  0.88041  0.51524  0.19985  1.0000
  Fe  Fe173     1.0  0.91249  0.52895  0.07135  1.0000
  H   H1011     1.0  0.82714  0.73058  0.08673  1.0000
  S   S345      1.0  0.90986  0.55409  0.17090  1.0000
  S   S346      1.0  0.92396  0.55344  0.07719  1.0000
  Fe  Fe174     1.0  0.86937  0.67606  0.99614  1.0000
  S   S347      1.0  0.87194  0.68964  0.05376  1.0000
  S   S348      1.0  0.88023  0.65015  0.98634  1.0000
  Fe  Fe175     1.0  0.85156  0.70582  0.95449  1.0000
  S   S349      1.0  0.85330  0.72126  0.01023  1.0000
  S   S350      1.0  0.83972  0.71808  0.89842  1.0000
  Fe  Fe176     1.0  0.87927  0.71142  0.01443  1.0000
  C   C1010     1.0  0.81764  0.73264  0.21852  1.0000
  Fe  Fe177     1.0  0.84610  0.69841  0.04419  1.0000
  S   S351      1.0  0.82650  0.69502  0.09294  1.0000
  S   S352      1.0  0.87806  0.69728  0.95672  1.0000
  S   S353      1.0  0.84296  0.68353  0.98854  1.0000
  C   C1011     1.0  0.74461  0.55763  0.49015  1.0000
  S   S354      1.0  0.82462  0.50240  0.48162  1.0000
  C   C1012     1.0  0.86826  0.57075  0.19627  1.0000
  Fe  Fe178     1.0  0.79753  0.50188  0.47146  1.0000
  S   S355      1.0  0.77903  0.52064  0.49861  1.0000
  C   C1013     1.0  0.98292  0.50861  0.09629  1.0000
  C   C1014     1.0  0.76467  0.53953  0.43627  1.0000
  C   C1015     1.0  0.76540  0.53593  0.47800  1.0000
  C   C1016     1.0  0.75518  0.54498  0.50472  1.0000
  C   C1017     1.0  0.88752  0.49152  0.78416  1.0000
  H   H1012     1.0  0.77248  0.53281  0.41525  1.0000
  H   H1013     1.0  0.74163  0.61383  0.52543  1.0000
  C   C1018     1.0  0.91676  0.66986  0.94901  1.0000
  C   C1019     1.0  0.87214  0.51285  0.25062  1.0000
  C   C1020     1.0  0.87756  0.52159  0.28350  1.0000
  H   H1014     1.0  0.78336  0.56770  0.46177  1.0000
  C   C1021     1.0  0.85702  0.50920  0.32952  1.0000
  C   C1022     1.0  0.77418  0.57907  0.53292  1.0000
  H   H1015     1.0  0.96138  0.55641  0.05245  1.0000
  C   C1023     1.0  0.80571  0.73910  0.12024  1.0000
  H   H1016     1.0  0.75192  0.68777  0.47312  1.0000
  C   C1024     1.0  0.78611  0.70453  0.26051  1.0000
  H   H1017     1.0  0.77641  0.70408  0.23768  1.0000
  C   C1025     1.0  0.88642  0.60490  0.07312  1.0000
  C   C1026     1.0  0.87836  0.61926  0.08672  1.0000
  C   C1027     1.0  0.87638  0.63319  0.06083  1.0000
  C   C1028     1.0  0.88230  0.63293  0.02061  1.0000
  C   C1029     1.0  0.89049  0.61862  0.00709  1.0000
  C   C1030     1.0  0.89261  0.60474  0.03311  1.0000
  H   H1018     1.0  0.87348  0.61959  0.11751  1.0000
  H   H1019     1.0  0.87008  0.64404  0.07185  1.0000
  H   H1020     1.0  0.89511  0.61820  0.97607  1.0000
  H   H1021     1.0  0.89878  0.59384  0.02198  1.0000
  H   H1022     1.0  0.84328  0.53276  0.22238  1.0000
  H   H1023     1.0  0.87443  0.52664  0.34747  1.0000
  H   H1024     1.0  0.79680  0.73405  0.80163  1.0000
  H   H1025     1.0  0.80771  0.69860  0.98860  1.0000
  C   C1031     1.0  0.77973  0.58088  0.45939  1.0000
  H   H1026     1.0  0.82395  0.73577  0.83294  1.0000
  H   H1027     1.0  0.85582  0.52620  0.14174  1.0000
  C   C1032     1.0  0.97977  0.52988  0.18692  1.0000
  C   C1033     1.0  0.97779  0.54493  0.16628  1.0000
  C   C1034     1.0  0.95863  0.52440  0.05182  1.0000
  H   H1028     1.0  0.96933  0.52241  0.19274  1.0000
  H   H1029     1.0  0.92469  0.66010  0.93555  1.0000
  S   S356      1.0  0.80059  0.49543  0.40561  1.0000
  H   H1030     1.0  0.90414  0.66847  0.93836  1.0000
  H   H1031     1.0  0.86508  0.56453  0.13411  1.0000
  C   C1035     1.0  0.85565  0.55295  0.24630  1.0000
  H   H1032     1.0  0.75557  0.54227  0.53706  1.0000
  C   C1036     1.0  0.78970  0.71329  0.83832  1.0000
  C   C1037     1.0  0.80044  0.72534  0.82521  1.0000
  C   C1038     1.0  0.81585  0.72628  0.84309  1.0000
  C   C1039     1.0  0.82073  0.71531  0.87449  1.0000
  C   C1040     1.0  0.81014  0.70304  0.88696  1.0000
  C   C1041     1.0  0.79478  0.70203  0.86891  1.0000
  N   N86       1.0  0.80113  0.71038  0.24115  1.0000
  S   S357      1.0  0.76949  0.71230  0.81980  1.0000
  H   H1033     1.0  0.81375  0.69436  0.91060  1.0000
  H   H1034     1.0  0.97803  0.55075  0.01784  1.0000
  C   C1042     1.0  0.82579  0.70499  0.20246  1.0000
  C   C1043     1.0  0.91724  0.65376  0.01276  1.0000
  C   C1044     1.0  0.81610  0.72711  0.10270  1.0000
  C   C1045     1.0  0.81260  0.71061  0.10804  1.0000
  C   C1046     1.0  0.79828  0.70624  0.12902  1.0000
  C   C1047     1.0  0.78787  0.71822  0.14624  1.0000
  C   C1048     1.0  0.87007  0.51976  0.32251  1.0000
  C   C1049     1.0  0.76596  0.58428  0.56826  1.0000
  H   H1035     1.0  0.79548  0.69348  0.13299  1.0000
  H   H1036     1.0  0.77710  0.71468  0.16321  1.0000
  H   H1037     1.0  0.78791  0.69214  0.27443  1.0000
  C   C1050     1.0  0.84786  0.53742  0.14282  1.0000
  H   H1038     1.0  0.85331  0.54929  0.27776  1.0000
  C   C1051     1.0  0.75418  0.59688  0.56552  1.0000
  H   H1039     1.0  0.88750  0.52982  0.27884  1.0000
  H   H1040     1.0  0.81586  0.71492  0.01642  1.0000
  H   H1041     1.0  0.78328  0.56922  0.53522  1.0000
  C   C1052     1.0  0.84992  0.54369  0.21481  1.0000
  H   H1042     1.0  0.91440  0.69454  0.00049  1.0000
  C   C1053     1.0  0.98423  0.52493  0.08362  1.0000
  N   N87       1.0  0.91679  0.66876  0.99356  1.0000
  C   C1054     1.0  0.91178  0.49959  0.98392  1.0000
  N   N88       1.0  0.77059  0.58608  0.49587  1.0000
  H   H1043     1.0  0.84850  0.54367  0.11247  1.0000
  C   C1055     1.0  0.75407  0.55215  0.42169  1.0000
  H   H1044     1.0  0.83387  0.69644  0.18654  1.0000
  C   C1056     1.0  0.91515  0.68265  0.01567  1.0000
  H   H1045     1.0  0.75141  0.67103  0.36718  1.0000
  H   H1046     1.0  0.87566  0.58116  0.18846  1.0000
  S   S358      1.0  0.84809  0.50753  0.37978  1.0000
  C   C1057     1.0  0.86227  0.56125  0.16557  1.0000
  H   H1047     1.0  0.76872  0.57861  0.59755  1.0000
  S   S359      1.0  0.90232  0.72382  0.03634  1.0000
  C   C1058     1.0  0.91402  0.68174  0.05815  1.0000
  C   C1059     1.0  0.80379  0.72677  0.23874  1.0000
  H   H1048     1.0  0.94908  0.53046  0.03435  1.0000
  C   C1060     1.0  0.87322  0.49774  0.45981  1.0000
  H   H1049     1.0  0.77586  0.70955  0.96812  1.0000
  C   C1061     1.0  0.86498  0.56651  0.23688  1.0000
  H   H1050     1.0  0.91286  0.66559  0.11076  1.0000
  C   C1062     1.0  0.91590  0.65238  0.05517  1.0000
  C   C1063     1.0  0.97340  0.54987  0.04974  1.0000
  H   H1051     1.0  0.92120  0.68181  0.93745  1.0000
  H   H1052     1.0  0.91552  0.64041  0.07002  1.0000
  C   C1064     1.0  0.75907  0.59844  0.49294  1.0000
  H   H1053     1.0  0.81968  0.73584  0.96738  1.0000
  H   H1054     1.0  0.80932  0.68663  0.22311  1.0000
  H   H1055     1.0  0.91246  0.69283  0.07539  1.0000
  N   N89       1.0  0.79808  0.72206  0.97220  1.0000
  H   H1056     1.0  0.91772  0.64273  0.99518  1.0000
  H   H1057     1.0  0.94623  0.50159  0.05555  1.0000
  H   H1058     1.0  0.88045  0.49797  0.89899  1.0000
  H   H1059     1.0  0.75615  0.60395  0.46356  1.0000
  H   H1060     1.0  0.88099  0.49963  0.48635  1.0000
  H   H1061     1.0  0.76032  0.50002  0.36390  1.0000
  C   C1065     1.0  0.75072  0.60401  0.52769  1.0000
  H   H1062     1.0  0.75383  0.55497  0.38939  1.0000
  H   H1063     1.0  0.83510  0.53385  0.14861  1.0000
  H   H1064     1.0  0.86986  0.57358  0.26094  1.0000
  H   H1065     1.0  0.79566  0.70858  0.02808  1.0000
  C   C1066     1.0  0.85916  0.50222  0.25771  1.0000
  C   C1067     1.0  0.91427  0.66649  0.07794  1.0000
  H   H1066     1.0  0.93253  0.73448  0.06735  1.0000
  Fe  Fe179     1.0  0.82768  0.49433  0.41625  1.0000
  N   N90       1.0  0.85325  0.54789  0.17507  1.0000
  C   C1068     1.0  0.95698  0.50803  0.06368  1.0000
  C   C1069     1.0  0.79178  0.73466  0.14285  1.0000
  C   C1070     1.0  0.81182  0.69953  0.22299  1.0000
  H   H1067     1.0  0.87885  0.50402  0.43290  1.0000
  H   H1068     1.0  0.90582  0.50749  0.86523  1.0000
  H   H1069     1.0  0.78174  0.71265  0.28529  1.0000
  H   H1070     1.0  0.74115  0.68068  0.65340  1.0000
  H   H1071     1.0  0.78666  0.69257  0.87910  1.0000
  S   S360      1.0  0.75002  0.69994  0.31611  1.0000
  C   C1071     1.0  0.88240  0.49648  0.86652  1.0000
  H   H1072     1.0  0.74351  0.65502  0.61466  1.0000
  C   C1072     1.0  0.96916  0.50015  0.08633  1.0000
  N   N91       1.0  0.97199  0.53271  0.06246  1.0000
  C   C1073     1.0  0.82868  0.72166  0.20026  1.0000
  C   C1074     1.0  0.74411  0.56143  0.44848  1.0000
  H   H1073     1.0  0.77216  0.58244  0.43185  1.0000
  H   H1074     1.0  0.76509  0.72774  0.91310  1.0000
  C   C1075     1.0  0.80463  0.71049  0.00278  1.0000
  H   H1075     1.0  0.79081  0.58816  0.45515  1.0000
  H   H1076     1.0  0.91059  0.50289  0.79125  1.0000
  C   C1076     1.0  0.78296  0.71976  0.95724  1.0000
  H   H1077     1.0  0.83908  0.72609  0.18288  1.0000
  H   H1078     1.0  0.76432  0.50184  0.43557  1.0000
  H   H1079     1.0  0.86105  0.50363  0.46538  1.0000
  Fe  Fe180     1.0  0.74297  0.72092  0.27315  1.0000
  C   C1077     1.0  0.89934  0.49921  0.80613  1.0000
  C   C1078     1.0  0.92047  0.49427  0.94901  1.0000
  H   H1080     1.0  0.79486  0.73547  0.25099  1.0000
  C   C1079     1.0  0.77672  0.73008  0.92643  1.0000
  H   H1081     1.0  0.85482  0.49534  0.23273  1.0000
  H   H1082     1.0  0.74772  0.60119  0.59258  1.0000
  H   H1083     1.0  0.93155  0.50022  0.93976  1.0000
  C   C1080     1.0  0.80736  0.73447  0.95708  1.0000
  H   H1084     1.0  0.98165  0.55630  0.06985  1.0000
  H   H1085     1.0  0.89063  0.49560  0.02209  1.0000
  H   H1086     1.0  0.84171  0.49219  0.30129  1.0000
  C   C1081     1.0  0.75827  0.49037  0.44008  1.0000
  H   H1087     1.0  0.88975  0.48942  0.75206  1.0000
  C   C1082     1.0  0.89749  0.49170  0.99542  1.0000
  H   H1088     1.0  0.75768  0.49227  0.50544  1.0000
  H   H1089     1.0  0.76849  0.76381  0.37676  1.0000
  H   H1090     1.0  0.74675  0.82475  0.38581  1.0000
  C   C1083     1.0  0.81786  0.84140  0.55856  1.0000
  H   H1091     1.0  0.95077  0.75724  0.04884  1.0000
  H   H1092     1.0  0.82672  0.84363  0.53418  1.0000
  H   H1093     1.0  0.84541  0.90834  0.35800  1.0000
  H   H1094     1.0  0.91827  0.77276  0.95422  1.0000
  S   S361      1.0  0.97110  0.82269  0.02036  1.0000
  S   S362      1.0  0.97402  0.82462  0.14227  1.0000
  Fe  Fe181     1.0  0.97116  0.79534  0.01114  1.0000
  S   S363      1.0  0.94801  0.78399  0.98695  1.0000
  C   C1084     1.0  0.97525  0.84377  0.33903  1.0000
  Fe  Fe182     1.0  0.94514  0.89551  0.30743  1.0000
  S   S364      1.0  0.92211  0.91138  0.31045  1.0000
  S   S365      1.0  0.95831  0.88875  0.24689  1.0000
  Fe  Fe183     1.0  0.94836  0.89512  0.40064  1.0000
  S   S366      1.0  0.92531  0.91035  0.40999  1.0000
  S   S367      1.0  0.96357  0.88299  0.45158  1.0000
  Fe  Fe184     1.0  0.91417  0.89490  0.36307  1.0000
  S   S368      1.0  0.88790  0.88592  0.36046  1.0000
  Fe  Fe185     1.0  0.93452  0.92599  0.35712  1.0000
  S   S369      1.0  0.93216  0.95356  0.36911  1.0000
  S   S370      1.0  0.93655  0.87830  0.35706  1.0000
  S   S371      1.0  0.95823  0.91150  0.35069  1.0000
  Fe  Fe186     1.0  0.76511  0.87722  0.44683  1.0000
  S   S372      1.0  0.77893  0.87432  0.50507  1.0000
  C   C1085     1.0  0.87935  0.92933  0.33543  1.0000
  Fe  Fe187     1.0  0.77847  0.84399  0.41722  1.0000
  S   S373      1.0  0.79309  0.83895  0.47341  1.0000
  S   S374      1.0  0.78177  0.82511  0.36828  1.0000
  Fe  Fe188     1.0  0.77075  0.84819  0.50695  1.0000
  S   S375      1.0  0.75929  0.83655  0.56447  1.0000
  Fe  Fe189     1.0  0.80037  0.86521  0.46634  1.0000
  S   S376      1.0  0.82636  0.87298  0.48015  1.0000
  S   S377      1.0  0.75555  0.85166  0.45095  1.0000
  S   S378      1.0  0.78711  0.86963  0.40807  1.0000
  C   C1086     1.0  0.87141  0.88146  0.39512  1.0000
  C   C1087     1.0  0.85692  0.87562  0.37955  1.0000
  C   C1088     1.0  0.84308  0.87300  0.40491  1.0000
  C   C1089     1.0  0.84353  0.87601  0.44656  1.0000
  C   C1090     1.0  0.85809  0.88165  0.46229  1.0000
  C   C1091     1.0  0.87192  0.88435  0.43685  1.0000
  H   H1095     1.0  0.85633  0.87318  0.34746  1.0000
  H   H1096     1.0  0.83208  0.86857  0.39222  1.0000
  H   H1097     1.0  0.85868  0.88396  0.49444  1.0000
  H   H1098     1.0  0.88293  0.88878  0.44950  1.0000
  S   S379      1.0  0.98292  0.78884  0.07056  1.0000
  C   C1092     1.0  0.93399  0.97284  0.29767  1.0000
  C   C1093     1.0  0.93157  0.97224  0.33993  1.0000
  C   C1094     1.0  0.92147  0.76443  0.97897  1.0000
  H   H1099     1.0  0.80827  0.86612  0.55746  1.0000
  H   H1100     1.0  0.93560  0.96161  0.28128  1.0000
  H   H1101     1.0  0.93686  0.98836  0.24402  1.0000
  H   H1102     1.0  0.78820  0.78347  0.40185  1.0000
  H   H1103     1.0  0.78835  0.83753  0.68278  1.0000
  H   H1104     1.0  0.80426  0.81122  0.62180  1.0000
  H   H1105     1.0  0.77151  0.83973  0.64828  1.0000
  C   C1095     1.0  0.97764  0.89106  0.48589  1.0000
  C   C1096     1.0  0.91498  0.74044  0.02116  1.0000
  H   H1106     1.0  0.74419  0.80314  0.51188  1.0000
  H   H1107     1.0  0.90126  0.94319  0.33697  1.0000
  H   H1108     1.0  0.78759  0.86084  0.61185  1.0000
  C   C1097     1.0  0.96860  0.84285  0.16909  1.0000
  C   C1098     1.0  0.96031  0.84151  0.20700  1.0000
  C   C1099     1.0  0.95634  0.85543  0.23034  1.0000
  C   C1100     1.0  0.96083  0.87096  0.21641  1.0000
  C   C1101     1.0  0.96882  0.87233  0.17811  1.0000
  C   C1102     1.0  0.97261  0.85843  0.15455  1.0000
  H   H1109     1.0  0.95701  0.82958  0.21861  1.0000
  H   H1110     1.0  0.95013  0.85410  0.25952  1.0000
  C   C1103     1.0  0.93472  0.98807  0.27661  1.0000
  H   H1111     1.0  0.97967  0.88206  0.37327  1.0000
  C   C1104     1.0  0.93584  0.76679  0.00038  1.0000
  C   C1105     1.0  0.75796  0.79072  0.30887  1.0000
  C   C1106     1.0  0.87934  0.93016  0.41960  1.0000
  C   C1107     1.0  0.93974  0.75578  0.03218  1.0000
  H   H1112     1.0  0.90132  0.94376  0.41226  1.0000
  C   C1108     1.0  0.86708  0.92240  0.39932  1.0000
  C   C1109     1.0  0.76332  0.78521  0.62575  1.0000
  C   C1110     1.0  0.77395  0.78950  0.59326  1.0000
  C   C1111     1.0  0.77253  0.80487  0.57307  1.0000
  C   C1112     1.0  0.76056  0.81631  0.58556  1.0000
  C   C1113     1.0  0.74983  0.81198  0.61774  1.0000
  C   C1114     1.0  0.75113  0.79653  0.63758  1.0000
  H   H1113     1.0  0.78050  0.82001  0.65834  1.0000
  H   H1114     1.0  0.78095  0.80800  0.54860  1.0000
  C   C1115     1.0  0.85453  0.91372  0.33649  1.0000
  H   H1115     1.0  0.97946  0.92438  0.74989  1.0000
  C   C1116     1.0  0.76595  0.81349  0.34974  1.0000
  C   C1117     1.0  0.76986  0.80133  0.32151  1.0000
  C   C1118     1.0  0.77582  0.78346  0.41393  1.0000
  H   H1116     1.0  0.97891  0.86889  0.52248  1.0000
  S   S380      1.0  0.75033  0.89982  0.42360  1.0000
  C   C1119     1.0  0.74990  0.81534  0.36434  1.0000
  H   H1117     1.0  0.97202  0.95853  0.33847  1.0000
  C   C1120     1.0  0.80511  0.82331  0.60785  1.0000
  C   C1121     1.0  0.74863  0.77329  0.41381  1.0000
  C   C1122     1.0  0.76476  0.77248  0.39982  1.0000
  H   H1118     1.0  0.80878  0.75182  0.11750  1.0000
  H   H1119     1.0  0.76118  0.78124  0.28759  1.0000
  S   S381      1.0  0.78052  0.74969  0.16990  1.0000
  H   H1120     1.0  0.87942  0.93003  0.45257  1.0000
  C   C1123     1.0  0.80147  0.74507  0.92645  1.0000
  N   N92       1.0  0.86723  0.92206  0.35773  1.0000
  H   H1121     1.0  0.96806  0.85564  0.39487  1.0000
  H   H1122     1.0  0.84802  0.92237  0.31557  1.0000
  H   H1123     1.0  0.82464  0.81594  0.56645  1.0000
  C   C1124     1.0  0.98342  0.88109  0.51832  1.0000
  H   H1124     1.0  0.97006  0.83220  0.34806  1.0000
  Fe  Fe190     1.0  0.75141  0.75123  0.69893  1.0000
  N   N93       1.0  0.93086  0.80745  0.07685  1.0000
  C   C1125     1.0  0.92563  0.81211  0.03899  1.0000
  C   C1126     1.0  0.93676  0.81871  0.10224  1.0000
  C   C1127     1.0  0.92612  0.82844  0.02582  1.0000
  C   C1128     1.0  0.93736  0.83516  0.09015  1.0000
  C   C1129     1.0  0.93202  0.84003  0.05166  1.0000
  C   C1130     1.0  0.93124  0.79017  0.08930  1.0000
  H   H1125     1.0  0.92137  0.80311  0.01838  1.0000
  H   H1126     1.0  0.94135  0.81495  0.13181  1.0000
  H   H1127     1.0  0.92227  0.83198  0.99545  1.0000
  H   H1128     1.0  0.94234  0.84395  0.11022  1.0000
  H   H1129     1.0  0.93274  0.85269  0.04163  1.0000
  H   H1130     1.0  0.92199  0.78331  0.07316  1.0000
  H   H1131     1.0  0.94345  0.78468  0.08192  1.0000
  H   H1132     1.0  0.92871  0.78862  0.12245  1.0000
  H   H1133     1.0  0.81930  0.74569  0.21524  1.0000
  H   H1134     1.0  0.75890  0.81686  0.49101  1.0000
  C   C1131     1.0  0.98058  0.87179  0.35308  1.0000
  Fe  Fe191     1.0  0.75817  0.74312  0.20758  1.0000
  C   C1132     1.0  0.98356  0.90682  0.48109  1.0000
  C   C1133     1.0  0.77051  0.79526  0.44167  1.0000
  C   C1134     1.0  0.78330  0.83314  0.65420  1.0000
  H   H1135     1.0  0.86013  0.90351  0.31879  1.0000
  H   H1136     1.0  0.78223  0.79991  0.30992  1.0000
  C   C1135     1.0  0.78608  0.74279  0.91098  1.0000
  C   C1136     1.0  0.79588  0.85101  0.60248  1.0000
  C   C1137     1.0  0.98303  0.84574  0.30100  1.0000
  N   N94       1.0  0.75464  0.79601  0.45511  1.0000
  S   S382      1.0  0.76637  0.76597  0.65142  1.0000
  C   C1138     1.0  0.97175  0.97161  0.34294  1.0000
  C   C1139     1.0  0.81667  0.82589  0.57662  1.0000
  C   C1140     1.0  0.80744  0.85405  0.57159  1.0000
  Fe  Fe192     1.0  0.98373  0.81625  0.07907  1.0000
  H   H1137     1.0  0.78344  0.78085  0.58388  1.0000
  N   N95       1.0  0.79486  0.83579  0.62023  1.0000
  C   C1141     1.0  0.89163  0.93780  0.39704  1.0000
  H   H1138     1.0  0.97928  0.91466  0.45641  1.0000
  H   H1139     1.0  0.87970  0.92868  0.30254  1.0000
  H   H1140     1.0  0.85769  0.91631  0.41710  1.0000
  C   C1142     1.0  0.74897  0.80872  0.48307  1.0000
  H   H1141     1.0  0.97237  0.88423  0.16684  1.0000
  H   H1142     1.0  0.78168  0.75039  0.88580  1.0000
  H   H1143     1.0  0.80916  0.75443  0.91337  1.0000
  S   S383      1.0  0.75069  0.75374  0.76740  1.0000
  C   C1143     1.0  0.91115  0.75136  0.98912  1.0000
  H   H1144     1.0  0.97895  0.85977  0.12554  1.0000
  H   H1145     1.0  0.77904  0.80420  0.45092  1.0000
  H   H1146     1.0  0.96739  0.96937  0.40758  1.0000
  C   C1144     1.0  0.89163  0.93745  0.35469  1.0000
  N   N96       1.0  0.98918  0.86047  0.28915  1.0000
  C   C1145     1.0  0.74376  0.78518  0.44174  1.0000
  H   H1147     1.0  0.90020  0.74979  0.97225  1.0000
  S   S384      1.0  0.75804  0.74326  0.27591  1.0000
  C   C1146     1.0  0.97411  0.85689  0.36527  1.0000
  C   C1147     1.0  0.92946  0.98706  0.36051  1.0000
  H   H1148     1.0  0.92749  0.98678  0.39314  1.0000
  C   C1148     1.0  0.96910  0.97772  0.38181  1.0000
  C   C1149     1.0  0.97325  0.98241  0.30971  1.0000
  H   H1149     1.0  0.97479  0.97780  0.27920  1.0000
  C   C1150     1.0  0.98799  0.87342  0.31459  1.0000
  C   C1151     1.0  0.74203  0.79225  0.32430  1.0000
  H   H1150     1.0  0.98387  0.83549  0.28071  1.0000
  H   H1151     1.0  0.74290  0.79348  0.66256  1.0000
  C   C1152     1.0  0.92936  0.74281  0.04256  1.0000
  H   H1152     1.0  0.74056  0.82073  0.62782  1.0000
