data_image0
_chemical_formula_structural       FeS2FeS2FeSFeHS2H2CHCH2NC2FeSC3H2CHC6H4C5HC2SH3CSFeCH3C3H2SCHCHS2CH2FeH2NCHC3HC2H5C3H3SCFeSCFeS2FeSFeS3NH5C2H2C3HC3HCH2C6HC4FeHNHCH4C3SCHS2HSH6CFeCHC3NHCSHCHS2HC5H2CHCHSHCHNC2HC3FeSCHCNC2H2CHCHCH5C2HCH5FeS2FeS2Fe2S2FeS2FeHFeHFeHS2CH2SC6H5CHCH3CNC6H5CH3CSC2HC3HCH2CSHNC4SH2C2HCFeH2C3HNHC2SCHC2HCHCSH2CHCH3SNH2CHCHCHS3C2HC3HFe2HCHC2HC2H2CSCH2C2H2CNSCH3C2H2SHCH2CFe2S2FeC3S2FeS2FeHFeHFeS3C3H3C7H4N2C2HCHCH3FeH3CSH2CNH2CHC2HSH3CSHC2HSCH2C2FeHSHCSH2SC4H2C5HNH2CFeH2CS2HC2H3C2H3C3FeHSCH3NSH3CFeS2FeS2FeSFeS3FeHSCH2CNHC7H2CHC6H2CHC2H3C2H2NH5CH2SHCHCHCHCHCH3SCHCHNCHCHC3HCFeHC6HNH3C3NHFeS2FeS2FeSFeS4H4SCHCH2CH2C6H2C8HCH3CHCNCH3C2H2C2HSCH2SH2CFeH4C4HCHNFeHC2
_chemical_formula_sum              "Fe48 S96 H288 C288 N24"
_cell_length_a       31.2476
_cell_length_b       30.4403
_cell_length_c       51.0428
_cell_angle_alpha    88.9781
_cell_angle_beta     88.6146
_cell_angle_gamma    89.5554

_space_group_name_H-M_alt    "P 1"
_space_group_IT_number       1

loop_
  _space_group_symop_operation_xyz
  'x, y, z'

loop_
  _atom_site_type_symbol
  _atom_site_label
  _atom_site_symmetry_multiplicity
  _atom_site_fract_x
  _atom_site_fract_y
  _atom_site_fract_z
  _atom_site_occupancy
  Fe  Fe1       1.0  0.17105  0.15492  0.11548  1.0000
  S   S1        1.0  0.16020  0.08519  0.12936  1.0000
  S   S2        1.0  0.19052  0.18088  0.07487  1.0000
  Fe  Fe2       1.0  0.16159  0.19183  0.17066  1.0000
  S   S3        1.0  0.15049  0.12516  0.18914  1.0000
  S   S4        1.0  0.16849  0.25526  0.19304  1.0000
  Fe  Fe3       1.0  0.20384  0.10094  0.16259  1.0000
  S   S5        1.0  0.25099  0.04635  0.17383  1.0000
  Fe  Fe4       1.0  0.10798  0.11402  0.15494  1.0000
  H   H1        1.0  0.22247  0.27026  0.14515  1.0000
  S   S6        1.0  0.21862  0.16841  0.14671  1.0000
  S   S7        1.0  0.11521  0.18280  0.13844  1.0000
  H   H2        1.0  0.08767  0.09889  0.02326  1.0000
  H   H3        1.0  0.34945  0.12806  0.22919  1.0000
  C   C1        1.0  0.18116  0.18158  0.02154  1.0000
  H   H4        1.0  0.11829  0.12370  0.06492  1.0000
  C   C2        1.0  0.08588  0.33282  0.13058  1.0000
  H   H5        1.0  0.39202  0.03072  0.30084  1.0000
  H   H6        1.0  0.18339  0.34349  0.15734  1.0000
  N   N1        1.0  0.16885  0.29945  0.12681  1.0000
  C   C3        1.0  0.21260  0.28176  0.12536  1.0000
  C   C4        1.0  0.29814  0.05376  0.19211  1.0000
  Fe  Fe5       1.0  0.47458  0.02612  0.25450  1.0000
  S   S8        1.0  0.04182  0.08697  0.16388  1.0000
  C   C5        1.0  0.37287  0.06241  0.22218  1.0000
  C   C6        1.0  0.34354  0.09742  0.21952  1.0000
  C   C7        1.0  0.30653  0.09327  0.20450  1.0000
  H   H7        1.0  0.21535  0.25320  0.11209  1.0000
  H   H8        1.0  0.16506  0.02845  0.19457  1.0000
  C   C8        1.0  0.22548  0.07641  0.04339  1.0000
  H   H9        1.0  0.28433  0.12056  0.20273  1.0000
  C   C9        1.0  0.05867  0.35184  0.21272  1.0000
  C   C10       1.0  0.10034  0.35974  0.22077  1.0000
  C   C11       1.0  0.13338  0.32932  0.21511  1.0000
  C   C12       1.0  0.12514  0.29064  0.20150  1.0000
  C   C13       1.0  0.08337  0.28250  0.19368  1.0000
  C   C14       1.0  0.05036  0.31306  0.19920  1.0000
  H   H10       1.0  0.10721  0.38948  0.23114  1.0000
  H   H11       1.0  0.16560  0.33595  0.22120  1.0000
  H   H12       1.0  0.07661  0.25295  0.18311  1.0000
  H   H13       1.0  0.26028  0.42117  0.31436  1.0000
  C   C15       1.0  0.09601  0.29991  0.11272  1.0000
  C   C16       1.0  0.13802  0.28376  0.11091  1.0000
  C   C17       1.0  0.16516  0.16553  0.04583  1.0000
  C   C18       1.0  0.13099  0.13615  0.04635  1.0000
  C   C19       1.0  0.20457  0.44044  0.33712  1.0000
  H   H14       1.0  0.27767  0.12209  0.04078  1.0000
  C   C20       1.0  0.11776  0.34935  0.14623  1.0000
  C   C21       1.0  0.15927  0.33200  0.14419  1.0000
  S   S9        1.0  0.41795  0.06943  0.24236  1.0000
  H   H15       1.0  0.07141  0.28644  0.10062  1.0000
  H   H16       1.0  0.08126  0.02139  0.12967  1.0000
  H   H17       1.0  0.23505  0.30750  0.11805  1.0000
  C   C22       1.0  0.11372  0.12214  0.02271  1.0000
  S   S10       1.0  0.49033  0.03232  0.29720  1.0000
  Fe  Fe6       1.0  0.07463  0.50535  0.28090  1.0000
  C   C23       1.0  0.32747  0.01865  0.19473  1.0000
  H   H18       1.0  0.14554  0.25789  0.09712  1.0000
  H   H19       1.0  0.22323  0.07703  0.06466  1.0000
  H   H20       1.0  0.10997  0.37412  0.16069  1.0000
  C   C24       1.0  0.25607  0.10184  0.02994  1.0000
  C   C25       1.0  0.09944  0.01862  0.20666  1.0000
  C   C26       1.0  0.36481  0.02301  0.20951  1.0000
  H   H21       1.0  0.05327  0.34502  0.13270  1.0000
  H   H22       1.0  0.20747  0.20449  0.02100  1.0000
  S   S11       1.0  0.14242  0.50512  0.29684  1.0000
  C   C27       1.0  0.24842  0.43882  0.33135  1.0000
  H   H23       1.0  0.18210  0.42486  0.32436  1.0000
  C   C28       1.0  0.02412  0.03611  0.15230  1.0000
  H   H24       1.0  0.09685  0.04950  0.21690  1.0000
  S   S12       1.0  0.02816  0.44896  0.28649  1.0000
  S   S13       1.0  0.07253  0.50460  0.23679  1.0000
  C   C29       1.0  0.19631  0.05226  0.02934  1.0000
  H   H25       1.0  0.49879  0.48585  0.32430  1.0000
  H   H26       1.0  0.17120  0.03398  0.03961  1.0000
  Fe  Fe7       1.0  0.02342  0.45173  0.24255  1.0000
  H   H27       1.0  0.01825  0.30665  0.19288  1.0000
  H   H28       1.0  0.31067  0.46041  0.34247  1.0000
  N   N2        1.0  0.26141  0.48510  0.36793  1.0000
  C   C30       1.0  0.48882  0.45949  0.37751  1.0000
  H   H29       1.0  0.46731  0.43400  0.37161  1.0000
  C   C31       1.0  0.47062  0.47645  0.60110  1.0000
  C   C32       1.0  0.47281  0.50203  0.38204  1.0000
  C   C33       1.0  0.49469  0.51475  0.59869  1.0000
  H   H30       1.0  0.43671  0.47845  0.60616  1.0000
  C   C34       1.0  0.21852  0.48623  0.37402  1.0000
  C   C35       1.0  0.18947  0.46398  0.35869  1.0000
  H   H31       1.0  0.20635  0.50598  0.39010  1.0000
  H   H32       1.0  0.30800  0.48594  0.39754  1.0000
  H   H33       1.0  0.47252  0.40565  0.60031  1.0000
  H   H34       1.0  0.32386  0.49476  0.67277  1.0000
  H   H35       1.0  0.50379  0.24838  0.42760  1.0000
  C   C36       1.0  0.29158  0.50891  0.38387  1.0000
  C   C37       1.0  0.49072  0.43570  0.59799  1.0000
  C   C38       1.0  0.47770  0.47801  0.66506  1.0000
  H   H36       1.0  0.15530  0.46686  0.36264  1.0000
  H   H37       1.0  0.02854  0.51023  0.67384  1.0000
  H   H38       1.0  0.45421  0.45229  0.66773  1.0000
  S   S14       1.0  0.41865  0.51434  0.37555  1.0000
  C   C39       1.0  0.27662  0.46129  0.34717  1.0000
  Fe  Fe8       1.0  0.11285  0.09670  0.87308  1.0000
  S   S15       1.0  0.08695  0.15341  0.89639  1.0000
  C   C40       1.0  0.31286  0.06798  0.81268  1.0000
  Fe  Fe9       1.0  0.20571  0.11364  0.88731  1.0000
  S   S16       1.0  0.18673  0.17135  0.91206  1.0000
  S   S17       1.0  0.27576  0.09275  0.88812  1.0000
  Fe  Fe10      1.0  0.13247  0.12965  0.92736  1.0000
  S   S18       1.0  0.11061  0.11470  0.96941  1.0000
  Fe  Fe11      1.0  0.14328  0.19042  0.87895  1.0000
  S   S19       1.0  0.14711  0.26189  0.86495  1.0000
  S   S20       1.0  0.15440  0.07033  0.90497  1.0000
  S   S21       1.0  0.16620  0.13530  0.85321  1.0000
  N   N3        1.0  0.22863  0.07853  0.98887  1.0000
  H   H39       1.0  0.06230  0.47270  0.86948  1.0000
  H   H40       1.0  0.30827  0.19333  0.87361  1.0000
  H   H41       1.0  0.23467  0.22181  0.86742  1.0000
  H   H42       1.0  0.20411  0.22390  0.82308  1.0000
  H   H43       1.0  0.38533  0.19676  0.83556  1.0000
  C   C41       1.0  0.13050  0.13717  0.99840  1.0000
  C   C42       1.0  0.16401  0.16738  0.99788  1.0000
  H   H44       1.0  0.36813  0.15044  0.85580  1.0000
  H   H45       1.0  0.17699  0.17941  0.97930  1.0000
  C   C43       1.0  0.23662  0.21195  0.82576  1.0000
  C   C44       1.0  0.10909  0.28767  0.84442  1.0000
  C   C45       1.0  0.07251  0.26578  0.83659  1.0000
  H   H46       1.0  0.07357  0.32240  0.89188  1.0000
  C   C46       1.0  0.04679  0.33276  0.81458  1.0000
  C   C47       1.0  0.08374  0.35448  0.82203  1.0000
  C   C48       1.0  0.11469  0.33201  0.83693  1.0000
  H   H47       1.0  0.06775  0.23169  0.84224  1.0000
  C   C49       1.0  0.26404  0.48061  0.69319  1.0000
  H   H48       1.0  0.08817  0.38868  0.81658  1.0000
  H   H49       1.0  0.14293  0.34918  0.84289  1.0000
  C   C50       1.0  0.30492  0.07539  0.85990  1.0000
  C   C51       1.0  0.28755  0.07844  0.83494  1.0000
  C   C52       1.0  0.03822  0.32690  0.89132  1.0000
  C   C53       1.0  0.35566  0.05414  0.81510  1.0000
  C   C54       1.0  0.37274  0.04999  0.84010  1.0000
  C   C55       1.0  0.34743  0.06062  0.86239  1.0000
  H   H50       1.0  0.25488  0.08967  0.83274  1.0000
  C   C56       1.0  0.29549  0.19491  0.85404  1.0000
  C   C57       1.0  0.22836  0.08160  0.96018  1.0000
  C   C58       1.0  0.04151  0.44445  0.86833  1.0000
  C   C59       1.0  0.25379  0.21075  0.85073  1.0000
  Fe  Fe12      1.0  0.45550  0.01998  0.78114  1.0000
  H   H51       1.0  0.02575  0.29828  0.88070  1.0000
  N   N4        1.0  0.31960  0.18105  0.83297  1.0000
  H   H52       1.0  0.37515  0.14412  0.82127  1.0000
  C   C60       1.0  0.36426  0.16756  0.83657  1.0000
  H   H53       1.0  0.32205  0.17078  0.79171  1.0000
  H   H54       1.0  0.36114  0.05809  0.88163  1.0000
  H   H55       1.0  0.02486  0.32625  0.91166  1.0000
  H   H56       1.0  0.24791  0.19757  0.78500  1.0000
  C   C61       1.0  0.30267  0.50271  0.68922  1.0000
  C   C62       1.0  0.30304  0.18212  0.80838  1.0000
  C   C63       1.0  0.26121  0.19725  0.80443  1.0000
  S   S22       1.0  0.09376  0.51040  0.71401  1.0000
  C   C64       1.0  0.04148  0.28832  0.82184  1.0000
  H   H57       1.0  0.08262  0.40146  0.89033  1.0000
  S   S23       1.0  0.07211  0.05083  0.84991  1.0000
  S   S24       1.0  0.38681  0.04543  0.78616  1.0000
  H   H58       1.0  0.25973  0.09243  0.95166  1.0000
  S   S25       1.0  0.04947  0.48641  0.78868  1.0000
  H   H59       1.0  0.29934  0.07120  0.79342  1.0000
  H   H60       1.0  0.20332  0.10545  0.95410  1.0000
  H   H61       1.0  0.22126  0.04925  0.95159  1.0000
  H   H62       1.0  0.03957  0.05724  0.90343  1.0000
  H   H63       1.0  0.40566  0.03947  0.84224  1.0000
  H   H64       1.0  0.20677  0.47495  0.71750  1.0000
  C   C65       1.0  0.05276  0.40414  0.88001  1.0000
  Fe  Fe13      1.0  0.04136  0.50232  0.74567  1.0000
  C   C66       1.0  0.02695  0.02800  0.86633  1.0000
  H   H65       1.0  0.28019  0.12348  0.99219  1.0000
  C   C67       1.0  0.23731  0.49132  0.71446  1.0000
  C   C68       1.0  0.25714  0.10262  0.00250  1.0000
  C   C69       1.0  0.01919  0.03532  0.89298  1.0000
  N   N5        1.0  0.02678  0.36839  0.87810  1.0000
  H   H66       1.0  0.17383  0.03719  0.99110  1.0000
  C   C70       1.0  0.19809  0.05404  0.00191  1.0000
  S   S26       1.0  0.51763  0.05720  0.78164  1.0000
  H   H67       1.0  0.25471  0.45547  0.67970  1.0000
  C   C71       1.0  0.14278  0.56531  0.33720  1.0000
  H   H68       1.0  0.35754  0.85503  0.26285  1.0000
  S   S27       1.0  0.47261  0.92055  0.33220  1.0000
  S   S28       1.0  0.47969  0.95227  0.25508  1.0000
  H   H69       1.0  0.45286  0.77590  0.29217  1.0000
  C   C72       1.0  0.37000  0.96411  0.27359  1.0000
  C   C73       1.0  0.43175  0.77546  0.33271  1.0000
  C   C74       1.0  0.44945  0.79502  0.30978  1.0000
  C   C75       1.0  0.46283  0.83915  0.30941  1.0000
  C   C76       1.0  0.45853  0.86422  0.33203  1.0000
  H   H70       1.0  0.36038  0.92695  0.23863  1.0000
  H   H71       1.0  0.43864  0.62845  0.32606  1.0000
  C   C77       1.0  0.21116  0.54845  0.31651  1.0000
  H   H72       1.0  0.47626  0.85381  0.29160  1.0000
  C   C78       1.0  0.50258  0.63996  0.33893  1.0000
  H   H73       1.0  0.18617  0.98414  0.14950  1.0000
  S   S29       1.0  0.02329  0.55704  0.28456  1.0000
  H   H74       1.0  0.37690  0.92220  0.33467  1.0000
  C   C79       1.0  0.16636  0.54378  0.31756  1.0000
  H   H75       1.0  0.37167  0.99516  0.26294  1.0000
  N   N6        1.0  0.14031  0.96919  0.17952  1.0000
  C   C80       1.0  0.06399  0.99127  0.20532  1.0000
  C   C81       1.0  0.05013  0.00978  0.13624  1.0000
  H   H76       1.0  0.26680  0.57620  0.33431  1.0000
  C   C82       1.0  0.18032  0.95900  0.16523  1.0000
  C   C83       1.0  0.37235  0.92347  0.31365  1.0000
  C   C84       1.0  0.36575  0.88427  0.30048  1.0000
  Fe  Fe14      1.0  0.49945  0.95887  0.29685  1.0000
  S   S30       1.0  0.41516  0.71990  0.33192  1.0000
  C   C85       1.0  0.10565  0.94216  0.17807  1.0000
  H   H77       1.0  0.49612  0.67403  0.34382  1.0000
  C   C86       1.0  0.47847  0.57030  0.32324  1.0000
  N   N7        1.0  0.37521  0.96257  0.30012  1.0000
  C   C87       1.0  0.23232  0.57346  0.33519  1.0000
  C   C88       1.0  0.36343  0.92556  0.25976  1.0000
  H   H78       1.0  0.10839  0.56162  0.33846  1.0000
  H   H79       1.0  0.10713  0.91290  0.16626  1.0000
  C   C89       1.0  0.06711  0.95258  0.19114  1.0000
  H   H80       1.0  0.36516  0.85313  0.31123  1.0000
  C   C90       1.0  0.36167  0.88536  0.27333  1.0000
  H   H81       1.0  0.05649  0.94740  0.11697  1.0000
  C   C91       1.0  0.47015  0.61430  0.32904  1.0000
  H   H82       1.0  0.17977  0.92612  0.15618  1.0000
  H   H83       1.0  0.20774  0.95970  0.17872  1.0000
  H   H84       1.0  0.32146  0.98804  0.18508  1.0000
  H   H85       1.0  0.45269  0.55034  0.31619  1.0000
  H   H86       1.0  0.22971  0.53179  0.30147  1.0000
  C   C92       1.0  0.03606  0.96792  0.12911  1.0000
  C   C93       1.0  0.13766  0.00688  0.19367  1.0000
  H   H87       1.0  0.38737  0.99603  0.21103  1.0000
  C   C94       1.0  0.38299  0.00300  0.31438  1.0000
  H   H88       1.0  0.03923  0.93190  0.18918  1.0000
  H   H89       1.0  0.03367  0.00099  0.21437  1.0000
  H   H90       1.0  0.35383  0.01262  0.32578  1.0000
  H   H91       1.0  0.41000  0.99792  0.32797  1.0000
  H   H92       1.0  0.02389  0.70292  0.24282  1.0000
  Fe  Fe15      1.0  0.29800  0.64829  0.67203  1.0000
  S   S31       1.0  0.30727  0.70173  0.64152  1.0000
  S   S32       1.0  0.40743  0.76921  0.65338  1.0000
  Fe  Fe16      1.0  0.38039  0.60116  0.65488  1.0000
  S   S33       1.0  0.39661  0.65094  0.62303  1.0000
  S   S34       1.0  0.23427  0.62057  0.38139  1.0000
  Fe  Fe17      1.0  0.37637  0.70147  0.65309  1.0000
  Fe  Fe18      1.0  0.32686  0.64814  0.61375  1.0000
  S   S35       1.0  0.29803  0.64390  0.57337  1.0000
  S   S36       1.0  0.31167  0.59485  0.64349  1.0000
  Fe  Fe19      1.0  0.37543  0.65461  0.42416  1.0000
  S   S37       1.0  0.42886  0.64277  0.39445  1.0000
  S   S38       1.0  0.39687  0.67517  0.46451  1.0000
  Fe  Fe20      1.0  0.30624  0.63010  0.38548  1.0000
  H   H93       1.0  0.38293  0.75929  0.49047  1.0000
  Fe  Fe21      1.0  0.39254  0.58234  0.38454  1.0000
  H   H94       1.0  0.15613  0.52782  0.67333  1.0000
  Fe  Fe22      1.0  0.38694  0.67863  0.36583  1.0000
  H   H95       1.0  0.32804  0.74494  0.49363  1.0000
  S   S39       1.0  0.34210  0.59142  0.41614  1.0000
  S   S40       1.0  0.33572  0.69500  0.39601  1.0000
  C   C95       1.0  0.20889  0.59354  0.35544  1.0000
  H   H96       1.0  0.43725  0.86385  0.37254  1.0000
  H   H97       1.0  0.41389  0.78590  0.37310  1.0000
  S   S41       1.0  0.40882  0.53364  0.66299  1.0000
  C   C96       1.0  0.32761  0.64680  0.54333  1.0000
  C   C97       1.0  0.37122  0.65689  0.54235  1.0000
  C   C98       1.0  0.39250  0.66364  0.51796  1.0000
  C   C99       1.0  0.37063  0.65962  0.49437  1.0000
  C   C100      1.0  0.32742  0.64800  0.49535  1.0000
  C   C101      1.0  0.30598  0.64194  0.51973  1.0000
  H   H98       1.0  0.38822  0.66078  0.56035  1.0000
  H   H99       1.0  0.42591  0.67273  0.51737  1.0000
  H   H100      1.0  0.31015  0.64512  0.47734  1.0000
  H   H101      1.0  0.27224  0.63412  0.52031  1.0000
  H   H102      1.0  0.47951  0.54647  0.60188  1.0000
  C   C102      1.0  0.16401  0.58984  0.35610  1.0000
  H   H103      1.0  0.14559  0.60531  0.37166  1.0000
  C   C103      1.0  0.49477  0.55505  0.65944  1.0000
  H   H104      1.0  0.36616  0.75582  0.60461  1.0000
  H   H105      1.0  0.48468  0.58905  0.65776  1.0000
  H   H106      1.0  0.34313  0.80214  0.49524  1.0000
  C   C104      1.0  0.46420  0.52199  0.66273  1.0000
  N   N8        1.0  0.35636  0.76394  0.52932  1.0000
  C   C105      1.0  0.39506  0.77101  0.54048  1.0000
  C   C106      1.0  0.32096  0.75477  0.54471  1.0000
  C   C107      1.0  0.39915  0.76823  0.56773  1.0000
  C   C108      1.0  0.32392  0.75186  0.57199  1.0000
  C   C109      1.0  0.36330  0.75857  0.58350  1.0000
  C   C110      1.0  0.35237  0.76805  0.50081  1.0000
  H   H107      1.0  0.42315  0.77810  0.52828  1.0000
  H   H108      1.0  0.29049  0.74808  0.53591  1.0000
  H   H109      1.0  0.42991  0.77308  0.57664  1.0000
  H   H110      1.0  0.29613  0.74288  0.58403  1.0000
  H   H111      1.0  0.48890  0.56735  0.39361  1.0000
  C   C111      1.0  0.44228  0.83906  0.67873  1.0000
  H   H112      1.0  0.44009  0.85618  0.66005  1.0000
  H   H113      1.0  0.27507  0.53500  0.39539  1.0000
  H   H114      1.0  0.21546  0.58143  0.66850  1.0000
  C   C112      1.0  0.42747  0.80053  0.35533  1.0000
  S   S42       1.0  0.35439  0.61664  0.35348  1.0000
  C   C113      1.0  0.44077  0.84470  0.35495  1.0000
  C   C114      1.0  0.50083  0.53463  0.38982  1.0000
  H   H115      1.0  0.31618  0.52559  0.37121  1.0000
  C   C115      1.0  0.45861  0.86113  0.70039  1.0000
  C   C116      1.0  0.05450  0.92538  0.89934  1.0000
  C   C117      1.0  0.17420  0.61216  0.72770  1.0000
  H   H116      1.0  0.45113  0.77798  0.74550  1.0000
  C   C118      1.0  0.44860  0.79524  0.72688  1.0000
  H   H117      1.0  0.35315  0.82605  0.71580  1.0000
  H   H118      1.0  0.38663  0.94786  0.79095  1.0000
  C   C119      1.0  0.24938  0.52464  0.73125  1.0000
  S   S43       1.0  0.48037  0.86559  0.75291  1.0000
  H   H119      1.0  0.12006  0.58169  0.74793  1.0000
  N   N9        1.0  0.28684  0.54688  0.72683  1.0000
  C   C120      1.0  0.46187  0.83925  0.72460  1.0000
  C   C121      1.0  0.08528  0.94489  0.88275  1.0000
  C   C122      1.0  0.31375  0.53578  0.70643  1.0000
  C   C123      1.0  0.43189  0.77334  0.70531  1.0000
  S   S44       1.0  0.36594  0.65158  0.68570  1.0000
  H   H120      1.0  0.17922  0.63568  0.74295  1.0000
  H   H121      1.0  0.10956  0.95097  0.84307  1.0000
  C   C124      1.0  0.14062  0.58164  0.73057  1.0000
  C   C125      1.0  0.13411  0.55089  0.71106  1.0000
  H   H122      1.0  0.46868  0.89497  0.69835  1.0000
  C   C126      1.0  0.05832  0.90365  0.84682  1.0000
  Fe  Fe23      1.0  0.49787  0.93740  0.75876  1.0000
  H   H123      1.0  0.37042  0.83727  0.76225  1.0000
  H   H124      1.0  0.37211  0.97583  0.74932  1.0000
  C   C127      1.0  0.35331  0.89523  0.70612  1.0000
  C   C128      1.0  0.36602  0.86565  0.74942  1.0000
  C   C129      1.0  0.36772  0.94288  0.74212  1.0000
  H   H125      1.0  0.27036  0.59875  0.75283  1.0000
  N   N10       1.0  0.37154  0.90714  0.75857  1.0000
  H   H126      1.0  0.05917  0.89653  0.82608  1.0000
  C   C130      1.0  0.19469  0.58175  0.68576  1.0000
  C   C131      1.0  0.01963  0.57766  0.68441  1.0000
  S   S45       1.0  0.24509  0.64916  0.70357  1.0000
  C   C132      1.0  0.20160  0.61213  0.70541  1.0000
  H   H127      1.0  0.41179  0.89463  0.79070  1.0000
  C   C133      1.0  0.08720  0.93410  0.85631  1.0000
  C   C134      1.0  0.35895  0.93746  0.71562  1.0000
  H   H128      1.0  0.42179  0.73953  0.70739  1.0000
  C   C135      1.0  0.35638  0.85908  0.72316  1.0000
  H   H129      1.0  0.31807  0.56725  0.76094  1.0000
  C   C136      1.0  0.16100  0.55140  0.68857  1.0000
  S   S46       1.0  0.48369  0.95952  0.80006  1.0000
  H   H130      1.0  0.10608  0.97014  0.89000  1.0000
  H   H131      1.0  0.22787  0.53355  0.74732  1.0000
  C   C137      1.0  0.38173  0.91276  0.78618  1.0000
  H   H132      1.0  0.35531  0.90004  0.79902  1.0000
  C   C138      1.0  0.29913  0.58149  0.74472  1.0000
  H   H133      1.0  0.31831  0.60716  0.73415  1.0000
  H   H134      1.0  0.34381  0.55286  0.70313  1.0000
  H   H135      1.0  0.05130  0.93528  0.91961  1.0000
  S   S47       1.0  0.46712  0.99630  0.73993  1.0000
  N   N11       1.0  0.02854  0.88428  0.86330  1.0000
  H   H136      1.0  0.35716  0.96583  0.70252  1.0000
  H   H137      1.0  0.05372  0.58410  0.68508  1.0000
  C   C139      1.0  0.02606  0.89513  0.88920  1.0000
  H   H138      1.0  0.34749  0.89031  0.68551  1.0000
  C   C140      1.0  0.42869  0.79514  0.68108  1.0000
  H   H139      1.0  0.70516  0.05364  0.29048  1.0000
  C   C141      1.0  0.63702  0.19489  0.33610  1.0000
  H   H140      1.0  0.94050  0.39869  0.25941  1.0000
  S   S48       1.0  0.54333  0.03652  0.24092  1.0000
  S   S49       1.0  0.61244  0.08055  0.29896  1.0000
  S   S50       1.0  0.78966  0.35134  0.34308  1.0000
  C   C142      1.0  0.82463  0.39554  0.33550  1.0000
  C   C143      1.0  0.84104  0.47343  0.33230  1.0000
  H   H141      1.0  0.75963  0.40659  0.28472  1.0000
  C   C144      1.0  0.88162  0.46416  0.32110  1.0000
  C   C145      1.0  0.56009  0.18833  0.33459  1.0000
  C   C146      1.0  0.85632  0.43596  0.25810  1.0000
  H   H142      1.0  0.87519  0.46512  0.25379  1.0000
  Fe  Fe24      1.0  0.55895  0.03753  0.28379  1.0000
  Fe  Fe25      1.0  0.97636  0.50090  0.28623  1.0000
  H   H143      1.0  0.53390  0.50547  0.29795  1.0000
  C   C147      1.0  0.60515  0.13113  0.31544  1.0000
  H   H144      1.0  0.96343  0.04101  0.17307  1.0000
  C   C148      1.0  0.81489  0.44078  0.26874  1.0000
  C   C149      1.0  0.71048  0.01978  0.28471  1.0000
  H   H145      1.0  0.86458  0.32581  0.25845  1.0000
  C   C150      1.0  0.59627  0.21196  0.34196  1.0000
  C   C151      1.0  0.64137  0.15465  0.32294  1.0000
  H   H146      1.0  0.92530  0.41278  0.30940  1.0000
  H   H147      1.0  0.80191  0.47324  0.27260  1.0000
  C   C152      1.0  0.80905  0.36186  0.27159  1.0000
  S   S51       1.0  0.91554  0.50819  0.31145  1.0000
  C   C153      1.0  0.89395  0.42035  0.31767  1.0000
  H   H148      1.0  0.55443  0.49273  0.33004  1.0000
  H   H149      1.0  0.79138  0.33274  0.27778  1.0000
  C   C154      1.0  0.85054  0.35823  0.26085  1.0000
  C   C155      1.0  0.56445  0.14820  0.32136  1.0000
  H   H150      1.0  0.53631  0.13054  0.31569  1.0000
  H   H151      1.0  0.92500  0.35750  0.23671  1.0000
  C   C156      1.0  0.79116  0.40343  0.27550  1.0000
  N   N12       1.0  0.87344  0.39505  0.25409  1.0000
  S   S52       1.0  0.01642  0.39005  0.21832  1.0000
  C   C157      1.0  0.91750  0.39103  0.24389  1.0000
  H   H152      1.0  0.73621  0.01639  0.12067  1.0000
  H   H153      1.0  0.92321  0.41404  0.22701  1.0000
  H   H154      1.0  0.66513  0.21268  0.34162  1.0000
  C   C158      1.0  0.98371  0.02073  0.16067  1.0000
  C   C159      1.0  0.86558  0.38625  0.32486  1.0000
  H   H155      1.0  0.87527  0.35246  0.32190  1.0000
  H   H156      1.0  0.67299  0.14177  0.31843  1.0000
  S   S53       1.0  0.96823  0.50020  0.24266  1.0000
  H   H157      1.0  0.83136  0.50724  0.33520  1.0000
  C   C160      1.0  0.81258  0.43930  0.33943  1.0000
  H   H158      1.0  0.52843  0.20127  0.33896  1.0000
  H   H159      1.0  0.77022  0.03261  0.26409  1.0000
  C   C161      1.0  0.52684  0.50694  0.31932  1.0000
  Fe  Fe26      1.0  0.71028  0.35960  0.65198  1.0000
  Fe  Fe27      1.0  0.64131  0.34737  0.61090  1.0000
  S   S54       1.0  0.58809  0.36109  0.64038  1.0000
  S   S55       1.0  0.61497  0.34310  0.56970  1.0000
  Fe  Fe28      1.0  0.62920  0.41645  0.65272  1.0000
  C   C162      1.0  0.60429  0.46981  0.58438  1.0000
  C   C163      1.0  0.55202  0.49987  0.66000  1.0000
  C   C164      1.0  0.85358  0.37787  0.39617  1.0000
  S   S56       1.0  0.68084  0.40507  0.62213  1.0000
  S   S57       1.0  0.67509  0.29978  0.63820  1.0000
  Fe  Fe29      1.0  0.68786  0.33924  0.42060  1.0000
  S   S58       1.0  0.71308  0.39951  0.39970  1.0000
  S   S59       1.0  0.71414  0.32022  0.46042  1.0000
  Fe  Fe30      1.0  0.63892  0.30996  0.37242  1.0000
  H   H160      1.0  0.80053  0.45295  0.44785  1.0000
  Fe  Fe31      1.0  0.72548  0.35628  0.36525  1.0000
  H   H161      1.0  0.86797  0.35697  0.38132  1.0000
  Fe  Fe32      1.0  0.64619  0.40693  0.38449  1.0000
  S   S60       1.0  0.61715  0.47540  0.38471  1.0000
  S   S61       1.0  0.70457  0.29469  0.38708  1.0000
  S   S62       1.0  0.62015  0.34963  0.40801  1.0000
  C   C165      1.0  0.56111  0.48338  0.38621  1.0000
  C   C166      1.0  0.81590  0.43210  0.43332  1.0000
  C   C167      1.0  0.53536  0.25087  0.41725  1.0000
  H   H162      1.0  0.53142  0.43292  0.66509  1.0000
  H   H163      1.0  0.80829  0.30402  0.39327  1.0000
  H   H164      1.0  0.61559  0.43575  0.58059  1.0000
  C   C168      1.0  0.81470  0.31401  0.41366  1.0000
  C   C169      1.0  0.64483  0.34093  0.53980  1.0000
  C   C170      1.0  0.68715  0.32569  0.53866  1.0000
  C   C171      1.0  0.70832  0.32054  0.51419  1.0000
  C   C172      1.0  0.68771  0.33132  0.49073  1.0000
  C   C173      1.0  0.64592  0.34801  0.49191  1.0000
  C   C174      1.0  0.62444  0.35228  0.51633  1.0000
  H   H165      1.0  0.70309  0.31659  0.55656  1.0000
  H   H166      1.0  0.74063  0.30752  0.51349  1.0000
  H   H167      1.0  0.62973  0.35652  0.47400  1.0000
  H   H168      1.0  0.59171  0.36412  0.51704  1.0000
  N   N13       1.0  0.82487  0.36091  0.41422  1.0000
  N   N14       1.0  0.57082  0.24599  0.43539  1.0000
  C   C175      1.0  0.84441  0.44987  0.41458  1.0000
  C   C176      1.0  0.80677  0.38718  0.43301  1.0000
  H   H169      1.0  0.85139  0.48474  0.41435  1.0000
  C   C177      1.0  0.59922  0.25501  0.47830  1.0000
  H   H170      1.0  0.61448  0.22221  0.40600  1.0000
  C   C178      1.0  0.63897  0.23962  0.46930  1.0000
  H   H171      1.0  0.88571  0.43604  0.38120  1.0000
  H   H172      1.0  0.55012  0.40209  0.59005  1.0000
  H   H173      1.0  0.54509  0.41764  0.37528  1.0000
  Fe  Fe33      1.0  0.62496  0.31824  0.66847  1.0000
  H   H174      1.0  0.78547  0.30621  0.42563  1.0000
  H   H175      1.0  0.66582  0.23804  0.48242  1.0000
  H   H176      1.0  0.78449  0.37375  0.44762  1.0000
  C   C179      1.0  0.56542  0.25856  0.46088  1.0000
  S   S63       1.0  0.58865  0.26207  0.35886  1.0000
  H   H177      1.0  0.59505  0.26520  0.49850  1.0000
  H   H178      1.0  0.62200  0.48215  0.60135  1.0000
  C   C180      1.0  0.86373  0.42256  0.39602  1.0000
  N   N15       1.0  0.55812  0.47170  0.59009  1.0000
  H   H179      1.0  0.84176  0.29425  0.42137  1.0000
  H   H180      1.0  0.53752  0.28324  0.40685  1.0000
  C   C181      1.0  0.64451  0.22792  0.44314  1.0000
  H   H181      1.0  0.60318  0.12270  0.66826  1.0000
  C   C182      1.0  0.60985  0.23120  0.42636  1.0000
  C   C183      1.0  0.53475  0.43391  0.59236  1.0000
  H   H182      1.0  0.53669  0.22480  0.40221  1.0000
  S   S64       1.0  0.60708  0.48707  0.65710  1.0000
  H   H183      1.0  0.96722  0.46910  0.65494  1.0000
  H   H184      1.0  0.67566  0.21716  0.43581  1.0000
  H   H185      1.0  0.61243  0.49012  0.56672  1.0000
  C   C184      1.0  0.52142  0.46692  0.66348  1.0000
  S   S65       1.0  0.78087  0.35315  0.66174  1.0000
  H   H186      1.0  0.53496  0.27168  0.46787  1.0000
  C   C185      1.0  0.94809  0.48288  0.67151  1.0000
  C   C186      1.0  0.53284  0.45011  0.37965  1.0000
  H   H187      1.0  0.61592  0.20321  0.66470  1.0000
  S   S66       1.0  0.66059  0.36846  0.34799  1.0000
  C   C187      1.0  0.53875  0.51173  0.59342  1.0000
  H   H188      1.0  0.91382  0.48250  0.66608  1.0000
  H   H189      1.0  0.78124  0.44688  0.34774  1.0000
  C   C188      1.0  0.63889  0.08142  0.75894  1.0000
  C   C189      1.0  0.84914  0.38287  0.68934  1.0000
  Fe  Fe34      1.0  0.94403  0.48763  0.74842  1.0000
  H   H190      1.0  0.64455  0.03056  0.71711  1.0000
  S   S67       1.0  0.94533  0.47117  0.79133  1.0000
  H   H191      1.0  0.54223  0.13916  0.74377  1.0000
  C   C190      1.0  0.98915  0.37175  0.86503  1.0000
  S   S68       1.0  0.56380  0.06735  0.70808  1.0000
  H   H192      1.0  0.78925  0.31308  0.71346  1.0000
  H   H193      1.0  0.60371  0.07788  0.76146  1.0000
  S   S69       1.0  0.88028  0.49452  0.72775  1.0000
  C   C191      1.0  0.85278  0.45390  0.71032  1.0000
  C   C192      1.0  0.87129  0.41308  0.70456  1.0000
  C   C193      1.0  0.60009  0.18941  0.68201  1.0000
  C   C194      1.0  0.68790  0.31689  0.73682  1.0000
  H   H194      1.0  0.90280  0.40492  0.71159  1.0000
  H   H195      1.0  0.99429  0.47904  0.84559  1.0000
  C   C195      1.0  0.72011  0.26539  0.70529  1.0000
  C   C196      1.0  0.76127  0.32425  0.72454  1.0000
  C   C197      1.0  0.57175  0.12519  0.70629  1.0000
  C   C198      1.0  0.55851  0.15281  0.72659  1.0000
  C   C199      1.0  0.56590  0.19842  0.72455  1.0000
  H   H196      1.0  0.65086  0.10031  0.77564  1.0000
  N   N16       1.0  0.72299  0.30326  0.72250  1.0000
  H   H197      1.0  0.79463  0.37909  0.74066  1.0000
  H   H198      1.0  0.73038  0.40636  0.76523  1.0000
  C   C200      1.0  0.81160  0.46365  0.70122  1.0000
  Fe  Fe35      1.0  0.00421  0.43078  0.78216  1.0000
  H   H199      1.0  0.73321  0.23560  0.71512  1.0000
  H   H200      1.0  0.75740  0.44107  0.67963  1.0000
  C   C201      1.0  0.78912  0.43311  0.68644  1.0000
  S   S70       1.0  0.66190  0.37567  0.68346  1.0000
  S   S71       1.0  0.59480  0.27484  0.70091  1.0000
  H   H201      1.0  0.65768  0.29983  0.73562  1.0000
  C   C202      1.0  0.72848  0.37683  0.75373  1.0000
  C   C203      1.0  0.76454  0.36155  0.73997  1.0000
  H   H202      1.0  0.66158  0.36578  0.76288  1.0000
  H   H203      1.0  0.79694  0.49510  0.70556  1.0000
  H   H204      1.0  0.01300  0.27124  0.81614  1.0000
  C   C204      1.0  0.68996  0.35415  0.75240  1.0000
  C   C205      1.0  0.67545  0.01840  0.77943  1.0000
  H   H205      1.0  0.96897  0.34326  0.86293  1.0000
  H   H206      1.0  0.68644  0.25904  0.69992  1.0000
  H   H207      1.0  0.64532  0.10088  0.74064  1.0000
  C   C206      1.0  0.59278  0.14374  0.68409  1.0000
  C   C207      1.0  0.58646  0.21707  0.70222  1.0000
  C   C208      1.0  0.97687  0.41158  0.85324  1.0000
  Fe  Fe36      1.0  0.53124  0.02933  0.74194  1.0000
  H   H208      1.0  0.73827  0.27172  0.68658  1.0000
  S   S72       1.0  0.00506  0.36018  0.79782  1.0000
  C   C209      1.0  0.00327  0.44808  0.85490  1.0000
  H   H209      1.0  0.94773  0.41367  0.84214  1.0000
  H   H210      1.0  0.55519  0.21948  0.74028  1.0000
  H   H211      1.0  0.97985  0.01920  0.92701  1.0000
  N   N17       1.0  0.65887  0.03779  0.75746  1.0000
  S   S73       1.0  0.99969  0.44355  0.73877  1.0000
  H   H212      1.0  0.67417  0.03515  0.79804  1.0000
  H   H213      1.0  0.95166  0.46119  0.68905  1.0000
  H   H214      1.0  0.86392  0.35160  0.68472  1.0000
  C   C210      1.0  0.80798  0.39272  0.68019  1.0000
  Fe  Fe37      1.0  0.83371  0.85152  0.11050  1.0000
  S   S74       1.0  0.85587  0.91375  0.12862  1.0000
  S   S75       1.0  0.80144  0.86562  0.07181  1.0000
  Fe  Fe38      1.0  0.86101  0.79592  0.15823  1.0000
  S   S76       1.0  0.88519  0.85463  0.17945  1.0000
  S   S77       1.0  0.85767  0.72823  0.17811  1.0000
  Fe  Fe39      1.0  0.82474  0.88830  0.16599  1.0000
  S   S78       1.0  0.78567  0.93644  0.19083  1.0000
  Fe  Fe40      1.0  0.91362  0.87484  0.14012  1.0000
  S   S79       1.0  0.98101  0.89819  0.13052  1.0000
  S   S80       1.0  0.79847  0.82867  0.14722  1.0000
  S   S81       1.0  0.89363  0.81359  0.11961  1.0000
  Fe  Fe41      1.0  0.54998  0.96305  0.24499  1.0000
  H   H215      1.0  0.58190  0.56320  0.33950  1.0000
  S   S82       1.0  0.58640  0.91781  0.21701  1.0000
  C   C211      1.0  0.66355  0.88041  0.12432  1.0000
  H   H216      1.0  0.65234  0.99683  0.30352  1.0000
  H   H217      1.0  0.76217  0.92149  0.11044  1.0000
  C   C212      1.0  0.99597  0.95224  0.13794  1.0000
  N   N18       1.0  0.72198  0.93346  0.26886  1.0000
  H   H218      1.0  0.85198  0.69645  0.25172  1.0000
  C   C213      1.0  0.73961  0.99262  0.13724  1.0000
  C   C214      1.0  0.73004  0.93088  0.19717  1.0000
  C   C215      1.0  0.70869  0.89159  0.19278  1.0000
  C   C216      1.0  0.66473  0.88794  0.19919  1.0000
  C   C217      1.0  0.64184  0.92335  0.21015  1.0000
  C   C218      1.0  0.66320  0.96263  0.21451  1.0000
  C   C219      1.0  0.70698  0.96647  0.20777  1.0000
  H   H219      1.0  0.72602  0.86390  0.18467  1.0000
  H   H220      1.0  0.64836  0.85747  0.19568  1.0000
  C   C220      1.0  0.93035  0.63356  0.27877  1.0000
  H   H221      1.0  0.72311  0.99717  0.21099  1.0000
  C   C221      1.0  0.90286  0.69538  0.18587  1.0000
  C   C222      1.0  0.89658  0.65378  0.19777  1.0000
  C   C223      1.0  0.93157  0.62846  0.20656  1.0000
  C   C224      1.0  0.97325  0.64434  0.20318  1.0000
  C   C225      1.0  0.97960  0.68512  0.19034  1.0000
  C   C226      1.0  0.94461  0.71073  0.18192  1.0000
  H   H222      1.0  0.86438  0.64155  0.20073  1.0000
  H   H223      1.0  0.92627  0.59705  0.21628  1.0000
  C   C227      1.0  0.85234  0.78362  0.01669  1.0000
  H   H224      1.0  0.94991  0.74250  0.17261  1.0000
  C   C228      1.0  0.84162  0.80264  0.04097  1.0000
  C   C229      1.0  0.81627  0.84066  0.04184  1.0000
  H   H225      1.0  0.88865  0.94282  0.06188  1.0000
  H   H226      1.0  0.85250  0.78755  0.05900  1.0000
  H   H227      1.0  0.64441  0.85141  0.12133  1.0000
  C   C230      1.0  0.80192  0.85953  0.01827  1.0000
  C   C231      1.0  0.64666  0.91551  0.13856  1.0000
  H   H228      1.0  0.65895  0.97905  0.15411  1.0000
  H   H229      1.0  0.71883  0.85582  0.10275  1.0000
  N   N19       1.0  0.71337  0.95379  0.13301  1.0000
  H   H230      1.0  0.77394  0.98326  0.13903  1.0000
  H   H231      1.0  0.73024  0.00879  0.15590  1.0000
  H   H232      1.0  0.61448  0.91385  0.14707  1.0000
  H   H233      1.0  0.93069  0.87802  0.07685  1.0000
  H   H234      1.0  0.87164  0.75396  0.01617  1.0000
  C   C232      1.0  0.75236  0.96425  0.26239  1.0000
  H   H235      1.0  0.93872  0.96714  0.16044  1.0000
  H   H236      1.0  0.73651  0.86675  0.27768  1.0000
  S   S83       1.0  0.56956  0.96426  0.28693  1.0000
  H   H237      1.0  0.99739  0.64872  0.27608  1.0000
  C   C233      1.0  0.70528  0.88272  0.11405  1.0000
  H   H238      1.0  0.91474  0.74132  0.23906  1.0000
  C   C234      1.0  0.72762  0.88781  0.26067  1.0000
  H   H239      1.0  0.78032  0.95549  0.25048  1.0000
  C   C235      1.0  0.88361  0.68628  0.25790  1.0000
  H   H240      1.0  0.66234  0.92039  0.28866  1.0000
  C   C236      1.0  0.92391  0.88260  0.05619  1.0000
  H   H241      1.0  0.86199  0.62649  0.27717  1.0000
  C   C237      1.0  0.88926  0.64695  0.27192  1.0000
  H   H242      1.0  0.93510  0.60275  0.28943  1.0000
  H   H243      1.0  0.95550  0.82273  0.04446  1.0000
  H   H244      1.0  0.01178  0.69744  0.18739  1.0000
  S   S84       1.0  0.01806  0.61655  0.21650  1.0000
  C   C238      1.0  0.67209  0.95231  0.14259  1.0000
  H   H245      1.0  0.64581  0.99023  0.22275  1.0000
  C   C239      1.0  0.96538  0.65969  0.27126  1.0000
  H   H246      1.0  0.69742  0.87548  0.25243  1.0000
  N   N20       1.0  0.95963  0.69783  0.25717  1.0000
  C   C240      1.0  0.74681  0.00798  0.26994  1.0000
  H   H247      1.0  0.98991  0.74720  0.23295  1.0000
  C   C241      1.0  0.72979  0.91997  0.11851  1.0000
  H   H248      1.0  0.75287  0.88467  0.24504  1.0000
  C   C242      1.0  0.91936  0.71158  0.25073  1.0000
  C   C243      1.0  0.96963  0.97894  0.15353  1.0000
  C   C244      1.0  0.90053  0.91919  0.04775  1.0000
  H   H249      1.0  0.00741  0.74369  0.26653  1.0000
  C   C245      1.0  0.68652  0.94470  0.28356  1.0000
  Fe  Fe42      1.0  0.01791  0.55295  0.24081  1.0000
  H   H250      1.0  0.78193  0.88869  0.01879  1.0000
  C   C246      1.0  0.93812  0.85177  0.03798  1.0000
  C   C247      1.0  0.89198  0.92463  0.02108  1.0000
  C   C248      1.0  0.54302  0.62149  0.34271  1.0000
  C   C249      1.0  0.68048  0.98787  0.29187  1.0000
  C   C250      1.0  0.55051  0.57754  0.33624  1.0000
  C   C251      1.0  0.99699  0.72446  0.24960  1.0000
  H   H251      1.0  0.87366  0.95308  0.01468  1.0000
  N   N21       1.0  0.51827  0.55249  0.32685  1.0000
  H   H252      1.0  0.55756  0.54154  0.59254  1.0000
  H   H253      1.0  0.56219  0.56963  0.65571  1.0000
  H   H254      1.0  0.56642  0.55114  0.39712  1.0000
  C   C252      1.0  0.53860  0.54398  0.65824  1.0000
  C   C253      1.0  0.54480  0.52536  0.39179  1.0000
  C   C254      1.0  0.00516  0.53591  0.67798  1.0000
  N   N22       1.0  0.96229  0.52730  0.67750  1.0000
  H   H255      1.0  0.56825  0.64100  0.35078  1.0000
  Fe  Fe43      1.0  0.80295  0.85442  0.87660  1.0000
  S   S85       1.0  0.82785  0.78616  0.88618  1.0000
  S   S86       1.0  0.74014  0.85345  0.85435  1.0000
  Fe  Fe44      1.0  0.88455  0.89654  0.89628  1.0000
  S   S87       1.0  0.91528  0.83169  0.90578  1.0000
  S   S88       1.0  0.91987  0.95506  0.91146  1.0000
  Fe  Fe45      1.0  0.88979  0.80857  0.86772  1.0000
  S   S89       1.0  0.92726  0.77302  0.83541  1.0000
  Fe  Fe46      1.0  0.85103  0.81482  0.92367  1.0000
  S   S90       1.0  0.85430  0.77888  0.96297  1.0000
  S   S91       1.0  0.86442  0.87568  0.85637  1.0000
  S   S92       1.0  0.82094  0.88076  0.91594  1.0000
  S   S93       1.0  0.59889  0.99963  0.82749  1.0000
  H   H256      1.0  0.70618  0.71298  0.86829  1.0000
  H   H257      1.0  0.99223  0.82530  0.86652  1.0000
  H   H258      1.0  0.00098  0.88164  0.90195  1.0000
  H   H259      1.0  0.70543  0.91991  0.75433  1.0000
  S   S94       1.0  0.56360  0.96761  0.75707  1.0000
  C   C255      1.0  0.83856  0.80290  0.99308  1.0000
  H   H260      1.0  0.80194  0.85576  0.97599  1.0000
  C   C256      1.0  0.96659  0.97741  0.86643  1.0000
  H   H261      1.0  0.00088  0.64260  0.69645  1.0000
  H   H262      1.0  0.67278  0.00095  0.85996  1.0000
  C   C257      1.0  0.95944  0.98413  0.89323  1.0000
  H   H263      1.0  0.66588  0.85234  0.82257  1.0000
  H   H264      1.0  0.89647  0.86956  0.96492  1.0000
  C   C258      1.0  0.94093  0.71628  0.83474  1.0000
  C   C259      1.0  0.93520  0.68852  0.85665  1.0000
  C   C260      1.0  0.94648  0.64364  0.85514  1.0000
  C   C261      1.0  0.96275  0.62582  0.83162  1.0000
  C   C262      1.0  0.96767  0.65345  0.80958  1.0000
  C   C263      1.0  0.95724  0.69850  0.81124  1.0000
  H   H265      1.0  0.92268  0.70169  0.87485  1.0000
  H   H266      1.0  0.94274  0.62260  0.87234  1.0000
  C   C264      1.0  0.89795  0.90124  0.97538  1.0000
  C   C265      1.0  0.99716  0.85392  0.85297  1.0000
  C   C266      1.0  0.70149  0.89495  0.84725  1.0000
  C   C267      1.0  0.70327  0.93713  0.85760  1.0000
  C   C268      1.0  0.67130  0.96855  0.85165  1.0000
  C   C269      1.0  0.63746  0.95838  0.83513  1.0000
  C   C270      1.0  0.63598  0.91636  0.82453  1.0000
  C   C271      1.0  0.66771  0.88485  0.83066  1.0000
  H   H267      1.0  0.72894  0.94539  0.87044  1.0000
  C   C272      1.0  0.69325  0.97614  0.77846  1.0000
  H   H268      1.0  0.61021  0.90805  0.81177  1.0000
  H   H269      1.0  0.86648  0.70157  0.80757  1.0000
  H   H270      1.0  0.96175  0.71967  0.79416  1.0000
  C   C273      1.0  0.81324  0.84095  0.99398  1.0000
  H   H271      1.0  0.77720  0.67602  0.87105  1.0000
  C   C274      1.0  0.72379  0.74265  0.86130  1.0000
  N   N23       1.0  0.76240  0.73071  0.84604  1.0000
  C   C275      1.0  0.77550  0.75643  0.82513  1.0000
  H   H272      1.0  0.75717  0.78531  0.81943  1.0000
  H   H273      1.0  0.70145  0.76301  0.84943  1.0000
  H   H274      1.0  0.73276  0.76238  0.87843  1.0000
  C   C276      1.0  0.78660  0.69536  0.85384  1.0000
  C   C277      1.0  0.81310  0.74634  0.81102  1.0000
  H   H275      1.0  0.84374  0.65637  0.84630  1.0000
  H   H276      1.0  0.82393  0.76729  0.79481  1.0000
  C   C278      1.0  0.82424  0.68413  0.84002  1.0000
  C   C279      1.0  0.83723  0.70964  0.81835  1.0000
  H   H277      1.0  0.92288  0.62605  0.69618  1.0000
  S   S95       1.0  0.98494  0.54798  0.75203  1.0000
  C   C280      1.0  0.69285  0.95320  0.75507  1.0000
  H   H278      1.0  0.96598  0.87106  0.85041  1.0000
  H   H279      1.0  0.94635  0.95521  0.85612  1.0000
  S   S96       1.0  0.97796  0.56943  0.83106  1.0000
  H   H280      1.0  0.86672  0.91808  0.97235  1.0000
  H   H281      1.0  0.00763  0.84037  0.83376  1.0000
  C   C281      1.0  0.98541  0.01361  0.90633  1.0000
  Fe  Fe47      1.0  0.54729  0.99388  0.79684  1.0000
  H   H282      1.0  0.70622  0.96086  0.79596  1.0000
  H   H283      1.0  0.98038  0.64029  0.79142  1.0000
  H   H284      1.0  0.92372  0.92166  0.96619  1.0000
  H   H285      1.0  0.89894  0.55205  0.68427  1.0000
  C   C282      1.0  0.94629  0.60120  0.69064  1.0000
  C   C283      1.0  0.00019  0.99948  0.85300  1.0000
  C   C284      1.0  0.93294  0.55921  0.68386  1.0000
  C   C285      1.0  0.98996  0.61043  0.69084  1.0000
  H   H286      1.0  0.67421  0.95526  0.71463  1.0000
  C   C286      1.0  0.67545  0.97300  0.73283  1.0000
  H   H287      1.0  0.00595  0.99392  0.83234  1.0000
  N   N24       1.0  0.90588  0.89414  0.00336  1.0000
  Fe  Fe48      1.0  0.98985  0.52836  0.79457  1.0000
  H   H288      1.0  0.93921  0.83355  0.99748  1.0000
  C   C287      1.0  0.92887  0.85814  0.01146  1.0000
  C   C288      1.0  0.65862  0.01563  0.73437  1.0000
