data_image0
_chemical_formula_structural       C2SHSHFeSFeSHNFeS2HCFeSHSHC7H5C5H4C6H4SC4FeH3CHNC6H8C2H5NHC3SCFeS2HSCH3CFeSHFeS2FeSFeS3FeS2FeS2Fe2S3FeS2FeSNFeSFeS3FeS2FeS2FeSFeHS2C8H4C6H4C6H4C6H4C3H2C6H4C6H4C2H3CSH2C3H3NC6H7NC4H7SCNHCHC2SH6C2HC4H3SC2HC2HCH4CNHCHNHFeCH2C2H2C3HC2H2CHCHNH4FeHC4H6SCSCH3CHC2H3CHC4HCSH2SFeSFeSFeSC2FeS2H2FeSCSCHC6H3C6H3CH2C6H3C6H4C2H2NHFeCH3CH3CNH2CH4NC2HSH2C2SHC2FeCHSHC3H2FeS2FeS2FeSFeS2FeS2FeSHFeSFeS3FeS2FeS2FeSFeS4CFeS2FeSHFeSFeS3C6SH3C6H4C6H4C6H4C6H4C6H4C3H2FeC2HNC6H5CH4CH2C3HNCH2C2NC6H8NC6H8C2H2NCHCH3CH2CH2CH5C2HNH5CNC2H2C2H2SCNC5HSC3HCHC2H3NH3CH2C3H2SH2CHCHSFeS2FeS2Fe2S3FeS2FeSHFeSFeS3HFeS2FeS2FeHFeS3FeS2FeS2FeSFeHS2C6H4C5H3C6H3C6H4C6H4C6H4C6H4C6H4C3H2C5HNH3NC6H8NC6H8C4H2SH2CHSCNH3CHCH3C6HNC2H3SHSNC2HCHCH2CH2CHCHC2H3SCHNHNHC2H4C4H4CH5CHFeNH2FeSH2SHFeSFeSH2FeCSFe2SCH3S2NC6H4C6H3SHCNCSHC5H4C6H3NHCHCH6FeSC2H2C7H3C2SH2C2SCS2CHCH2FeS2FeS2FeSFeS4HFeS2FeS2Fe2S3FeS2FeS2FeSFeHS2FeSHFeS2FeSFeS3C5HNHC6H4C6HCH2C6H4C6H3C6H4C6H4C6H3C2H3SH3C3H2SNC3FeHCH2C2H4NC6H8NC6H8C2SH2CH2CH3CSHCHCH3N2CHCH3SC3HC2H2NCSH2CSH7NCH2C2H3FeCSFeHSH2FeHS2CSH2SFeSFeS2HC6H2CHC3HC2HC2HSCH3CHC2NC6H3C7H4C2H4CH3CH3NCH3NHFeSCHC4H2C2HCFeHC3HCH3CNHSCSFeCSFeHSC2HCS2HSHNSHFeSFeSH2CH2CNC6H3C6H3C2H3CH2C6H4FeC5H3NCH2CH3FeSH2C2H2NC4HC2HC2HSH2S2CH3SCHCFeCH2S2H2FeSHFeS2FeSFeS3FeS2FeSHFeSFeS3FeS2FeS2FeSFeHS2FeS2FeS2FeHFeS3C6H3C6H4C6HCH2C6H4C6H3C6H4C6H4C6H3NC6H6C2H7C2NCHCSHNC6H9CSHNCH2CH2SC2HCH2CHCNC3H7CHC2HCH2NC6H8NSC4HS2H2CH3CHCHNSH2S2CSCFeSFeSH3SHCSHFeSFeSH3C6H3C6H4S2HCNC2FeC5H4C6H4NCFeH6CHCHC4HCHNC2FeCHNC2H4CSH2CHCHNHC3H2CH2FeS2FeS2FeSFeS3HFeS2FeSHFeSFeS3FeS2FeS2FeSFeHS2FeS2FeS2FeSFeHS2C6H4C6H3C8HC6H4C6H4C6H4C6H4C6H3CHSH3CH2CN2C6H3CH9NC5H7C2NCH2CH2C2H3CHC5H8SHSCNH2CH4C2H2CHCHCH2CH2NC2H2FeH2CH2C2H2SCSC2HSCHFeS2FeS2FeSFeCS2FeS2FeSCFeSFeS3FeS2FeS2Fe2S3FeS2FeS2FeHFeS3C3HSHC6H4C4H2C6H4C6H4C6H4C6H4C6H3NC4HCHCHSCHCNCH2CH2NHCH3C2H3CH2SHCHC2HNC2FeH2C2H3FeNHSCH3C3HC2H2CH3CHSNCH4C2H2CNCSH2NCH2C2H3CHCHC2HC3H2CHC3H2CHC2H4CHCHNCHCHC2H2CHCHSHSCH4FeS2CFeCFeSHSHFeHSFeHSH3NS2HC3H2C2HCHC6H4C3FeC2H4C6NH4CHCH2CNCH2CHNC2NCHCHC2H2CHCHCH2C3H4CFeHSHCH4SFeSNFeS2FeSFeS3HSFeS2FeSHFeSFeS3FeS2FeS2FeHFeS3FeS2FeS2Fe2S3C2HCH2SC6H4C4H2C6H4C6H3NC6H4C6H4C6H4NC6H8NC6H10C4SHC2HCSC2SHSHSH3SH11NHCH2C5HC2NHC3H2CH2NHC2HC2H2C4H2CHCHCHC2HCHCFeCH3C3H3CHFeS2FeSHSH2FeCSFeHSNH3S2H3C5H4C6H4C6H4C7H3NH2Fe2C3SCHCHNC4H2C2FeSHCHSH2CHCHCHCH3CH2CN3HCSCH3C4HS
_chemical_formula_sum              "C1152 S384 H1152 Fe192 N96"
_cell_length_a       102.163
_cell_length_b       30.4475
_cell_length_c       67.5786
_cell_angle_alpha    83.1087
_cell_angle_beta     84.0292
_cell_angle_gamma    83.5253

_space_group_name_H-M_alt    "P 1"
_space_group_IT_number       1

loop_
  _space_group_symop_operation_xyz
  'x, y, z'

loop_
  _atom_site_type_symbol
  _atom_site_label
  _atom_site_symmetry_multiplicity
  _atom_site_fract_x
  _atom_site_fract_y
  _atom_site_fract_z
  _atom_site_occupancy
  C   C1        1.0  0.22380  0.08032  0.01616  1.0000
  C   C2        1.0  0.21207  0.07305  0.00825  1.0000
  S   S1        1.0  0.22967  0.08503  0.12413  1.0000
  H   H1        1.0  0.20191  0.15104  0.24425  1.0000
  S   S2        1.0  0.21844  0.18820  0.11315  1.0000
  H   H2        1.0  0.23565  0.05295  0.07269  1.0000
  Fe  Fe1       1.0  0.22527  0.14621  0.14083  1.0000
  S   S3        1.0  0.21549  0.13351  0.17318  1.0000
  Fe  Fe2       1.0  0.22460  0.12876  0.09583  1.0000
  S   S4        1.0  0.21103  0.10796  0.07386  1.0000
  H   H3        1.0  0.21339  0.01995  0.09801  1.0000
  N   N1        1.0  0.23269  0.99064  0.08967  1.0000
  Fe  Fe3       1.0  0.01657  0.15326  0.09869  1.0000
  S   S5        1.0  0.02202  0.09180  0.11948  1.0000
  S   S6        1.0  0.03234  0.17892  0.07474  1.0000
  H   H4        1.0  0.17518  0.10681  0.22848  1.0000
  C   C3        1.0  0.17866  0.14292  0.19945  1.0000
  Fe  Fe4       1.0  0.01411  0.13110  0.14518  1.0000
  S   S7        1.0  0.02317  0.14703  0.17296  1.0000
  H   H5        1.0  0.17446  0.25545  0.18997  1.0000
  S   S8        1.0  0.01011  0.19392  0.12444  1.0000
  H   H6        1.0  0.16772  0.24763  0.22634  1.0000
  C   C4        1.0  0.03658  0.17471  0.00607  1.0000
  C   C5        1.0  0.04392  0.07121  0.22678  1.0000
  C   C6        1.0  0.04116  0.11752  0.22493  1.0000
  C   C7        1.0  0.03477  0.13985  0.20845  1.0000
  C   C8        1.0  0.03093  0.11638  0.19362  1.0000
  C   C9        1.0  0.03366  0.07004  0.19545  1.0000
  C   C10       1.0  0.04014  0.04770  0.21188  1.0000
  H   H7        1.0  0.01767  0.14816  0.01064  1.0000
  H   H8        1.0  0.03277  0.17568  0.20723  1.0000
  H   H9        1.0  0.03075  0.05137  0.18427  1.0000
  H   H10       1.0  0.04217  0.01188  0.21312  1.0000
  H   H11       1.0  0.21633  0.00913  0.07223  1.0000
  C   C11       1.0  0.02535  0.16018  0.01782  1.0000
  C   C12       1.0  0.02393  0.16086  0.03880  1.0000
  C   C13       1.0  0.03371  0.17652  0.04833  1.0000
  C   C14       1.0  0.04494  0.19124  0.03659  1.0000
  C   C15       1.0  0.04641  0.19023  0.01560  1.0000
  H   H12       1.0  0.07557  0.98082  0.24837  1.0000
  H   H13       1.0  0.01523  0.14953  0.04755  1.0000
  H   H14       1.0  0.05258  0.20343  0.04377  1.0000
  H   H15       1.0  0.05512  0.20141  0.00684  1.0000
  C   C16       1.0  0.20180  0.21496  0.22681  1.0000
  C   C17       1.0  0.20479  0.23682  0.20752  1.0000
  C   C18       1.0  0.20964  0.21275  0.19115  1.0000
  C   C19       1.0  0.21142  0.16621  0.19375  1.0000
  C   C20       1.0  0.20878  0.14440  0.21315  1.0000
  C   C21       1.0  0.20411  0.16850  0.22957  1.0000
  H   H16       1.0  0.20307  0.27269  0.20512  1.0000
  H   H17       1.0  0.21155  0.23020  0.17639  1.0000
  H   H18       1.0  0.21009  0.10846  0.21544  1.0000
  H   H19       1.0  0.00005  0.23501  0.17210  1.0000
  S   S9        1.0  0.24615  0.16508  0.13510  1.0000
  C   C22       1.0  0.20016  0.07820  0.02044  1.0000
  C   C23       1.0  0.20006  0.08937  0.04024  1.0000
  C   C24       1.0  0.21179  0.09660  0.04816  1.0000
  C   C25       1.0  0.22367  0.09252  0.03579  1.0000
  Fe  Fe5       1.0  0.23976  0.20301  0.10645  1.0000
  H   H20       1.0  0.19103  0.07260  0.01478  1.0000
  H   H21       1.0  0.19078  0.09234  0.04951  1.0000
  H   H22       1.0  0.23279  0.09845  0.04132  1.0000
  C   C26       1.0  0.21841  0.99591  0.08781  1.0000
  H   H23       1.0  0.04400  0.13620  0.23616  1.0000
  N   N2        1.0  0.05109  0.14147  0.12574  1.0000
  C   C27       1.0  0.05176  0.11681  0.14398  1.0000
  C   C28       1.0  0.05432  0.12173  0.10849  1.0000
  C   C29       1.0  0.05488  0.07069  0.14530  1.0000
  C   C30       1.0  0.05752  0.07569  0.10922  1.0000
  C   C31       1.0  0.05766  0.05001  0.12777  1.0000
  C   C32       1.0  0.04735  0.18955  0.12472  1.0000
  H   H24       1.0  0.04966  0.13266  0.15766  1.0000
  H   H25       1.0  0.05420  0.14140  0.09401  1.0000
  H   H26       1.0  0.05496  0.05124  0.15985  1.0000
  H   H27       1.0  0.05964  0.06012  0.09546  1.0000
  H   H28       1.0  0.05990  0.01419  0.12856  1.0000
  H   H29       1.0  0.05626  0.20722  0.12481  1.0000
  H   H30       1.0  0.04240  0.20197  0.11091  1.0000
  H   H31       1.0  0.04014  0.19784  0.13758  1.0000
  C   C33       1.0  0.17047  0.21797  0.21878  1.0000
  C   C34       1.0  0.24020  0.02341  0.08092  1.0000
  H   H32       1.0  0.23803  0.07811  0.19394  1.0000
  H   H33       1.0  0.18203  0.18801  0.17276  1.0000
  H   H34       1.0  0.21399  0.96389  0.09132  1.0000
  H   H35       1.0  0.18229  0.11350  0.19212  1.0000
  H   H36       1.0  0.23310  0.07649  0.00700  1.0000
  N   N3        1.0  0.17097  0.17677  0.22946  1.0000
  H   H37       1.0  0.00453  0.95521  0.06668  1.0000
  C   C35       1.0  0.17427  0.22264  0.19820  1.0000
  C   C36       1.0  0.17848  0.18483  0.18854  1.0000
  C   C37       1.0  0.23833  0.95428  0.10086  1.0000
  S   S10       1.0  0.24424  0.27302  0.09369  1.0000
  C   C38       1.0  0.17475  0.13944  0.22001  1.0000
  Fe  Fe6       1.0  0.00089  0.07733  0.11802  1.0000
  S   S11       1.0  0.24545  0.14605  0.08787  1.0000
  S   S12       1.0  0.05217  0.04127  0.24714  1.0000
  H   H38       1.0  0.23233  0.92893  0.10834  1.0000
  S   S13       1.0  0.19390  0.24683  0.24618  1.0000
  C   C39       1.0  0.24585  0.08059  0.18123  1.0000
  H   H39       1.0  0.24175  0.07293  0.16759  1.0000
  H   H40       1.0  0.08378  0.92517  0.24754  1.0000
  H   H41       1.0  0.24689  0.00273  0.20416  1.0000
  C   C40       1.0  0.16711  0.17236  0.25107  1.0000
  Fe  Fe7       1.0  0.19533  0.55115  0.46301  1.0000
  S   S14       1.0  0.18212  0.61226  0.45321  1.0000
  H   H42       1.0  0.21273  0.20764  0.39094  1.0000
  Fe  Fe8       1.0  0.18874  0.50179  0.42682  1.0000
  S   S15       1.0  0.17560  0.56174  0.41514  1.0000
  S   S16       1.0  0.18920  0.43269  0.41492  1.0000
  Fe  Fe9       1.0  0.19143  0.60239  0.42222  1.0000
  S   S17       1.0  0.19745  0.66349  0.40199  1.0000
  Fe  Fe10      1.0  0.16759  0.56629  0.44715  1.0000
  S   S18       1.0  0.14571  0.57031  0.45874  1.0000
  S   S19       1.0  0.20521  0.54254  0.43180  1.0000
  S   S20       1.0  0.18016  0.50498  0.45904  1.0000
  Fe  Fe11      1.0  0.20019  0.17629  0.31776  1.0000
  S   S21       1.0  0.20401  0.24326  0.30147  1.0000
  S   S22       1.0  0.21931  0.13270  0.32367  1.0000
  Fe  Fe12      1.0  0.17041  0.19590  0.31511  1.0000
  S   S23       1.0  0.17251  0.26401  0.29861  1.0000
  S   S24       1.0  0.15081  0.16644  0.32564  1.0000
  Fe  Fe13      1.0  0.18975  0.22969  0.28033  1.0000
  Fe  Fe14      1.0  0.18676  0.27188  0.32135  1.0000
  S   S25       1.0  0.18840  0.33903  0.33396  1.0000
  S   S26       1.0  0.18673  0.16141  0.29559  1.0000
  S   S27       1.0  0.18382  0.20530  0.33883  1.0000
  Fe  Fe15      1.0  0.08146  0.10675  0.29214  1.0000
  S   S28       1.0  0.07041  0.10753  0.32266  1.0000
  S   S29       1.0  0.10061  0.13828  0.28086  1.0000
  Fe  Fe16      1.0  0.05855  0.06797  0.27474  1.0000
  S   S30       1.0  0.04612  0.06498  0.30443  1.0000
  N   N4        1.0  0.08023  0.22805  0.30810  1.0000
  Fe  Fe17      1.0  0.05241  0.13311  0.30641  1.0000
  S   S31       1.0  0.03930  0.19839  0.30816  1.0000
  Fe  Fe18      1.0  0.06504  0.03889  0.31848  1.0000
  S   S32       1.0  0.06999  0.97888  0.34175  1.0000
  S   S33       1.0  0.06381  0.13668  0.27604  1.0000
  S   S34       1.0  0.07716  0.03740  0.28856  1.0000
  Fe  Fe19      1.0  0.07521  0.69351  0.42868  1.0000
  S   S35       1.0  0.06577  0.75915  0.43827  1.0000
  S   S36       1.0  0.09713  0.68304  0.41778  1.0000
  Fe  Fe20      1.0  0.04841  0.65725  0.42883  1.0000
  S   S37       1.0  0.03719  0.72063  0.43785  1.0000
  S   S38       1.0  0.03911  0.59246  0.42907  1.0000
  Fe  Fe21      1.0  0.05146  0.75680  0.41542  1.0000
  S   S39       1.0  0.04321  0.81673  0.39455  1.0000
  Fe  Fe22      1.0  0.05229  0.71807  0.46001  1.0000
  H   H43       1.0  0.06711  0.79744  0.47914  1.0000
  S   S40       1.0  0.06142  0.69293  0.40469  1.0000
  S   S41       1.0  0.06299  0.65289  0.45212  1.0000
  C   C41       1.0  0.05677  0.90359  0.30829  1.0000
  C   C42       1.0  0.09098  0.20919  0.34469  1.0000
  C   C43       1.0  0.03114  0.57427  0.40991  1.0000
  C   C44       1.0  0.02709  0.53119  0.41281  1.0000
  C   C45       1.0  0.02000  0.51595  0.39866  1.0000
  C   C46       1.0  0.01696  0.54357  0.38134  1.0000
  C   C47       1.0  0.02129  0.58635  0.37820  1.0000
  C   C48       1.0  0.02834  0.60173  0.39243  1.0000
  H   H44       1.0  0.02922  0.50964  0.42627  1.0000
  H   H45       1.0  0.01687  0.48285  0.40120  1.0000
  H   H46       1.0  0.01902  0.60791  0.36480  1.0000
  H   H47       1.0  0.03140  0.63499  0.39001  1.0000
  C   C49       1.0  0.06217  0.93480  0.35666  1.0000
  C   C50       1.0  0.04860  0.93101  0.35730  1.0000
  C   C51       1.0  0.04304  0.89456  0.36881  1.0000
  C   C52       1.0  0.05091  0.86138  0.37990  1.0000
  C   C53       1.0  0.06446  0.86535  0.37936  1.0000
  C   C54       1.0  0.07002  0.90177  0.36784  1.0000
  H   H48       1.0  0.04238  0.95609  0.34889  1.0000
  H   H49       1.0  0.03253  0.89210  0.36917  1.0000
  H   H50       1.0  0.07068  0.84030  0.38778  1.0000
  H   H51       1.0  0.08053  0.90421  0.36750  1.0000
  C   C55       1.0  0.03292  0.22592  0.32920  1.0000
  C   C56       1.0  0.02734  0.27019  0.32596  1.0000
  C   C57       1.0  0.02092  0.29234  0.34191  1.0000
  C   C58       1.0  0.02019  0.27054  0.36133  1.0000
  C   C59       1.0  0.02619  0.22674  0.36471  1.0000
  C   C60       1.0  0.03254  0.20440  0.34869  1.0000
  H   H52       1.0  0.02764  0.28714  0.31092  1.0000
  H   H53       1.0  0.01640  0.32607  0.33913  1.0000
  H   H54       1.0  0.02569  0.20973  0.37974  1.0000
  H   H55       1.0  0.03680  0.17027  0.35136  1.0000
  C   C61       1.0  0.13731  0.15709  0.31249  1.0000
  C   C62       1.0  0.13596  0.17517  0.29268  1.0000
  C   C63       1.0  0.12482  0.16823  0.28316  1.0000
  C   C64       1.0  0.11486  0.14325  0.29327  1.0000
  C   C65       1.0  0.11623  0.12499  0.31304  1.0000
  C   C66       1.0  0.12738  0.13197  0.32257  1.0000
  H   H56       1.0  0.14340  0.19510  0.28487  1.0000
  H   H57       1.0  0.12382  0.18274  0.26791  1.0000
  H   H58       1.0  0.10867  0.10577  0.32106  1.0000
  H   H59       1.0  0.12831  0.11783  0.33789  1.0000
  C   C67       1.0  0.21462  0.04136  0.37264  1.0000
  C   C68       1.0  0.21203  0.07716  0.35783  1.0000
  C   C69       1.0  0.22164  0.08654  0.34203  1.0000
  H   H60       1.0  0.20717  0.03438  0.38486  1.0000
  H   H61       1.0  0.20265  0.09757  0.35870  1.0000
  C   C70       1.0  0.18897  0.40775  0.39207  1.0000
  C   C71       1.0  0.18687  0.36241  0.39323  1.0000
  C   C72       1.0  0.18629  0.34122  0.37580  1.0000
  C   C73       1.0  0.18808  0.36469  0.35673  1.0000
  C   C74       1.0  0.19014  0.41006  0.35557  1.0000
  C   C75       1.0  0.19050  0.43148  0.37302  1.0000
  H   H62       1.0  0.18560  0.34349  0.40778  1.0000
  H   H63       1.0  0.18460  0.30650  0.37712  1.0000
  H   H64       1.0  0.19154  0.42886  0.34100  1.0000
  H   H65       1.0  0.19209  0.46629  0.37168  1.0000
  C   C76       1.0  0.13238  0.60269  0.44731  1.0000
  C   C77       1.0  0.13424  0.62776  0.42868  1.0000
  C   C78       1.0  0.12333  0.65223  0.41995  1.0000
  C   C79       1.0  0.11048  0.65215  0.42974  1.0000
  C   C80       1.0  0.10860  0.62687  0.44831  1.0000
  C   C81       1.0  0.11950  0.60219  0.45700  1.0000
  H   H66       1.0  0.14408  0.62861  0.42109  1.0000
  H   H67       1.0  0.12489  0.67178  0.40560  1.0000
  H   H68       1.0  0.09880  0.62660  0.45606  1.0000
  H   H69       1.0  0.11798  0.58293  0.47143  1.0000
  C   C82       1.0  0.21221  0.68694  0.40438  1.0000
  C   C83       1.0  0.21392  0.73022  0.39531  1.0000
  H   H70       1.0  0.23639  0.00655  0.42688  1.0000
  H   H71       1.0  0.20622  0.74857  0.38692  1.0000
  H   H72       1.0  0.24144  0.66481  0.42545  1.0000
  C   C84       1.0  0.23577  0.74201  0.34657  1.0000
  S   S42       1.0  0.04510  0.73912  0.49113  1.0000
  H   H73       1.0  0.15658  0.16573  0.25407  1.0000
  H   H74       1.0  0.17338  0.14482  0.25890  1.0000
  C   C85       1.0  0.22886  0.65182  0.47902  1.0000
  C   C86       1.0  0.23377  0.68324  0.41701  1.0000
  C   C87       1.0  0.07469  0.23807  0.28871  1.0000
  H   H75       1.0  0.00061  0.50111  0.46547  1.0000
  H   H76       1.0  0.03911  0.89807  0.41576  1.0000
  H   H77       1.0  0.23206  0.79757  0.32417  1.0000
  N   N5        1.0  0.15322  0.46604  0.41912  1.0000
  C   C88       1.0  0.14824  0.50847  0.41287  1.0000
  C   C89       1.0  0.15736  0.43646  0.40550  1.0000
  C   C90       1.0  0.14788  0.52284  0.39246  1.0000
  C   C91       1.0  0.15709  0.44956  0.38497  1.0000
  C   C92       1.0  0.15244  0.49320  0.37844  1.0000
  C   C93       1.0  0.15405  0.45155  0.44048  1.0000
  H   H78       1.0  0.14481  0.53185  0.42362  1.0000
  H   H79       1.0  0.16138  0.40290  0.41048  1.0000
  H   H80       1.0  0.14431  0.55700  0.38764  1.0000
  H   H81       1.0  0.16084  0.42629  0.37422  1.0000
  H   H82       1.0  0.15209  0.47993  0.44968  1.0000
  H   H83       1.0  0.14676  0.42741  0.44587  1.0000
  H   H84       1.0  0.16418  0.43572  0.44303  1.0000
  N   N6        1.0  0.07434  0.55938  0.41663  1.0000
  C   C94       1.0  0.06570  0.55052  0.40381  1.0000
  C   C95       1.0  0.08399  0.58679  0.41008  1.0000
  C   C96       1.0  0.06610  0.57130  0.38416  1.0000
  C   C97       1.0  0.07341  0.53832  0.43734  1.0000
  H   H85       1.0  0.05812  0.52844  0.40896  1.0000
  H   H86       1.0  0.09098  0.59338  0.42013  1.0000
  H   H87       1.0  0.05883  0.56558  0.37436  1.0000
  H   H88       1.0  0.07772  0.50312  0.43788  1.0000
  H   H89       1.0  0.07865  0.55592  0.44716  1.0000
  H   H90       1.0  0.06288  0.53962  0.44366  1.0000
  H   H91       1.0  0.22516  0.65144  0.49509  1.0000
  S   S43       1.0  0.00755  0.52635  0.36358  1.0000
  C   C98       1.0  0.22322  0.23410  0.34202  1.0000
  N   N7        1.0  0.07254  0.93643  0.27498  1.0000
  H   H92       1.0  0.06954  0.85217  0.48520  1.0000
  C   C99       1.0  0.05921  0.93675  0.27402  1.0000
  H   H93       1.0  0.06424  0.23031  0.28969  1.0000
  C   C100      1.0  0.05111  0.92083  0.29071  1.0000
  C   C101      1.0  0.22483  0.30718  0.32244  1.0000
  S   S44       1.0  0.01130  0.29604  0.38151  1.0000
  H   H94       1.0  0.22596  0.73113  0.34717  1.0000
  H   H95       1.0  0.00871  0.21102  0.30315  1.0000
  H   H96       1.0  0.05482  0.82697  0.49495  1.0000
  H   H97       1.0  0.22228  0.78901  0.44213  1.0000
  H   H98       1.0  0.08870  0.91956  0.29307  1.0000
  H   H99       1.0  0.24128  0.06683  0.32901  1.0000
  C   C102      1.0  0.00205  0.23335  0.31188  1.0000
  C   C103      1.0  0.20555  0.75073  0.44454  1.0000
  H   H100      1.0  0.21059  0.29030  0.38955  1.0000
  C   C104      1.0  0.06213  0.83099  0.48162  1.0000
  C   C105      1.0  0.21817  0.75849  0.44849  1.0000
  C   C106      1.0  0.22577  0.72560  0.45984  1.0000
  C   C107      1.0  0.07039  0.90269  0.30902  1.0000
  H   H101      1.0  0.15249  0.50406  0.36254  1.0000
  H   H102      1.0  0.05062  0.89134  0.32142  1.0000
  H   H103      1.0  0.10986  0.21445  0.32745  1.0000
  S   S45       1.0  0.20930  0.55322  0.48781  1.0000
  C   C108      1.0  0.08480  0.60771  0.39046  1.0000
  C   C109      1.0  0.07570  0.60024  0.37751  1.0000
  H   H104      1.0  0.21544  0.32378  0.31686  1.0000
  C   C110      1.0  0.09919  0.21685  0.32707  1.0000
  C   C111      1.0  0.07817  0.91949  0.29216  1.0000
  H   H105      1.0  0.04050  0.92221  0.29004  1.0000
  C   C112      1.0  0.04274  0.84456  0.46227  1.0000
  H   H106      1.0  0.22814  0.61845  0.47429  1.0000
  H   H107      1.0  0.09221  0.63066  0.38561  1.0000
  H   H108      1.0  0.07598  0.61728  0.36244  1.0000
  H   H109      1.0  0.08040  0.21753  0.27755  1.0000
  C   C113      1.0  0.00495  0.56617  0.45165  1.0000
  N   N8        1.0  0.22089  0.68611  0.46705  1.0000
  H   H110      1.0  0.19973  0.77523  0.43514  1.0000
  C   C114      1.0  0.03659  0.86170  0.44504  1.0000
  H   H111      1.0  0.21609  0.33558  0.35750  1.0000
  N   N9        1.0  0.05567  0.85058  0.46377  1.0000
  H   H112      1.0  0.24565  0.00307  0.35482  1.0000
  Fe  Fe23      1.0  0.99861  0.36209  0.37671  1.0000
  C   C115      1.0  0.07731  0.21197  0.34389  1.0000
  H   H113      1.0  0.23949  0.65739  0.47720  1.0000
  H   H114      1.0  0.05474  0.94988  0.26037  1.0000
  C   C116      1.0  0.06285  0.87243  0.44817  1.0000
  C   C117      1.0  0.04373  0.88515  0.42932  1.0000
  H   H115      1.0  0.07324  0.87564  0.44900  1.0000
  H   H116      1.0  0.07505  0.27380  0.28327  1.0000
  C   C118      1.0  0.05698  0.89027  0.43076  1.0000
  C   C119      1.0  0.21999  0.20764  0.35987  1.0000
  C   C120      1.0  0.09361  0.22632  0.30880  1.0000
  H   H117      1.0  0.07079  0.20612  0.35747  1.0000
  C   C121      1.0  0.22673  0.01432  0.37164  1.0000
  C   C122      1.0  0.21425  0.27410  0.37631  1.0000
  H   H118      1.0  0.06270  0.90712  0.41826  1.0000
  H   H119      1.0  0.23000  0.28725  0.31067  1.0000
  C   C123      1.0  0.22539  0.75034  0.39745  1.0000
  H   H120      1.0  0.22104  0.63007  0.42215  1.0000
  C   C124      1.0  0.21745  0.29957  0.35816  1.0000
  H   H121      1.0  0.02644  0.85605  0.44367  1.0000
  N   N10       1.0  0.22191  0.27949  0.34134  1.0000
  H   H122      1.0  0.07484  0.89030  0.32278  1.0000
  H   H123      1.0  0.22086  0.17168  0.36022  1.0000
  H   H124      1.0  0.06144  0.22389  0.32489  1.0000
  H   H125      1.0  0.09523  0.20089  0.35889  1.0000
  Fe  Fe24      1.0  0.24748  0.91846  0.38846  1.0000
  H   H126      1.0  0.22663  0.21797  0.32868  1.0000
  C   C125      1.0  0.23535  0.72687  0.40837  1.0000
  C   C126      1.0  0.23378  0.05973  0.34115  1.0000
  C   C127      1.0  0.07206  0.22186  0.32537  1.0000
  C   C128      1.0  0.22221  0.66348  0.41520  1.0000
  H   H127      1.0  0.23572  0.73147  0.46228  1.0000
  H   H128      1.0  0.16853  0.20298  0.25776  1.0000
  H   H129      1.0  0.19089  0.70404  0.44884  1.0000
  H   H130      1.0  0.08996  0.96477  0.26134  1.0000
  H   H131      1.0  0.10008  0.23109  0.29509  1.0000
  H   H132      1.0  0.22648  0.78400  0.39076  1.0000
  S   S46       1.0  0.22974  0.97044  0.39085  1.0000
  C   C129      1.0  0.23629  0.02358  0.35578  1.0000
  S   S47       1.0  0.99889  0.40908  0.34844  1.0000
  C   C130      1.0  0.21544  0.22784  0.37709  1.0000
  H   H133      1.0  0.00327  0.19019  0.33930  1.0000
  H   H134      1.0  0.23121  0.33309  0.32463  1.0000
  H   H135      1.0  0.03715  0.82592  0.47432  1.0000
  C   C131      1.0  0.20841  0.67864  0.46365  1.0000
  H   H136      1.0  0.01111  0.57200  0.46303  1.0000
  C   C132      1.0  0.23918  0.77925  0.33374  1.0000
  C   C133      1.0  0.20059  0.71067  0.45220  1.0000
  H   H137      1.0  0.20455  0.64741  0.46953  1.0000
  H   H138      1.0  0.24230  0.69036  0.36894  1.0000
  H   H139      1.0  0.99949  0.28440  0.28718  1.0000
  C   C134      1.0  0.99899  0.22181  0.33238  1.0000
  H   H140      1.0  0.00800  0.62835  0.43380  1.0000
  C   C135      1.0  0.08090  0.95237  0.25718  1.0000
  C   C136      1.0  0.24506  0.71911  0.35892  1.0000
  C   C137      1.0  0.00315  0.59801  0.43525  1.0000
  C   C138      1.0  0.99916  0.52638  0.45292  1.0000
  H   H141      1.0  0.24272  0.01508  0.46078  1.0000
  C   C139      1.0  0.24659  0.00999  0.42913  1.0000
  S   S48       1.0  0.99870  0.41564  0.39695  1.0000
  H   H142      1.0  0.04867  0.62679  0.61026  1.0000
  H   H143      1.0  0.22917  0.56391  0.51368  1.0000
  S   S49       1.0  0.21810  0.59466  0.63304  1.0000
  Fe  Fe25      1.0  0.24401  0.66894  0.60612  1.0000
  S   S50       1.0  0.22212  0.68912  0.60766  1.0000
  Fe  Fe26      1.0  0.22182  0.66207  0.64043  1.0000
  S   S51       1.0  0.20987  0.70294  0.66419  1.0000
  Fe  Fe27      1.0  0.22044  0.62000  0.60007  1.0000
  S   S52       1.0  0.20583  0.60679  0.57794  1.0000
  C   C140      1.0  0.04820  0.55616  0.61268  1.0000
  C   C141      1.0  0.24750  0.84520  0.64572  1.0000
  Fe  Fe28      1.0  0.01714  0.64245  0.60312  1.0000
  S   S53       1.0  0.01097  0.58198  0.62306  1.0000
  S   S54       1.0  0.02995  0.62433  0.57474  1.0000
  H   H144      1.0  0.23984  0.82975  0.59051  1.0000
  H   H145      1.0  0.00063  0.61635  0.57098  1.0000
  Fe  Fe29      1.0  0.01463  0.61730  0.64934  1.0000
  S   S55       1.0  0.02567  0.57815  0.67493  1.0000
  C   C142      1.0  0.23011  0.49214  0.57143  1.0000
  S   S56       1.0  0.02249  0.67457  0.62920  1.0000
  C   C143      1.0  0.21969  0.57221  0.52178  1.0000
  H   H146      1.0  0.05580  0.55718  0.66733  1.0000
  C   C144      1.0  0.04308  0.65984  0.51638  1.0000
  C   C145      1.0  0.03972  0.63544  0.53501  1.0000
  C   C146      1.0  0.03340  0.65681  0.55133  1.0000
  C   C147      1.0  0.03040  0.70301  0.54872  1.0000
  C   C148      1.0  0.03394  0.72748  0.53018  1.0000
  C   C149      1.0  0.24295  0.81408  0.66104  1.0000
  H   H147      1.0  0.04216  0.59978  0.53682  1.0000
  H   H148      1.0  0.02559  0.72008  0.56109  1.0000
  H   H149      1.0  0.03177  0.76326  0.52850  1.0000
  C   C150      1.0  0.04180  0.61885  0.73111  1.0000
  C   C151      1.0  0.03560  0.65132  0.71746  1.0000
  C   C152      1.0  0.03053  0.63961  0.70033  1.0000
  C   C153      1.0  0.03160  0.59507  0.69655  1.0000
  C   C154      1.0  0.03785  0.56263  0.71012  1.0000
  C   C155      1.0  0.04289  0.57433  0.72728  1.0000
  H   H150      1.0  0.03473  0.68588  0.72015  1.0000
  H   H151      1.0  0.02579  0.66504  0.69008  1.0000
  H   H152      1.0  0.03872  0.52805  0.70745  1.0000
  C   C156      1.0  0.20801  0.57012  0.51259  1.0000
  H   H153      1.0  0.04757  0.54888  0.73758  1.0000
  H   H154      1.0  0.04577  0.55647  0.59740  1.0000
  C   C157      1.0  0.19586  0.58086  0.52344  1.0000
  C   C158      1.0  0.19543  0.59262  0.54318  1.0000
  C   C159      1.0  0.20709  0.59476  0.55236  1.0000
  C   C160      1.0  0.21926  0.58494  0.54135  1.0000
  C   C161      1.0  0.23171  0.78286  0.63718  1.0000
  C   C162      1.0  0.05387  0.63783  0.64749  1.0000
  H   H155      1.0  0.18593  0.60001  0.55143  1.0000
  H   H156      1.0  0.22834  0.58648  0.54805  1.0000
  H   H157      1.0  0.19809  0.47473  0.61393  1.0000
  C   C163      1.0  0.20667  0.68855  0.73387  1.0000
  C   C164      1.0  0.19948  0.72354  0.72299  1.0000
  C   C165      1.0  0.20056  0.72724  0.70179  1.0000
  C   C166      1.0  0.20884  0.69620  0.69105  1.0000
  C   C167      1.0  0.21606  0.66133  0.70194  1.0000
  C   C168      1.0  0.21497  0.65760  0.72312  1.0000
  H   H158      1.0  0.19319  0.74809  0.73084  1.0000
  H   H159      1.0  0.19497  0.75454  0.69362  1.0000
  H   H160      1.0  0.22249  0.63713  0.69404  1.0000
  H   H161      1.0  0.22061  0.63035  0.73119  1.0000
  C   C169      1.0  0.04929  0.51636  0.62526  1.0000
  C   C170      1.0  0.20344  0.50470  0.61331  1.0000
  H   H162      1.0  0.15520  0.62540  0.74648  1.0000
  H   H163      1.0  0.05479  0.66591  0.63547  1.0000
  N   N11       1.0  0.21657  0.49732  0.60252  1.0000
  H   H164      1.0  0.06266  0.63494  0.65614  1.0000
  Fe  Fe30      1.0  0.24034  0.58022  0.63055  1.0000
  C   C171      1.0  0.04992  0.59593  0.62006  1.0000
  H   H165      1.0  0.00743  0.47684  0.56485  1.0000
  H   H166      1.0  0.19758  0.53370  0.60568  1.0000
  H   H167      1.0  0.04487  0.64596  0.65768  1.0000
  C   C172      1.0  0.05224  0.51666  0.64493  1.0000
  H   H168      1.0  0.23387  0.77706  0.59795  1.0000
  H   H169      1.0  0.23125  0.75853  0.66857  1.0000
  H   H170      1.0  0.18676  0.57939  0.51676  1.0000
  C   C173      1.0  0.05407  0.55693  0.65175  1.0000
  N   N12       1.0  0.05283  0.59590  0.63940  1.0000
  H   H171      1.0  0.20898  0.50703  0.57391  1.0000
  H   H172      1.0  0.22667  0.48518  0.62907  1.0000
  C   C174      1.0  0.21770  0.49904  0.58210  1.0000
  H   H173      1.0  0.01599  0.54809  0.56953  1.0000
  H   H174      1.0  0.04765  0.48548  0.61986  1.0000
  H   H175      1.0  0.23094  0.49472  0.55519  1.0000
  H   H176      1.0  0.05273  0.48619  0.65507  1.0000
  N   N13       1.0  0.23644  0.81289  0.62218  1.0000
  C   C175      1.0  0.04033  0.70616  0.51388  1.0000
  C   C176      1.0  0.23299  0.81190  0.60173  1.0000
  H   H177      1.0  0.20409  0.51246  0.62881  1.0000
  S   S57       1.0  0.24394  0.64692  0.63919  1.0000
  H   H178      1.0  0.24567  0.81399  0.67614  1.0000
  H   H179      1.0  0.22547  0.75845  0.63405  1.0000
  C   C177      1.0  0.00557  0.54700  0.56796  1.0000
  C   C178      1.0  0.23493  0.78285  0.65680  1.0000
  S   S58       1.0  0.24237  0.60055  0.59727  1.0000
  H   H180      1.0  0.22269  0.82709  0.60025  1.0000
  C   C179      1.0  0.22754  0.48716  0.61285  1.0000
  C   C180      1.0  0.24401  0.84440  0.62629  1.0000
  Fe  Fe31      1.0  0.00121  0.70467  0.63136  1.0000
  C   C181      1.0  0.00078  0.50721  0.56520  1.0000
  H   H181      1.0  0.17491  0.68247  0.73671  1.0000
  S   S59       1.0  0.24697  0.51423  0.64802  1.0000
  H   H182      1.0  0.04805  0.64290  0.50408  1.0000
  C   C182      1.0  0.24011  0.48003  0.60266  1.0000
  C   C183      1.0  0.14994  0.65604  0.75106  1.0000
  C   C184      1.0  0.24138  0.48293  0.58181  1.0000
  H   H183      1.0  0.99792  0.76161  0.70279  1.0000
  H   H184      1.0  0.13066  0.63313  0.75074  1.0000
  Fe  Fe32      1.0  0.16692  0.71846  0.81300  1.0000
  S   S60       1.0  0.17913  0.76842  0.79415  1.0000
  S   S61       1.0  0.14456  0.72365  0.81152  1.0000
  Fe  Fe33      1.0  0.19099  0.67166  0.83271  1.0000
  S   S62       1.0  0.20474  0.71759  0.81538  1.0000
  S   S63       1.0  0.19679  0.61453  0.85588  1.0000
  Fe  Fe34      1.0  0.18872  0.77275  0.82276  1.0000
  S   S64       1.0  0.19431  0.83764  0.83326  1.0000
  Fe  Fe35      1.0  0.19404  0.70935  0.78850  1.0000
  S   S65       1.0  0.17560  0.72645  0.84156  1.0000
  S   S66       1.0  0.18116  0.65979  0.80589  1.0000
  Fe  Fe36      1.0  0.18940  0.00548  0.92476  1.0000
  S   S67       1.0  0.18055  0.07035  0.90944  1.0000
  S   S68       1.0  0.18704  0.93736  0.91359  1.0000
  Fe  Fe37      1.0  0.19891  0.05447  0.95890  1.0000
  S   S69       1.0  0.19041  0.12084  0.94498  1.0000
  H   H185      1.0  0.23387  0.08861  0.95104  1.0000
  Fe  Fe38      1.0  0.17263  0.08674  0.94032  1.0000
  S   S70       1.0  0.15294  0.12635  0.94898  1.0000
  Fe  Fe39      1.0  0.19902  0.09862  0.91565  1.0000
  S   S71       1.0  0.21106  0.14139  0.89215  1.0000
  S   S72       1.0  0.18057  0.02088  0.95596  1.0000
  S   S73       1.0  0.20843  0.03310  0.92918  1.0000
  Fe  Fe40      1.0  0.07688  0.16504  0.92383  1.0000
  S   S74       1.0  0.07068  0.21990  0.94366  1.0000
  S   S75       1.0  0.09630  0.12179  0.91745  1.0000
  Fe  Fe41      1.0  0.04970  0.17276  0.90757  1.0000
  S   S76       1.0  0.04178  0.22881  0.92561  1.0000
  S   S77       1.0  0.03734  0.14987  0.88535  1.0000
  Fe  Fe42      1.0  0.06129  0.25659  0.91653  1.0000
  S   S78       1.0  0.06328  0.33138  0.90879  1.0000
  Fe  Fe43      1.0  0.05154  0.18795  0.95121  1.0000
  S   S79       1.0  0.03748  0.17409  0.97960  1.0000
  S   S80       1.0  0.06854  0.20348  0.89655  1.0000
  S   S81       1.0  0.05845  0.13041  0.93325  1.0000
  S   S82       1.0  0.01703  0.95791  0.89337  1.0000
  C   C185      1.0  0.21238  0.83699  0.90441  1.0000
  Fe  Fe44      1.0  0.08507  0.58527  0.79945  1.0000
  S   S83       1.0  0.07505  0.56826  0.83019  1.0000
  S   S84       1.0  0.10768  0.57923  0.79413  1.0000
  Fe  Fe45      1.0  0.05839  0.60140  0.77974  1.0000
  S   S85       1.0  0.04663  0.58545  0.80943  1.0000
  H   H186      1.0  0.04148  0.36318  0.93376  1.0000
  Fe  Fe46      1.0  0.06016  0.62627  0.82193  1.0000
  S   S86       1.0  0.05484  0.68074  0.84230  1.0000
  Fe  Fe47      1.0  0.06246  0.52832  0.81539  1.0000
  S   S87       1.0  0.05858  0.45585  0.82564  1.0000
  S   S88       1.0  0.07110  0.64581  0.79220  1.0000
  S   S89       1.0  0.07338  0.54162  0.78468  1.0000
  C   C186      1.0  0.01327  0.75404  0.84955  1.0000
  C   C187      1.0  0.01523  0.71353  0.84116  1.0000
  C   C188      1.0  0.02792  0.69042  0.83902  1.0000
  C   C189      1.0  0.03866  0.70733  0.84564  1.0000
  C   C190      1.0  0.03659  0.74708  0.85466  1.0000
  C   C191      1.0  0.02394  0.77060  0.85649  1.0000
  S   S90       1.0  0.20580  0.68163  0.76075  1.0000
  H   H187      1.0  0.02941  0.65962  0.83223  1.0000
  H   H188      1.0  0.04488  0.76020  0.85985  1.0000
  H   H189      1.0  0.02250  0.80176  0.86302  1.0000
  C   C192      1.0  0.06165  0.36556  0.88560  1.0000
  C   C193      1.0  0.06334  0.41113  0.88452  1.0000
  C   C194      1.0  0.06222  0.43947  0.86646  1.0000
  C   C195      1.0  0.05938  0.42255  0.84919  1.0000
  C   C196      1.0  0.05766  0.37703  0.85030  1.0000
  C   C197      1.0  0.05879  0.34870  0.86833  1.0000
  H   H190      1.0  0.06553  0.42467  0.89774  1.0000
  H   H191      1.0  0.06359  0.47434  0.86590  1.0000
  H   H192      1.0  0.05544  0.36349  0.83708  1.0000
  H   H193      1.0  0.05742  0.31384  0.86887  1.0000
  C   C198      1.0  0.03046  0.09826  0.88890  1.0000
  C   C199      1.0  0.03246  0.06783  0.90579  1.0000
  C   C200      1.0  0.02788  0.02550  0.90722  1.0000
  C   C201      1.0  0.02109  0.01337  0.89196  1.0000
  C   C202      1.0  0.01872  0.04433  0.87536  1.0000
  C   C203      1.0  0.02346  0.08648  0.87381  1.0000
  H   H194      1.0  0.03779  0.07648  0.91754  1.0000
  H   H195      1.0  0.02974  0.00181  0.92013  1.0000
  H   H196      1.0  0.20412  0.84774  0.91546  1.0000
  H   H197      1.0  0.02183  0.10986  0.86071  1.0000
  C   C204      1.0  0.13723  0.12368  0.94031  1.0000
  C   C205      1.0  0.12643  0.15282  0.94700  1.0000
  C   C206      1.0  0.11386  0.15291  0.94011  1.0000
  C   C207      1.0  0.11195  0.12370  0.92645  1.0000
  C   C208      1.0  0.12278  0.09478  0.91964  1.0000
  C   C209      1.0  0.13537  0.09480  0.92648  1.0000
  H   H198      1.0  0.12778  0.17535  0.95768  1.0000
  H   H199      1.0  0.10563  0.17528  0.94550  1.0000
  H   H200      1.0  0.12141  0.07197  0.90910  1.0000
  H   H201      1.0  0.14358  0.07223  0.92118  1.0000
  C   C210      1.0  0.19096  0.86714  0.85515  1.0000
  C   C211      1.0  0.18336  0.85113  0.87245  1.0000
  C   C212      1.0  0.18188  0.87394  0.88980  1.0000
  C   C213      1.0  0.18780  0.91354  0.89024  1.0000
  C   C214      1.0  0.19513  0.93011  0.87279  1.0000
  C   C215      1.0  0.19674  0.90701  0.85551  1.0000
  H   H202      1.0  0.17876  0.82077  0.87257  1.0000
  H   H203      1.0  0.17617  0.86055  0.90310  1.0000
  H   H204      1.0  0.19986  0.96017  0.87273  1.0000
  H   H205      1.0  0.20263  0.92003  0.84233  1.0000
  C   C216      1.0  0.13453  0.68110  0.80868  1.0000
  C   C217      1.0  0.13993  0.63914  0.80362  1.0000
  C   C218      1.0  0.13157  0.60800  0.79960  1.0000
  C   C219      1.0  0.11774  0.61825  0.80075  1.0000
  C   C220      1.0  0.11234  0.65978  0.80627  1.0000
  C   C221      1.0  0.12069  0.69103  0.81011  1.0000
  H   H206      1.0  0.15054  0.63105  0.80242  1.0000
  H   H207      1.0  0.13585  0.57595  0.79538  1.0000
  H   H208      1.0  0.10173  0.66816  0.80728  1.0000
  H   H209      1.0  0.11641  0.72335  0.81403  1.0000
  C   C222      1.0  0.22760  0.52168  0.86746  1.0000
  C   C223      1.0  0.21500  0.54581  0.86777  1.0000
  C   C224      1.0  0.21295  0.58685  0.85601  1.0000
  H   H210      1.0  0.19651  0.77441  0.91872  1.0000
  H   H211      1.0  0.20675  0.53220  0.87689  1.0000
  Fe  Fe48      1.0  0.00059  0.93404  0.87828  1.0000
  C   C225      1.0  0.22577  0.21240  0.88211  1.0000
  C   C226      1.0  0.21697  0.19146  0.89668  1.0000
  H   H212      1.0  0.22146  0.11405  0.93487  1.0000
  N   N14       1.0  0.16784  0.20253  0.90886  1.0000
  C   C227      1.0  0.15586  0.18965  0.90589  1.0000
  C   C228      1.0  0.17862  0.19433  0.89555  1.0000
  C   C229      1.0  0.15462  0.16547  0.88996  1.0000
  C   C230      1.0  0.17774  0.17065  0.87931  1.0000
  C   C231      1.0  0.16567  0.15575  0.87665  1.0000
  C   C232      1.0  0.16898  0.22668  0.92601  1.0000
  H   H213      1.0  0.14726  0.19675  0.91629  1.0000
  H   H214      1.0  0.18806  0.20536  0.89761  1.0000
  H   H215      1.0  0.14521  0.15358  0.88828  1.0000
  H   H216      1.0  0.18648  0.16283  0.86926  1.0000
  H   H217      1.0  0.16495  0.13614  0.86449  1.0000
  C   C233      1.0  0.24183  0.18468  0.94217  1.0000
  H   H218      1.0  0.21589  0.26297  0.93206  1.0000
  H   H219      1.0  0.15551  0.75416  0.76498  1.0000
  H   H220      1.0  0.05906  0.29334  0.97276  1.0000
  H   H221      1.0  0.01659  0.73836  0.90677  1.0000
  C   C234      1.0  0.01847  0.76137  0.79501  1.0000
  H   H222      1.0  0.04593  0.69395  0.78409  1.0000
  H   H223      1.0  0.17930  0.22261  0.93031  1.0000
  C   C235      1.0  0.23827  0.53884  0.85558  1.0000
  C   C236      1.0  0.15016  0.72803  0.76112  1.0000
  C   C237      1.0  0.21528  0.51120  0.82125  1.0000
  H   H224      1.0  0.01348  0.77204  0.93901  1.0000
  N   N15       1.0  0.22678  0.57511  0.79417  1.0000
  C   C238      1.0  0.19775  0.73564  0.89391  1.0000
  H   H225      1.0  0.21419  0.86706  0.89383  1.0000
  H   H226      1.0  0.21091  0.48712  0.83242  1.0000
  C   C239      1.0  0.21142  0.76202  0.86462  1.0000
  C   C240      1.0  0.02066  0.69172  0.77926  1.0000
  N   N16       1.0  0.06513  0.06923  0.87617  1.0000
  C   C241      1.0  0.05830  0.03261  0.87763  1.0000
  C   C242      1.0  0.07356  0.07326  0.89015  1.0000
  C   C243      1.0  0.05954  0.99944  0.89375  1.0000
  C   C244      1.0  0.07503  0.04076  0.90647  1.0000
  C   C245      1.0  0.06790  0.00379  0.90831  1.0000
  C   C246      1.0  0.06390  0.10337  0.85904  1.0000
  H   H227      1.0  0.05149  0.02955  0.86669  1.0000
  H   H228      1.0  0.07911  0.10200  0.88890  1.0000
  H   H229      1.0  0.05373  0.97127  0.89517  1.0000
  H   H230      1.0  0.08157  0.04465  0.91770  1.0000
  H   H231      1.0  0.06878  0.97875  0.92108  1.0000
  H   H232      1.0  0.06453  0.13692  0.86361  1.0000
  H   H233      1.0  0.07183  0.09638  0.84699  1.0000
  H   H234      1.0  0.05406  0.10488  0.85315  1.0000
  N   N17       1.0  0.09301  0.43436  0.82361  1.0000
  C   C247      1.0  0.09166  0.41320  0.84265  1.0000
  C   C248      1.0  0.09874  0.47336  0.81988  1.0000
  C   C249      1.0  0.09562  0.43203  0.85868  1.0000
  C   C250      1.0  0.10294  0.49291  0.83552  1.0000
  C   C251      1.0  0.10124  0.47228  0.85505  1.0000
  C   C252      1.0  0.08874  0.41451  0.80694  1.0000
  H   H235      1.0  0.08712  0.38226  0.84567  1.0000
  H   H236      1.0  0.09993  0.48998  0.80476  1.0000
  H   H237      1.0  0.09408  0.41584  0.87383  1.0000
  H   H238      1.0  0.10724  0.52435  0.83249  1.0000
  H   H239      1.0  0.10418  0.48765  0.86735  1.0000
  H   H240      1.0  0.09737  0.39708  0.79873  1.0000
  H   H241      1.0  0.08129  0.39072  0.81230  1.0000
  H   H242      1.0  0.08374  0.44064  0.79653  1.0000
  C   C253      1.0  0.00503  0.76986  0.93079  1.0000
  C   C254      1.0  0.23121  0.25096  0.88567  1.0000
  H   H243      1.0  0.05277  0.35077  0.97506  1.0000
  H   H244      1.0  0.22859  0.19829  0.86814  1.0000
  N   N18       1.0  0.04102  0.31557  0.95967  1.0000
  C   C255      1.0  0.03593  0.33886  0.94310  1.0000
  H   H245      1.0  0.05598  0.74890  0.80032  1.0000
  C   C256      1.0  0.02366  0.33072  0.93760  1.0000
  H   H246      1.0  0.21528  0.75989  0.84916  1.0000
  H   H247      1.0  0.22040  0.82142  0.86676  1.0000
  H   H248      1.0  0.19114  0.71211  0.90144  1.0000
  C   C257      1.0  0.20312  0.73121  0.87433  1.0000
  H   H249      1.0  0.11855  0.70246  0.76189  1.0000
  H   H250      1.0  0.20071  0.70426  0.86661  1.0000
  C   C258      1.0  0.23269  0.60911  0.77987  1.0000
  H   H251      1.0  0.00697  0.70041  0.83591  1.0000
  H   H252      1.0  0.01755  0.82086  0.80985  1.0000
  C   C259      1.0  0.02156  0.27672  0.96664  1.0000
  H   H253      1.0  0.23489  0.47644  0.82111  1.0000
  H   H254      1.0  0.23736  0.19255  0.95675  1.0000
  H   H255      1.0  0.24454  0.59401  0.83508  1.0000
  H   H256      1.0  0.22135  0.82588  0.91232  1.0000
  H   H257      1.0  0.02293  0.69613  0.76273  1.0000
  C   C260      1.0  0.24388  0.13972  0.91540  1.0000
  C   C261      1.0  0.03972  0.72196  0.78958  1.0000
  H   H258      1.0  0.20755  0.61042  0.79433  1.0000
  N   N19       1.0  0.15678  0.68956  0.75510  1.0000
  H   H259      1.0  0.13114  0.76320  0.76903  1.0000
  H   H260      1.0  0.01358  0.03535  0.86346  1.0000
  H   H261      1.0  0.16272  0.21335  0.93938  1.0000
  H   H262      1.0  0.01993  0.34801  0.92401  1.0000
  H   H263      1.0  0.04176  0.81314  0.81313  1.0000
  C   C262      1.0  0.05397  0.32393  0.96507  1.0000
  N   N20       1.0  0.02636  0.72576  0.78830  1.0000
  C   C263      1.0  0.22367  0.60429  0.84433  1.0000
  C   C264      1.0  0.21333  0.21020  0.91460  1.0000
  H   H264      1.0  0.22222  0.63594  0.83530  1.0000
  H   H265      1.0  0.20655  0.19460  0.92592  1.0000
  C   C265      1.0  0.21864  0.24898  0.91805  1.0000
  C   C266      1.0  0.22776  0.26916  0.90377  1.0000
  H   H266      1.0  0.01625  0.25136  0.97576  1.0000
  H   H267      1.0  0.16583  0.26257  0.92237  1.0000
  S   S91       1.0  0.21308  0.05539  0.98358  1.0000
  C   C267      1.0  0.23630  0.58048  0.84425  1.0000
  N   N21       1.0  0.20893  0.80109  0.89387  1.0000
  C   C268      1.0  0.20082  0.77089  0.90356  1.0000
  C   C269      1.0  0.22874  0.50521  0.81491  1.0000
  C   C270      1.0  0.03386  0.28564  0.97165  1.0000
  C   C271      1.0  0.21426  0.79689  0.87468  1.0000
  C   C272      1.0  0.21353  0.58079  0.80001  1.0000
  H   H268      1.0  0.22901  0.48966  0.87626  1.0000
  S   S92       1.0  0.23499  0.31546  0.90982  1.0000
  C   C273      1.0  0.02391  0.79369  0.80377  1.0000
  C   C274      1.0  0.22877  0.12078  0.94492  1.0000
  C   C275      1.0  0.01650  0.29916  0.94940  1.0000
  H   H269      1.0  0.00978  0.69289  0.78290  1.0000
  C   C276      1.0  0.17129  0.68391  0.75273  1.0000
  H   H270      1.0  0.24088  0.11216  0.90870  1.0000
  C   C277      1.0  0.00679  0.75102  0.91274  1.0000
  C   C278      1.0  0.04547  0.75338  0.79843  1.0000
  H   H271      1.0  0.19720  0.55478  0.81904  1.0000
  H   H272      1.0  0.00715  0.29151  0.94504  1.0000
  H   H273      1.0  0.22976  0.60701  0.76466  1.0000
  N   N22       1.0  0.23837  0.14920  0.93393  1.0000
  H   H274      1.0  0.22305  0.13656  0.95759  1.0000
  H   H275      1.0  0.23818  0.26630  0.87452  1.0000
  H   H276      1.0  0.06059  0.33378  0.95151  1.0000
  C   C279      1.0  0.03749  0.78937  0.80562  1.0000
  H   H277      1.0  0.02501  0.65791  0.78488  1.0000
  H   H278      1.0  0.17511  0.65277  0.76153  1.0000
  C   C280      1.0  0.20759  0.54913  0.81373  1.0000
  C   C281      1.0  0.12927  0.69940  0.75938  1.0000
  C   C282      1.0  0.23436  0.53767  0.80124  1.0000
  H   H279      1.0  0.00786  0.76437  0.79421  1.0000
  H   H280      1.0  0.22913  0.64295  0.78410  1.0000
  S   S93       1.0  0.00113  0.91461  0.84691  1.0000
  H   H281      1.0  0.24365  0.60544  0.77935  1.0000
  H   H282      1.0  0.03781  0.26743  0.98491  1.0000
  C   C283      1.0  0.13632  0.73356  0.76329  1.0000
  H   H283      1.0  0.17566  0.71165  0.75808  1.0000
  C   C284      1.0  0.13609  0.66037  0.75319  1.0000
  H   H284      1.0  0.24489  0.53308  0.79675  1.0000
  S   S94       1.0  0.04790  0.63607  0.75253  1.0000
  Fe  Fe49      1.0  0.32657  0.46487  0.05698  1.0000
  S   S95       1.0  0.31261  0.52275  0.04516  1.0000
  S   S96       1.0  0.34842  0.47542  0.05158  1.0000
  Fe  Fe50      1.0  0.30375  0.41705  0.07856  1.0000
  S   S97       1.0  0.28861  0.47276  0.06927  1.0000
  S   S98       1.0  0.29875  0.35295  0.09713  1.0000
  Fe  Fe51      1.0  0.29980  0.47110  0.03852  1.0000
  Fe  Fe52      1.0  0.30289  0.51894  0.07682  1.0000
  S   S99       1.0  0.29701  0.58328  0.09233  1.0000
  S   S100      1.0  0.31459  0.41382  0.04795  1.0000
  S   S101      1.0  0.31710  0.46272  0.08859  1.0000
  Fe  Fe53      1.0  0.31052  0.74850  0.17804  1.0000
  S   S102      1.0  0.31164  0.81745  0.16164  1.0000
  S   S103      1.0  0.31504  0.68266  0.16293  1.0000
  Fe  Fe54      1.0  0.30471  0.78714  0.21970  1.0000
  S   S104      1.0  0.30548  0.85739  0.20551  1.0000
  H   H285      1.0  0.25971  0.04608  0.07611  1.0000
  Fe  Fe55      1.0  0.29374  0.83795  0.18216  1.0000
  S   S105      1.0  0.27447  0.87862  0.17445  1.0000
  Fe  Fe56      1.0  0.32347  0.83125  0.18640  1.0000
  S   S106      1.0  0.34036  0.87643  0.17978  1.0000
  S   S107      1.0  0.29188  0.76846  0.19737  1.0000
  S   S108      1.0  0.32348  0.76151  0.20181  1.0000
  H   H286      1.0  0.34272  0.57249  0.06355  1.0000
  Fe  Fe57      1.0  0.41871  0.33644  0.06537  1.0000
  S   S109      1.0  0.43395  0.28384  0.05352  1.0000
  S   S110      1.0  0.39713  0.32650  0.06319  1.0000
  Fe  Fe58      1.0  0.43962  0.38066  0.08291  1.0000
  S   S111      1.0  0.45593  0.33031  0.07304  1.0000
  S   S112      1.0  0.44258  0.44313  0.09668  1.0000
  Fe  Fe59      1.0  0.44677  0.33957  0.04363  1.0000
  H   H287      1.0  0.27022  0.97921  0.09534  1.0000
  Fe  Fe60      1.0  0.44171  0.27883  0.08380  1.0000
  S   S113      1.0  0.44856  0.20935  0.09878  1.0000
  S   S114      1.0  0.43092  0.39241  0.05315  1.0000
  S   S115      1.0  0.42602  0.32888  0.09604  1.0000
  Fe  Fe61      1.0  0.44233  0.91824  0.16914  1.0000
  S   S116      1.0  0.44843  0.97682  0.18192  1.0000
  S   S117      1.0  0.45457  0.88771  0.14329  1.0000
  Fe  Fe62      1.0  0.41607  0.91829  0.19555  1.0000
  S   S118      1.0  0.42038  0.97690  0.21070  1.0000
  S   S119      1.0  0.39955  0.87232  0.20428  1.0000
  Fe  Fe63      1.0  0.42746  0.00640  0.17944  1.0000
  S   S120      1.0  0.42125  0.07959  0.16886  1.0000
  Fe  Fe64      1.0  0.44116  0.94319  0.21210  1.0000
  H   H288      1.0  0.46069  0.11258  0.17094  1.0000
  S   S121      1.0  0.42172  0.95000  0.16447  1.0000
  S   S122      1.0  0.43646  0.88259  0.19911  1.0000
  C   C285      1.0  0.42940  0.11579  0.15001  1.0000
  C   C286      1.0  0.44128  0.10196  0.13922  1.0000
  C   C287      1.0  0.44715  0.13147  0.12401  1.0000
  C   C288      1.0  0.44122  0.17502  0.11926  1.0000
  C   C289      1.0  0.42948  0.18912  0.13036  1.0000
  C   C290      1.0  0.42366  0.15973  0.14568  1.0000
  H   H289      1.0  0.44586  0.06837  0.14239  1.0000
  H   H290      1.0  0.45625  0.12019  0.11557  1.0000
  H   H291      1.0  0.42485  0.22258  0.12706  1.0000
  H   H292      1.0  0.41453  0.17098  0.15404  1.0000
  C   C291      1.0  0.48224  0.47695  0.11443  1.0000
  C   C292      1.0  0.46865  0.42247  0.10538  1.0000
  C   C293      1.0  0.45791  0.45507  0.10371  1.0000
  C   C294      1.0  0.45937  0.49854  0.10760  1.0000
  C   C295      1.0  0.47150  0.50958  0.11280  1.0000
  H   H293      1.0  0.46762  0.38884  0.10259  1.0000
  H   H294      1.0  0.45108  0.52389  0.10645  1.0000
  H   H295      1.0  0.47256  0.54329  0.11547  1.0000
  C   C296      1.0  0.47667  0.74788  0.15195  1.0000
  C   C297      1.0  0.47705  0.77226  0.13302  1.0000
  C   C298      1.0  0.47063  0.81581  0.13065  1.0000
  C   C299      1.0  0.46390  0.83533  0.14716  1.0000
  C   C300      1.0  0.46395  0.81146  0.16616  1.0000
  C   C301      1.0  0.47022  0.76786  0.16849  1.0000
  H   H296      1.0  0.47065  0.83410  0.11590  1.0000
  H   H297      1.0  0.45892  0.82624  0.17900  1.0000
  H   H298      1.0  0.46997  0.74926  0.18319  1.0000
  C   C302      1.0  0.35703  0.87340  0.18602  1.0000
  C   C303      1.0  0.36428  0.91019  0.17994  1.0000
  C   C304      1.0  0.37734  0.91032  0.18511  1.0000
  C   C305      1.0  0.38329  0.87368  0.19663  1.0000
  C   C306      1.0  0.37607  0.83678  0.20261  1.0000
  C   C307      1.0  0.36308  0.83644  0.19725  1.0000
  H   H299      1.0  0.35975  0.93897  0.17123  1.0000
  H   H300      1.0  0.38270  0.93901  0.18040  1.0000
  H   H301      1.0  0.38058  0.80814  0.21145  1.0000
  H   H302      1.0  0.35781  0.80747  0.20175  1.0000
  C   C308      1.0  0.27325  0.92796  0.15784  1.0000
  C   C309      1.0  0.28440  0.94510  0.14731  1.0000
  C   C310      1.0  0.28305  0.98612  0.13527  1.0000
  C   C311      1.0  0.27058  0.01041  0.13385  1.0000
  C   C312      1.0  0.25940  0.99287  0.14408  1.0000
  C   C313      1.0  0.26073  0.95166  0.15593  1.0000
  H   H303      1.0  0.29408  0.92701  0.14863  1.0000
  H   H304      1.0  0.29173  0.99938  0.12726  1.0000
  H   H305      1.0  0.47037  0.01388  0.21983  1.0000
  H   H306      1.0  0.45617  0.43414  0.03608  1.0000
  C   C314      1.0  0.30166  0.60909  0.11285  1.0000
  C   C315      1.0  0.29593  0.65234  0.11603  1.0000
  C   C316      1.0  0.29960  0.67494  0.13146  1.0000
  C   C317      1.0  0.30908  0.65460  0.14414  1.0000
  C   C318      1.0  0.31461  0.61094  0.14119  1.0000
  C   C319      1.0  0.31099  0.58841  0.12571  1.0000
  H   H307      1.0  0.28869  0.66891  0.10632  1.0000
  H   H308      1.0  0.29521  0.70836  0.13339  1.0000
  H   H309      1.0  0.32194  0.59465  0.15083  1.0000
  H   H310      1.0  0.31556  0.55530  0.12361  1.0000
  C   C320      1.0  0.36178  0.43362  0.05553  1.0000
  C   C321      1.0  0.37473  0.44602  0.05408  1.0000
  C   C322      1.0  0.38565  0.41380  0.05672  1.0000
  C   C323      1.0  0.38372  0.36871  0.06062  1.0000
  C   C324      1.0  0.37076  0.35633  0.06213  1.0000
  C   C325      1.0  0.35983  0.38859  0.05973  1.0000
  H   H311      1.0  0.37635  0.48074  0.05079  1.0000
  H   H312      1.0  0.39556  0.42379  0.05547  1.0000
  H   H313      1.0  0.36916  0.32155  0.06508  1.0000
  H   H314      1.0  0.34993  0.37854  0.06083  1.0000
  C   C326      1.0  0.28336  0.33185  0.09671  1.0000
  C   C327      1.0  0.28141  0.28936  0.10646  1.0000
  C   C328      1.0  0.26940  0.27106  0.10595  1.0000
  C   C329      1.0  0.25917  0.29549  0.09592  1.0000
  C   C330      1.0  0.26101  0.33848  0.08662  1.0000
  C   C331      1.0  0.27309  0.35644  0.08682  1.0000
  H   H315      1.0  0.28930  0.27019  0.11419  1.0000
  H   H316      1.0  0.26809  0.23795  0.11318  1.0000
  H   H317      1.0  0.48941  0.52406  0.07190  1.0000
  H   H318      1.0  0.27446  0.38916  0.07926  1.0000
  C   C332      1.0  0.26742  0.45913  0.12015  1.0000
  C   C333      1.0  0.45805  0.09459  0.18541  1.0000
  C   C334      1.0  0.33199  0.80438  0.25041  1.0000
  H   H319      1.0  0.26660  0.94873  0.20932  1.0000
  H   H320      1.0  0.25564  0.36779  0.02564  1.0000
  C   C335      1.0  0.28548  0.41076  0.13365  1.0000
  C   C336      1.0  0.29251  0.44755  0.13336  1.0000
  C   C337      1.0  0.29550  0.31474  0.04761  1.0000
  C   C338      1.0  0.26630  0.37296  0.02283  1.0000
  C   C339      1.0  0.46348  0.03940  0.21282  1.0000
  H   H321      1.0  0.25207  0.93846  0.16403  1.0000
  N   N23       1.0  0.27426  0.49521  0.12036  1.0000
  H   H322      1.0  0.29130  0.37661  0.02940  1.0000
  H   H323      1.0  0.29044  0.03678  0.17057  1.0000
  H   H324      1.0  0.33442  0.77079  0.24636  1.0000
  N   N24       1.0  0.43279  0.77383  0.16739  1.0000
  C   C340      1.0  0.42208  0.80259  0.17273  1.0000
  C   C341      1.0  0.43876  0.77762  0.14825  1.0000
  C   C342      1.0  0.41708  0.83630  0.15874  1.0000
  C   C343      1.0  0.43414  0.81135  0.13398  1.0000
  C   C344      1.0  0.42327  0.84096  0.13932  1.0000
  C   C345      1.0  0.43823  0.74034  0.18264  1.0000
  H   H325      1.0  0.41745  0.80014  0.18798  1.0000
  H   H326      1.0  0.44749  0.75568  0.14410  1.0000
  H   H327      1.0  0.40866  0.85927  0.16312  1.0000
  H   H328      1.0  0.43933  0.81563  0.11914  1.0000
  H   H329      1.0  0.41983  0.86805  0.12857  1.0000
  H   H330      1.0  0.44302  0.75698  0.19333  1.0000
  H   H331      1.0  0.43025  0.72170  0.19093  1.0000
  H   H332      1.0  0.44583  0.71587  0.17594  1.0000
  N   N25       1.0  0.41207  0.17799  0.09106  1.0000
  C   C346      1.0  0.40528  0.15391  0.10637  1.0000
  C   C347      1.0  0.42363  0.15968  0.08190  1.0000
  C   C348      1.0  0.40991  0.10992  0.11263  1.0000
  C   C349      1.0  0.42852  0.11575  0.08772  1.0000
  C   C350      1.0  0.42161  0.09079  0.10320  1.0000
  C   C351      1.0  0.40752  0.22471  0.08536  1.0000
  H   H333      1.0  0.39642  0.16903  0.11419  1.0000
  H   H334      1.0  0.42939  0.17960  0.07052  1.0000
  H   H335      1.0  0.40479  0.09137  0.12526  1.0000
  H   H336      1.0  0.43792  0.10195  0.08086  1.0000
  H   H337      1.0  0.42556  0.05729  0.10841  1.0000
  H   H338      1.0  0.41303  0.24652  0.09279  1.0000
  H   H339      1.0  0.40914  0.23334  0.06888  1.0000
  H   H340      1.0  0.39677  0.23249  0.08953  1.0000
  C   C352      1.0  0.28737  0.34624  0.03641  1.0000
  C   C353      1.0  0.47850  0.42187  0.05174  1.0000
  C   C354      1.0  0.26852  0.53950  0.11266  1.0000
  C   C355      1.0  0.25970  0.98210  0.09359  1.0000
  H   H341      1.0  0.46752  0.52759  0.05877  1.0000
  H   H342      1.0  0.28998  0.37760  0.13835  1.0000
  S   S123      1.0  0.26939  0.06244  0.11915  1.0000
  H   H343      1.0  0.27250  0.56604  0.11957  1.0000
  H   H344      1.0  0.44948  0.46706  0.05584  1.0000
  C   C356      1.0  0.47418  0.49727  0.05837  1.0000
  H   H345      1.0  0.29228  0.51821  0.12632  1.0000
  S   S124      1.0  0.46227  0.35186  0.01690  1.0000
  C   C357      1.0  0.27286  0.41646  0.12700  1.0000
  N   N26       1.0  0.27457  0.33929  0.03462  1.0000
  H   H346      1.0  0.25774  0.46310  0.11454  1.0000
  H   H347      1.0  0.34309  0.91746  0.21898  1.0000
  H   H348      1.0  0.33603  0.69687  0.12398  1.0000
  C   C358      1.0  0.26969  0.05946  0.17568  1.0000
  H   H349      1.0  0.30550  0.32096  0.04963  1.0000
  C   C359      1.0  0.28671  0.48982  0.12664  1.0000
  H   H350      1.0  0.43838  0.12791  0.18815  1.0000
  H   H351      1.0  0.45616  0.49345  0.03214  1.0000
  H   H352      1.0  0.28849  0.96586  0.19270  1.0000
  C   C360      1.0  0.29050  0.27575  0.05674  1.0000
  C   C361      1.0  0.27993  0.99016  0.19105  1.0000
  C   C362      1.0  0.25193  0.94936  0.10291  1.0000
  C   C363      1.0  0.26963  0.30086  0.04333  1.0000
  C   C364      1.0  0.26760  0.98051  0.20040  1.0000
  C   C365      1.0  0.42839  0.08804  0.22273  1.0000
  H   H353      1.0  0.47688  0.05500  0.18677  1.0000
  N   N27       1.0  0.25767  0.05009  0.18519  1.0000
  C   C366      1.0  0.27751  0.26856  0.05451  1.0000
  C   C367      1.0  0.45743  0.46401  0.04341  1.0000
  H   H354      1.0  0.27103  0.54509  0.09620  1.0000
  H   H355      1.0  0.42779  0.11802  0.23078  1.0000
  H   H356      1.0  0.33099  0.95328  0.23219  1.0000
  S   S125      1.0  0.28655  0.47075  0.01266  1.0000
  H   H357      1.0  0.25760  0.54333  0.11596  1.0000
  S   S126      1.0  0.45582  0.93540  0.23627  1.0000
  N   N28       1.0  0.33689  0.60183  0.09053  1.0000
  C   C368      1.0  0.34524  0.59785  0.10537  1.0000
  C   C369      1.0  0.32868  0.64004  0.08687  1.0000
  H   H358      1.0  0.32658  0.56101  0.07539  1.0000
  C   C370      1.0  0.32838  0.67501  0.09865  1.0000
  H   H359      1.0  0.35144  0.62839  0.12971  1.0000
  C   C371      1.0  0.33685  0.56546  0.07816  1.0000
  H   H360      1.0  0.35185  0.56773  0.10814  1.0000
  H   H361      1.0  0.32192  0.64289  0.07529  1.0000
  C   C372      1.0  0.48654  0.49555  0.06577  1.0000
  H   H362      1.0  0.34113  0.53312  0.08552  1.0000
  H   H363      1.0  0.48894  0.40781  0.11221  1.0000
  C   C373      1.0  0.34516  0.63212  0.11749  1.0000
  H   H364      1.0  0.33815  0.83537  0.22127  1.0000
  C   C374      1.0  0.48070  0.43329  0.11094  1.0000
  H   H365      1.0  0.42101  0.09350  0.21144  1.0000
  C   C375      1.0  0.46711  0.06241  0.19429  1.0000
  C   C376      1.0  0.49087  0.41883  0.05926  1.0000
  H   H366      1.0  0.27050  0.08925  0.16522  1.0000
  H   H367      1.0  0.47538  0.39269  0.04648  1.0000
  H   H368      1.0  0.44795  0.02994  0.23636  1.0000
  S   S127      1.0  0.48264  0.69096  0.15551  1.0000
  C   C377      1.0  0.44540  0.10294  0.19516  1.0000
  H   H369      1.0  0.27338  0.23899  0.06206  1.0000
  N   N29       1.0  0.47039  0.46092  0.05122  1.0000
  H   H370      1.0  0.26749  0.38776  0.12668  1.0000
  N   N30       1.0  0.44178  0.07915  0.21299  1.0000
  H   H371      1.0  0.30247  0.44322  0.13798  1.0000
  C   C378      1.0  0.28101  0.02988  0.17862  1.0000
  C   C379      1.0  0.33660  0.67081  0.11415  1.0000
  H   H372      1.0  0.32143  0.70444  0.09631  1.0000
  H   H373      1.0  0.29657  0.25178  0.06600  1.0000
  H   H374      1.0  0.48191  0.75710  0.12016  1.0000
  H   H375      1.0  0.25640  0.92085  0.11200  1.0000
  C   C380      1.0  0.33397  0.84099  0.23626  1.0000
  C   C381      1.0  0.45071  0.04839  0.22206  1.0000
  C   C382      1.0  0.25649  0.01100  0.19725  1.0000
  C   C383      1.0  0.49491  0.45602  0.06624  1.0000
  H   H376      1.0  0.42556  0.05940  0.23353  1.0000
  H   H377      1.0  0.25942  0.29545  0.04224  1.0000
  H   H378      1.0  0.49715  0.38762  0.05998  1.0000
  H   H379      1.0  0.25313  0.35755  0.07884  1.0000
  C   C384      1.0  0.25380  0.01962  0.08270  1.0000
  H   H380      1.0  0.48896  0.50616  0.19344  1.0000
  H   H381      1.0  0.49126  0.46428  0.16379  1.0000
  H   H382      1.0  0.26735  0.40674  0.02680  1.0000
  H   H383      1.0  0.32604  0.92147  0.21382  1.0000
  H   H384      1.0  0.26941  0.37198  0.00662  1.0000
  C   C385      1.0  0.33270  0.92090  0.22587  1.0000
  H   H385      1.0  0.24974  0.01106  0.14294  1.0000
  Fe  Fe65      1.0  0.25005  0.10662  0.11718  1.0000
  N   N31       1.0  0.33045  0.88331  0.24111  1.0000
  H   H386      1.0  0.24813  0.11579  0.17895  1.0000
  H   H387      1.0  0.27694  0.01059  0.40352  1.0000
  Fe  Fe66      1.0  0.25521  0.81938  0.39879  1.0000
  S   S128      1.0  0.27685  0.82634  0.38965  1.0000
  H   H388      1.0  0.26607  0.02254  0.46537  1.0000
  H   H389      1.0  0.31731  0.85995  0.28886  1.0000
  S   S129      1.0  0.26848  0.93192  0.37873  1.0000
  H   H390      1.0  0.43288  0.83220  0.34480  1.0000
  Fe  Fe67      1.0  0.26979  0.87009  0.36260  1.0000
  S   S130      1.0  0.27733  0.87404  0.32889  1.0000
  Fe  Fe68      1.0  0.27362  0.88710  0.40671  1.0000
  S   S131      1.0  0.28844  0.90399  0.42771  1.0000
  H   H391      1.0  0.48467  0.91409  0.45782  1.0000
  H   H392      1.0  0.44083  0.88208  0.49518  1.0000
  Fe  Fe69      1.0  0.47501  0.90098  0.39725  1.0000
  C   C386      1.0  0.46803  0.81928  0.29288  1.0000
  S   S132      1.0  0.46338  0.90995  0.42773  1.0000
  Fe  Fe70      1.0  0.47115  0.92783  0.35199  1.0000
  Fe  Fe71      1.0  0.49061  0.84833  0.36475  1.0000
  S   S133      1.0  0.45505  0.94904  0.33034  1.0000
  C   C387      1.0  0.32452  0.89039  0.25974  1.0000
  H   H393      1.0  0.46852  0.80251  0.34329  1.0000
  H   H394      1.0  0.45116  0.84881  0.27759  1.0000
  H   H395      1.0  0.25352  0.00605  0.39817  1.0000
  S   S134      1.0  0.46884  0.86540  0.37294  1.0000
  S   S135      1.0  0.47566  0.96559  0.37692  1.0000
  N   N32       1.0  0.27284  0.01704  0.43471  1.0000
  C   C388      1.0  0.45387  0.82468  0.48778  1.0000
  C   C389      1.0  0.46264  0.80658  0.47265  1.0000
  C   C390      1.0  0.46541  0.83149  0.45393  1.0000
  C   C391      1.0  0.45931  0.87478  0.45006  1.0000
  C   C392      1.0  0.45034  0.89247  0.46506  1.0000
  C   C393      1.0  0.44770  0.86779  0.48382  1.0000
  H   H396      1.0  0.46741  0.77316  0.47549  1.0000
  H   H397      1.0  0.47234  0.81738  0.44261  1.0000
  H   H398      1.0  0.44554  0.92585  0.46226  1.0000
  H   H399      1.0  0.32132  0.92381  0.26346  1.0000
  C   C394      1.0  0.47956  0.92121  0.47217  1.0000
  C   C395      1.0  0.44361  0.95329  0.27388  1.0000
  C   C396      1.0  0.44378  0.95633  0.29456  1.0000
  C   C397      1.0  0.45560  0.94685  0.30401  1.0000
  C   C398      1.0  0.46733  0.93489  0.29240  1.0000
  C   C399      1.0  0.46719  0.93229  0.27169  1.0000
  H   H400      1.0  0.44343  0.87264  0.34970  1.0000
  H   H401      1.0  0.43465  0.96574  0.30337  1.0000
  H   H402      1.0  0.47650  0.92758  0.29939  1.0000
  S   S136      1.0  0.30138  0.76830  0.25388  1.0000
  H   H403      1.0  0.26520  0.93739  0.49334  1.0000
  C   C400      1.0  0.45534  0.94112  0.26230  1.0000
  N   N33       1.0  0.45175  0.83044  0.32793  1.0000
  C   C401      1.0  0.44695  0.84361  0.30976  1.0000
  S   S137      1.0  0.49654  0.78493  0.34997  1.0000
  H   H404      1.0  0.47633  0.92291  0.26291  1.0000
  C   C402      1.0  0.29840  0.93245  0.48177  1.0000
  C   C403      1.0  0.29891  0.92005  0.46213  1.0000
  C   C404      1.0  0.28731  0.91391  0.45354  1.0000
  C   C405      1.0  0.27521  0.91927  0.46522  1.0000
  C   C406      1.0  0.27468  0.93232  0.48474  1.0000
  H   H405      1.0  0.30739  0.93821  0.48779  1.0000
  H   H406      1.0  0.30835  0.91621  0.45330  1.0000
  H   H407      1.0  0.26619  0.91460  0.45899  1.0000
  H   H408      1.0  0.48313  0.79276  0.31246  1.0000
  C   C407      1.0  0.29438  0.79836  0.27438  1.0000
  C   C408      1.0  0.29450  0.77680  0.29404  1.0000
  C   C409      1.0  0.28946  0.79920  0.31083  1.0000
  C   C410      1.0  0.28407  0.84371  0.30828  1.0000
  C   C411      1.0  0.28411  0.86545  0.28863  1.0000
  C   C412      1.0  0.28920  0.84307  0.27182  1.0000
  H   H409      1.0  0.29862  0.74244  0.29631  1.0000
  H   H410      1.0  0.29000  0.78211  0.32572  1.0000
  H   H411      1.0  0.28006  0.89989  0.28636  1.0000
  N   N34       1.0  0.25729  0.73353  0.35878  1.0000
  H   H412      1.0  0.27192  0.73269  0.37905  1.0000
  C   C413      1.0  0.47292  0.80657  0.31147  1.0000
  H   H413      1.0  0.28886  0.05664  0.43219  1.0000
  C   C414      1.0  0.48014  0.88927  0.48885  1.0000
  H   H414      1.0  0.27030  0.78180  0.34632  1.0000
  H   H415      1.0  0.43697  0.85980  0.30894  1.0000
  H   H416      1.0  0.27465  0.68923  0.36249  1.0000
  H   H417      1.0  0.28872  0.01412  0.45333  1.0000
  H   H418      1.0  0.47444  0.81574  0.27920  1.0000
  H   H419      1.0  0.28907  0.86036  0.25688  1.0000
  Fe  Fe72      1.0  0.49705  0.94168  0.36967  1.0000
  S   S138      1.0  0.49256  0.90947  0.34302  1.0000
  C   C415      1.0  0.25176  0.79315  0.33342  1.0000
  C   C416      1.0  0.28624  0.93938  0.49317  1.0000
  H   H420      1.0  0.43441  0.96013  0.26696  1.0000
  H   H421      1.0  0.44664  0.81503  0.35934  1.0000
  C   C417      1.0  0.26337  0.01894  0.45057  1.0000
  C   C418      1.0  0.46459  0.81237  0.32894  1.0000
  C   C419      1.0  0.44326  0.83785  0.34634  1.0000
  C   C420      1.0  0.28664  0.02209  0.43738  1.0000
  C   C421      1.0  0.26705  0.70914  0.37157  1.0000
  C   C422      1.0  0.45494  0.83765  0.29198  1.0000
  C   C423      1.0  0.47157  0.96115  0.47369  1.0000
  H   H422      1.0  0.29347  0.99860  0.42877  1.0000
  H   H423      1.0  0.26233  0.68664  0.38377  1.0000
  H   H424      1.0  0.47056  0.98510  0.46054  1.0000
  C   C424      1.0  0.26071  0.76991  0.34621  1.0000
  C   C425      1.0  0.32233  0.85449  0.27426  1.0000
  S   S139      1.0  0.25251  0.87716  0.41717  1.0000
  H   H425      1.0  0.48590  0.85754  0.48728  1.0000
  H   H426      1.0  0.32418  0.78304  0.28041  1.0000
  C   C426      1.0  0.26943  0.01243  0.41608  1.0000
  C   C427      1.0  0.32622  0.81129  0.26956  1.0000
  S   S140      1.0  0.24828  0.85961  0.37105  1.0000
  C   C428      1.0  0.25625  0.00934  0.41298  1.0000
  S   S141      1.0  0.24978  0.75072  0.41208  1.0000
  S   S142      1.0  0.49679  0.87862  0.39083  1.0000
  C   C429      1.0  0.46452  0.96918  0.49196  1.0000
  H   H427      1.0  0.45813  0.99985  0.49325  1.0000
  C   C430      1.0  0.25014  0.01481  0.44809  1.0000
  H   H428      1.0  0.25452  0.82237  0.32367  1.0000
  H   H429      1.0  0.32434  0.86205  0.50026  1.0000
  Fe  Fe73      1.0  0.30360  0.30558  0.71290  1.0000
  S   S143      1.0  0.31652  0.35599  0.69617  1.0000
  S   S144      1.0  0.28470  0.96011  0.51719  1.0000
  Fe  Fe74      1.0  0.31027  0.24147  0.67916  1.0000
  S   S145      1.0  0.32364  0.28819  0.66116  1.0000
  S   S146      1.0  0.30552  0.17522  0.66884  1.0000
  Fe  Fe75      1.0  0.33124  0.29763  0.69038  1.0000
  S   S147      1.0  0.35344  0.29433  0.69311  1.0000
  Fe  Fe76      1.0  0.30774  0.34271  0.66867  1.0000
  S   S148      1.0  0.30287  0.39759  0.64392  1.0000
  S   S149      1.0  0.31890  0.24707  0.70842  1.0000
  S   S150      1.0  0.29385  0.29612  0.68525  1.0000
  S   S151      1.0  0.25682  0.71484  0.58559  1.0000
  H   H430      1.0  0.29281  0.47579  0.61951  1.0000
  Fe  Fe77      1.0  0.32147  0.92200  0.56557  1.0000
  S   S152      1.0  0.31610  0.98818  0.54819  1.0000
  S   S153      1.0  0.33992  0.87347  0.56194  1.0000
  Fe  Fe78      1.0  0.29402  0.92076  0.58833  1.0000
  S   S154      1.0  0.28682  0.98742  0.57284  1.0000
  S   S155      1.0  0.28212  0.87768  0.61172  1.0000
  Fe  Fe79      1.0  0.29684  0.96099  0.54432  1.0000
  Fe  Fe80      1.0  0.30661  0.00872  0.57830  1.0000
  S   S156      1.0  0.31138  0.07499  0.58871  1.0000
  S   S157      1.0  0.30290  0.89404  0.56015  1.0000
  S   S158      1.0  0.31311  0.94316  0.59542  1.0000
  Fe  Fe81      1.0  0.43984  0.39687  0.68938  1.0000
  S   S159      1.0  0.45005  0.45853  0.68878  1.0000
  S   S160      1.0  0.45189  0.32912  0.69067  1.0000
  Fe  Fe82      1.0  0.41246  0.44611  0.69801  1.0000
  S   S161      1.0  0.42098  0.51154  0.69876  1.0000
  S   S162      1.0  0.38983  0.44694  0.70245  1.0000
  Fe  Fe83      1.0  0.43368  0.49404  0.67108  1.0000
  S   S163      1.0  0.43938  0.54008  0.64264  1.0000
  Fe  Fe84      1.0  0.43672  0.47141  0.71656  1.0000
  H   H431      1.0  0.44207  0.04886  0.65562  1.0000
  S   S164      1.0  0.42447  0.43046  0.66936  1.0000
  S   S165      1.0  0.42715  0.40804  0.71810  1.0000
  Fe  Fe85      1.0  0.44075  0.81855  0.54009  1.0000
  S   S166      1.0  0.43580  0.89136  0.54186  1.0000
  H   H432      1.0  0.45867  0.55599  0.68391  1.0000
  Fe  Fe86      1.0  0.43320  0.79544  0.58528  1.0000
  S   S167      1.0  0.42837  0.86845  0.58972  1.0000
  S   S168      1.0  0.42967  0.74839  0.61435  1.0000
  Fe  Fe87      1.0  0.41777  0.87332  0.56185  1.0000
  S   S169      1.0  0.39908  0.92164  0.55929  1.0000
  Fe  Fe88      1.0  0.44679  0.88079  0.56945  1.0000
  S   S170      1.0  0.46208  0.93099  0.56696  1.0000
  S   S171      1.0  0.42170  0.80024  0.55807  1.0000
  S   S172      1.0  0.45252  0.80790  0.56708  1.0000
  C   C431      1.0  0.46853  0.95395  0.58636  1.0000
  C   C432      1.0  0.47701  0.98769  0.58114  1.0000
  C   C433      1.0  0.48247  0.00686  0.59595  1.0000
  C   C434      1.0  0.47957  0.99231  0.61619  1.0000
  C   C435      1.0  0.46558  0.93948  0.60660  1.0000
  H   H433      1.0  0.47939  0.99899  0.56552  1.0000
  N   N35       1.0  0.31662  0.82742  0.52755  1.0000
  H   H434      1.0  0.45913  0.91337  0.61080  1.0000
  C   C436      1.0  0.43072  0.68941  0.62043  1.0000
  C   C437      1.0  0.43800  0.65995  0.60804  1.0000
  C   C438      1.0  0.44004  0.61411  0.61478  1.0000
  C   C439      1.0  0.43479  0.59695  0.63390  1.0000
  C   C440      1.0  0.42704  0.62611  0.64594  1.0000
  C   C441      1.0  0.42508  0.67198  0.63927  1.0000
  H   H435      1.0  0.44241  0.67266  0.59353  1.0000
  H   H436      1.0  0.44601  0.59195  0.60526  1.0000
  H   H437      1.0  0.42281  0.61357  0.66059  1.0000
  H   H438      1.0  0.41939  0.69434  0.64897  1.0000
  C   C442      1.0  0.46103  0.30556  0.67010  1.0000
  C   C443      1.0  0.46899  0.26518  0.67373  1.0000
  C   C444      1.0  0.47632  0.24486  0.65786  1.0000
  C   C445      1.0  0.47567  0.26457  0.63815  1.0000
  C   C446      1.0  0.46772  0.30498  0.63451  1.0000
  C   C447      1.0  0.46047  0.32556  0.65043  1.0000
  H   H439      1.0  0.27765  0.24539  0.66308  1.0000
  C   C448      1.0  0.45831  0.11352  0.64237  1.0000
  H   H440      1.0  0.46714  0.32045  0.61931  1.0000
  H   H441      1.0  0.45437  0.35661  0.64744  1.0000
  C   C449      1.0  0.35641  0.88737  0.55953  1.0000
  C   C450      1.0  0.35938  0.93148  0.55585  1.0000
  C   C451      1.0  0.37260  0.94121  0.55494  1.0000
  C   C452      1.0  0.38293  0.90708  0.55789  1.0000
  C   C453      1.0  0.37997  0.86292  0.56112  1.0000
  C   C454      1.0  0.36677  0.85314  0.56183  1.0000
  H   H442      1.0  0.35152  0.95806  0.55380  1.0000
  H   H443      1.0  0.37483  0.97544  0.55232  1.0000
  H   H444      1.0  0.38784  0.83638  0.56341  1.0000
  H   H445      1.0  0.36457  0.81889  0.56458  1.0000
  C   C455      1.0  0.26433  0.75862  0.59327  1.0000
  C   C456      1.0  0.26667  0.75989  0.61320  1.0000
  C   C457      1.0  0.27265  0.79569  0.61858  1.0000
  C   C458      1.0  0.27612  0.83070  0.60416  1.0000
  C   C459      1.0  0.27388  0.82912  0.58422  1.0000
  C   C460      1.0  0.26804  0.79318  0.57881  1.0000
  H   H446      1.0  0.27443  0.79657  0.63403  1.0000
  H   H447      1.0  0.27634  0.85617  0.57303  1.0000
  H   H448      1.0  0.26616  0.79252  0.56339  1.0000
  C   C461      1.0  0.30814  0.14640  0.64674  1.0000
  C   C462      1.0  0.31523  0.16284  0.62903  1.0000
  C   C463      1.0  0.31641  0.13986  0.61176  1.0000
  C   C464      1.0  0.31046  0.10020  0.61170  1.0000
  C   C465      1.0  0.30352  0.08344  0.62948  1.0000
  C   C466      1.0  0.30241  0.10627  0.64678  1.0000
  H   H449      1.0  0.31978  0.19339  0.62863  1.0000
  H   H450      1.0  0.32191  0.15321  0.59825  1.0000
  H   H451      1.0  0.29887  0.05310  0.62988  1.0000
  H   H452      1.0  0.29693  0.09290  0.66032  1.0000
  C   C467      1.0  0.36328  0.33683  0.69669  1.0000
  C   C468      1.0  0.35774  0.37933  0.70078  1.0000
  C   C469      1.0  0.36602  0.41225  0.70294  1.0000
  C   C470      1.0  0.37990  0.40329  0.70089  1.0000
  C   C471      1.0  0.38542  0.36081  0.69681  1.0000
  C   C472      1.0  0.37714  0.32778  0.69483  1.0000
  H   H453      1.0  0.34711  0.38693  0.70215  1.0000
  H   H454      1.0  0.36166  0.44505  0.70604  1.0000
  H   H455      1.0  0.39606  0.35340  0.69515  1.0000
  H   H456      1.0  0.38154  0.29502  0.69169  1.0000
  C   C473      1.0  0.28746  0.43078  0.64549  1.0000
  C   C474      1.0  0.27744  0.42060  0.66051  1.0000
  C   C475      1.0  0.26517  0.44680  0.66110  1.0000
  C   C476      1.0  0.26283  0.48379  0.64690  1.0000
  C   C477      1.0  0.27287  0.49425  0.63192  1.0000
  C   C478      1.0  0.28511  0.46765  0.63117  1.0000
  H   H457      1.0  0.27911  0.39244  0.67165  1.0000
  H   H458      1.0  0.28462  0.80621  0.53011  1.0000
  H   H459      1.0  0.27118  0.52261  0.62088  1.0000
  C   C479      1.0  0.45087  0.03928  0.64538  1.0000
  C   C480      1.0  0.46254  0.37469  0.72966  1.0000
  H   H460      1.0  0.48243  0.21390  0.66089  1.0000
  H   H461      1.0  0.44146  0.57409  0.68190  1.0000
  H   H462      1.0  0.46251  0.11922  0.58478  1.0000
  S   S173      1.0  0.48567  0.01719  0.63534  1.0000
  H   H463      1.0  0.25110  0.47833  0.57375  1.0000
  H   H464      1.0  0.46947  0.24952  0.68890  1.0000
  H   H465      1.0  0.45497  0.05238  0.60529  1.0000
  C   C481      1.0  0.28033  0.23713  0.64791  1.0000
  C   C482      1.0  0.45688  0.08048  0.61267  1.0000
  C   C483      1.0  0.47748  0.41163  0.74656  1.0000
  H   H466      1.0  0.45993  0.94301  0.52260  1.0000
  H   H467      1.0  0.47738  0.83005  0.51969  1.0000
  S   S174      1.0  0.45116  0.79268  0.51143  1.0000
  N   N36       1.0  0.45438  0.62182  0.66951  1.0000
  C   C484      1.0  0.44910  0.66427  0.67220  1.0000
  C   C485      1.0  0.45135  0.69947  0.65733  1.0000
  C   C486      1.0  0.45107  0.58501  0.68461  1.0000
  Fe  Fe89      1.0  0.49773  0.17471  0.62208  1.0000
  H   H468      1.0  0.46881  0.37278  0.71527  1.0000
  C   C487      1.0  0.32569  0.85772  0.51651  1.0000
  H   H469      1.0  0.44271  0.67086  0.68559  1.0000
  H   H470      1.0  0.33487  0.32692  0.73028  1.0000
  C   C488      1.0  0.28124  0.18586  0.62309  1.0000
  C   C489      1.0  0.29226  0.20182  0.58933  1.0000
  H   H471      1.0  0.27909  0.15408  0.61914  1.0000
  H   H472      1.0  0.28517  0.21911  0.57888  1.0000
  H   H473      1.0  0.30238  0.21102  0.58416  1.0000
  H   H474      1.0  0.29264  0.16529  0.58868  1.0000
  N   N37       1.0  0.36596  0.42858  0.65286  1.0000
  C   C490      1.0  0.36511  0.38504  0.65044  1.0000
  C   C491      1.0  0.35476  0.45763  0.65455  1.0000
  C   C492      1.0  0.35277  0.36941  0.65003  1.0000
  C   C493      1.0  0.34227  0.44313  0.65414  1.0000
  C   C494      1.0  0.34130  0.39872  0.65186  1.0000
  C   C495      1.0  0.37896  0.44485  0.65271  1.0000
  H   H475      1.0  0.37395  0.36177  0.64940  1.0000
  H   H476      1.0  0.35545  0.49217  0.65640  1.0000
  H   H477      1.0  0.35211  0.33449  0.64884  1.0000
  H   H478      1.0  0.33336  0.46601  0.65562  1.0000
  H   H479      1.0  0.33166  0.38704  0.65164  1.0000
  H   H480      1.0  0.38652  0.41769  0.65772  1.0000
  H   H481      1.0  0.38229  0.45955  0.63744  1.0000
  H   H482      1.0  0.37861  0.47033  0.66333  1.0000
  N   N38       1.0  0.35288  0.97217  0.60150  1.0000
  C   C496      1.0  0.35108  0.92799  0.60550  1.0000
  C   C497      1.0  0.36535  0.98551  0.59934  1.0000
  C   C498      1.0  0.36193  0.89595  0.60781  1.0000
  C   C499      1.0  0.37642  0.95432  0.60154  1.0000
  C   C500      1.0  0.37466  0.90929  0.60581  1.0000
  C   C501      1.0  0.34138  0.00485  0.59831  1.0000
  H   H483      1.0  0.34127  0.91711  0.60630  1.0000
  H   H484      1.0  0.36686  0.02025  0.59538  1.0000
  H   H485      1.0  0.36050  0.86086  0.61024  1.0000
  H   H486      1.0  0.38635  0.96459  0.59895  1.0000
  H   H487      1.0  0.38322  0.88469  0.60660  1.0000
  H   H488      1.0  0.33800  0.00338  0.58332  1.0000
  H   H489      1.0  0.33307  0.99824  0.60989  1.0000
  H   H490      1.0  0.34363  0.03939  0.59922  1.0000
  C   C502      1.0  0.29478  0.80348  0.53382  1.0000
  C   C503      1.0  0.30387  0.82997  0.52264  1.0000
  S   S175      1.0  0.49735  0.12291  0.60101  1.0000
  H   H491      1.0  0.46725  0.18370  0.60145  1.0000
  H   H492      1.0  0.46891  0.94669  0.63704  1.0000
  C   C504      1.0  0.47371  0.86366  0.52404  1.0000
  H   H493      1.0  0.29007  0.29639  0.63836  1.0000
  H   H494      1.0  0.29181  0.75416  0.55918  1.0000
  C   C505      1.0  0.29880  0.77447  0.55018  1.0000
  H   H495      1.0  0.33058  0.79830  0.54801  1.0000
  H   H496      1.0  0.31490  0.75080  0.56818  1.0000
  H   H497      1.0  0.45031  0.59496  0.70002  1.0000
  C   C506      1.0  0.31177  0.77239  0.55519  1.0000
  S   S176      1.0  0.49732  0.12627  0.64982  1.0000
  H   H498      1.0  0.46015  0.71760  0.62752  1.0000
  C   C507      1.0  0.46115  0.11819  0.60096  1.0000
  H   H499      1.0  0.48008  0.87335  0.53482  1.0000
  C   C508      1.0  0.46385  0.15423  0.61028  1.0000
  H   H500      1.0  0.44815  0.01458  0.63607  1.0000
  H   H501      1.0  0.47654  0.43960  0.73504  1.0000
  H   H502      1.0  0.25746  0.43844  0.67274  1.0000
  N   N39       1.0  0.47074  0.37548  0.74613  1.0000
  N   N40       1.0  0.28829  0.21362  0.60967  1.0000
  C   C509      1.0  0.29129  0.25317  0.61487  1.0000
  H   H503      1.0  0.46475  0.17952  0.63847  1.0000
  C   C510      1.0  0.47114  0.95841  0.62143  1.0000
  H   H504      1.0  0.26394  0.73323  0.62443  1.0000
  H   H505      1.0  0.46964  0.64027  0.62281  1.0000
  H   H506      1.0  0.45747  0.11169  0.65857  1.0000
  S   S177      1.0  0.48423  0.23889  0.61770  1.0000
  C   C511      1.0  0.27722  0.19709  0.64243  1.0000
  C   C512      1.0  0.46178  0.61312  0.65208  1.0000
  C   C513      1.0  0.32061  0.79928  0.54367  1.0000
  H   H507      1.0  0.27221  0.17410  0.65337  1.0000
  C   C514      1.0  0.45896  0.69095  0.63959  1.0000
  C   C515      1.0  0.46247  0.15188  0.63111  1.0000
  H   H508      1.0  0.46523  0.57912  0.64938  1.0000
  H   H509      1.0  0.44666  0.73278  0.65902  1.0000
  N   N41       1.0  0.45541  0.07870  0.63311  1.0000
  C   C516      1.0  0.46427  0.64756  0.63694  1.0000
  S   S178      1.0  0.44699  0.49749  0.74087  1.0000
  H   H510      1.0  0.45892  0.02267  0.65436  1.0000
  H   H511      1.0  0.29690  0.27519  0.60429  1.0000
  C   C517      1.0  0.28741  0.26548  0.63408  1.0000
  S   S179      1.0  0.29098  0.32982  0.74066  1.0000
  H   H512      1.0  0.48895  0.03280  0.59169  1.0000
  H   H513      1.0  0.46368  0.86068  0.53171  1.0000
  H   H514      1.0  0.45552  0.40528  0.72841  1.0000
  H   H515      1.0  0.45652  0.34594  0.73192  1.0000
  H   H516      1.0  0.25398  0.86914  0.64868  1.0000
  H   H517      1.0  0.30055  0.85348  0.51036  1.0000
  H   H518      1.0  0.32384  0.89067  0.52238  1.0000
  N   N42       1.0  0.47305  0.89720  0.50662  1.0000
  C   C518      1.0  0.33157  0.33411  0.74547  1.0000
  H   H519      1.0  0.33621  0.84507  0.51826  1.0000
  H   H520      1.0  0.31551  0.38271  0.73691  1.0000
  C   C519      1.0  0.46548  0.93678  0.50843  1.0000
  C   C520      1.0  0.32084  0.36563  0.74914  1.0000
  H   H521      1.0  0.24880  0.47303  0.61094  1.0000
  H   H522      1.0  0.24788  0.86808  0.61442  1.0000
  H   H523      1.0  0.25554  0.54276  0.93050  1.0000
  Fe  Fe90      1.0  0.27552  0.35338  0.86046  1.0000
  C   C521      1.0  0.26481  0.52980  0.90138  1.0000
  S   S180      1.0  0.28881  0.31599  0.83673  1.0000
  Fe  Fe91      1.0  0.27605  0.39060  0.90209  1.0000
  H   H524      1.0  0.26287  0.22571  0.90385  1.0000
  S   S181      1.0  0.28996  0.39829  0.92624  1.0000
  H   H525      1.0  0.30691  0.53500  0.92375  1.0000
  H   H526      1.0  0.31814  0.32954  0.81529  1.0000
  Fe  Fe92      1.0  0.25883  0.43944  0.86965  1.0000
  H   H527      1.0  0.25298  0.24199  0.93760  1.0000
  S   S182      1.0  0.27283  0.32382  0.89296  1.0000
  S   S183      1.0  0.28065  0.41747  0.86971  1.0000
  C   C522      1.0  0.48505  0.41417  0.76242  1.0000
  S   S184      1.0  0.47020  0.45289  0.87432  1.0000
  H   H528      1.0  0.46202  0.52382  0.77043  1.0000
  H   H529      1.0  0.49094  0.38192  0.79079  1.0000
  S   S185      1.0  0.47915  0.34815  0.87201  1.0000
  Fe  Fe93      1.0  0.47711  0.40948  0.84974  1.0000
  S   S186      1.0  0.46571  0.39686  0.82363  1.0000
  Fe  Fe94      1.0  0.47385  0.39255  0.89651  1.0000
  S   S187      1.0  0.45816  0.37657  0.92231  1.0000
  S   S188      1.0  0.25462  0.41702  0.90241  1.0000
  H   H530      1.0  0.44536  0.46459  0.95006  1.0000
  C   C523      1.0  0.45965  0.36823  0.94852  1.0000
  C   C524      1.0  0.47176  0.36810  0.95649  1.0000
  C   C525      1.0  0.47237  0.36256  0.97743  1.0000
  C   C526      1.0  0.33352  0.32056  0.78103  1.0000
  C   C527      1.0  0.44883  0.35703  0.98266  1.0000
  C   C528      1.0  0.44823  0.36247  0.96173  1.0000
  H   H531      1.0  0.48062  0.37273  0.94656  1.0000
  H   H532      1.0  0.48177  0.36268  0.98345  1.0000
  C   C529      1.0  0.48567  0.37943  0.77788  1.0000
  H   H533      1.0  0.43880  0.36241  0.95575  1.0000
  C   C530      1.0  0.45949  0.42797  0.80184  1.0000
  C   C531      1.0  0.45129  0.40792  0.79079  1.0000
  C   C532      1.0  0.44709  0.42911  0.77243  1.0000
  H   H534      1.0  0.30827  0.42361  0.98830  1.0000
  C   C533      1.0  0.45896  0.49145  0.77609  1.0000
  C   C534      1.0  0.46317  0.47022  0.79447  1.0000
  H   H535      1.0  0.44831  0.37538  0.79635  1.0000
  C   C535      1.0  0.47143  0.34096  0.76108  1.0000
  C   C536      1.0  0.26477  0.53410  0.92171  1.0000
  H   H536      1.0  0.46946  0.48618  0.80272  1.0000
  S   S189      1.0  0.25410  0.50882  0.85377  1.0000
  C   C537      1.0  0.30081  0.50723  0.92903  1.0000
  H   H537      1.0  0.46292  0.45934  0.97303  1.0000
  H   H538      1.0  0.29917  0.50467  0.94565  1.0000
  H   H539      1.0  0.43669  0.50916  0.91915  1.0000
  C   C538      1.0  0.46464  0.47431  0.95769  1.0000
  H   H540      1.0  0.47073  0.52329  0.90259  1.0000
  C   C539      1.0  0.47694  0.48861  0.95057  1.0000
  C   C540      1.0  0.45471  0.47754  0.94465  1.0000
  N   N43       1.0  0.32293  0.35133  0.78448  1.0000
  C   C541      1.0  0.28760  0.44750  0.98927  1.0000
  C   C542      1.0  0.27618  0.45084  0.97886  1.0000
  C   C543      1.0  0.27653  0.43418  0.96009  1.0000
  C   C544      1.0  0.28840  0.41458  0.95114  1.0000
  C   C545      1.0  0.29976  0.41057  0.96172  1.0000
  C   C546      1.0  0.29937  0.42663  0.98063  1.0000
  H   H541      1.0  0.26698  0.46669  0.98533  1.0000
  H   H542      1.0  0.26767  0.43746  0.95231  1.0000
  H   H543      1.0  0.30902  0.39546  0.95509  1.0000
  C   C547      1.0  0.27671  0.52677  0.93063  1.0000
  C   C548      1.0  0.29011  0.32337  0.76746  1.0000
  C   C549      1.0  0.28127  0.35309  0.77810  1.0000
  C   C550      1.0  0.28051  0.35078  0.79922  1.0000
  C   C551      1.0  0.28854  0.31837  0.81013  1.0000
  C   C552      1.0  0.29729  0.28829  0.79951  1.0000
  C   C553      1.0  0.29811  0.29081  0.77837  1.0000
  H   H544      1.0  0.27499  0.37838  0.76990  1.0000
  H   H545      1.0  0.27376  0.37426  0.80704  1.0000
  H   H546      1.0  0.30354  0.26294  0.80771  1.0000
  H   H547      1.0  0.30493  0.26754  0.77051  1.0000
  C   C554      1.0  0.44642  0.49705  0.91172  1.0000
  C   C555      1.0  0.45103  0.47084  0.76480  1.0000
  H   H548      1.0  0.30852  0.37882  0.80628  1.0000
  H   H549      1.0  0.27660  0.53015  0.94645  1.0000
  H   H550      1.0  0.44088  0.41296  0.76412  1.0000
  H   H551      1.0  0.29755  0.49948  0.89118  1.0000
  C   C556      1.0  0.28840  0.50993  0.89978  1.0000
  H   H552      1.0  0.43994  0.35286  0.99261  1.0000
  H   H553      1.0  0.32560  0.38153  0.81031  1.0000
  H   H554      1.0  0.45729  0.27903  0.91596  1.0000
  C   C557      1.0  0.47813  0.27471  0.91967  1.0000
  H   H555      1.0  0.46079  0.23949  0.88534  1.0000
  H   H556      1.0  0.30639  0.47535  0.92519  1.0000
  H   H557      1.0  0.48375  0.21485  0.87188  1.0000
  N   N44       1.0  0.45688  0.49535  0.92517  1.0000
  C   C558      1.0  0.46890  0.50964  0.91809  1.0000
  H   H558      1.0  0.47890  0.31621  0.78957  1.0000
  H   H559      1.0  0.30811  0.39784  0.77148  1.0000
  H   H560      1.0  0.44834  0.51965  0.89777  1.0000
  N   N45       1.0  0.28830  0.51439  0.91970  1.0000
  H   H561      1.0  0.44580  0.46321  0.90747  1.0000
  Fe  Fe95      1.0  0.25151  0.35146  0.89182  1.0000
  S   S190      1.0  0.25385  0.37656  0.85893  1.0000
  C   C559      1.0  0.31865  0.36093  0.80506  1.0000
  H   H562      1.0  0.34632  0.28683  0.75872  1.0000
  C   C560      1.0  0.27671  0.51808  0.89029  1.0000
  C   C561      1.0  0.46918  0.24485  0.89305  1.0000
  C   C562      1.0  0.46720  0.26686  0.91024  1.0000
  C   C563      1.0  0.47910  0.50643  0.93065  1.0000
  H   H563      1.0  0.27682  0.51471  0.87447  1.0000
  H   H564      1.0  0.46588  0.31269  0.76092  1.0000
  C   C564      1.0  0.48204  0.23101  0.88551  1.0000
  C   C565      1.0  0.31667  0.37405  0.76882  1.0000
  H   H565      1.0  0.33851  0.30267  0.79343  1.0000
  C   C566      1.0  0.46092  0.35708  0.99065  1.0000
  Fe  Fe96      1.0  0.49181  0.46108  0.87571  1.0000
  H   H566      1.0  0.47650  0.29269  0.93277  1.0000
  C   C567      1.0  0.33799  0.31144  0.76149  1.0000
  C   C568      1.0  0.25631  0.20342  0.91253  1.0000
  C   C569      1.0  0.25077  0.21249  0.93154  1.0000
  H   H567      1.0  0.48990  0.44375  0.76319  1.0000
  C   C570      1.0  0.47886  0.34250  0.77721  1.0000
  H   H568      1.0  0.48867  0.51729  0.92483  1.0000
  H   H569      1.0  0.48483  0.48537  0.96037  1.0000
  H   H570      1.0  0.25563  0.53514  0.89420  1.0000
  C   C571      1.0  0.49275  0.23946  0.89532  1.0000
  N   N46       1.0  0.49069  0.26088  0.91224  1.0000
  H   H571      1.0  0.25688  0.16005  0.88942  1.0000
  S   S191      1.0  0.49488  0.40320  0.89923  1.0000
  C   C572      1.0  0.25292  0.16665  0.90442  1.0000
  S   S192      1.0  0.49631  0.53000  0.88142  1.0000
  Fe  Fe97      1.0  0.52051  0.63017  0.10390  1.0000
  C   C573      1.0  0.56057  0.70645  0.04819  1.0000
  S   S193      1.0  0.53488  0.64116  0.07557  1.0000
  Fe  Fe98      1.0  0.52381  0.59447  0.14864  1.0000
  H   H572      1.0  0.56033  0.69005  0.06340  1.0000
  S   S194      1.0  0.53922  0.57030  0.17115  1.0000
  C   C574      1.0  0.51250  0.45402  0.16278  1.0000
  C   C575      1.0  0.57545  0.62554  0.21313  1.0000
  H   H573      1.0  0.54862  0.70004  0.22141  1.0000
  C   C576      1.0  0.55806  0.68070  0.22355  1.0000
  S   S195      1.0  0.52560  0.56236  0.12005  1.0000
  S   S196      1.0  0.52029  0.66312  0.13242  1.0000
  H   H574      1.0  0.53348  0.45169  0.16492  1.0000
  S   S197      1.0  0.71874  0.72126  0.11095  1.0000
  H   H575      1.0  0.55870  0.64985  0.19634  1.0000
  N   N47       1.0  0.50972  0.50060  0.19618  1.0000
  S   S198      1.0  0.72838  0.61614  0.11964  1.0000
  H   H576      1.0  0.53081  0.49211  0.19483  1.0000
  Fe  Fe99      1.0  0.72467  0.66438  0.09203  1.0000
  S   S199      1.0  0.71178  0.66474  0.06564  1.0000
  Fe  Fe100     1.0  0.72422  0.67472  0.13805  1.0000
  S   S200      1.0  0.71197  0.66211  0.16853  1.0000
  H   H577      1.0  0.71642  0.53075  0.02894  1.0000
  H   H578      1.0  0.69019  0.71137  0.08872  1.0000
  C   C577      1.0  0.70374  0.73217  0.22685  1.0000
  H   H579      1.0  0.51650  0.73629  0.01860  1.0000
  H   H580      1.0  0.69825  0.59456  0.15358  1.0000
  C   C578      1.0  0.68501  0.70289  0.10379  1.0000
  N   N48       1.0  0.58155  0.62770  0.23005  1.0000
  C   C579      1.0  0.71229  0.56502  0.02919  1.0000
  C   C580      1.0  0.71488  0.58894  0.04486  1.0000
  C   C581      1.0  0.70948  0.63312  0.04569  1.0000
  C   C582      1.0  0.70159  0.65293  0.03041  1.0000
  C   C583      1.0  0.69920  0.62927  0.01454  1.0000
  C   C584      1.0  0.56433  0.68256  0.24076  1.0000
  H   H581      1.0  0.72092  0.57294  0.05642  1.0000
  H   H582      1.0  0.69730  0.68700  0.03081  1.0000
  H   H583      1.0  0.69478  0.55450  0.09553  1.0000
  C   C585      1.0  0.70445  0.58488  0.01385  1.0000
  C   C586      1.0  0.71129  0.75148  0.21003  1.0000
  C   C587      1.0  0.71403  0.73053  0.19222  1.0000
  C   C588      1.0  0.70917  0.68989  0.19083  1.0000
  C   C589      1.0  0.70166  0.67051  0.20767  1.0000
  C   C590      1.0  0.69899  0.69131  0.22553  1.0000
  H   H584      1.0  0.71504  0.78301  0.21075  1.0000
  H   H585      1.0  0.71980  0.74612  0.17951  1.0000
  H   H586      1.0  0.69780  0.63917  0.20690  1.0000
  C   C591      1.0  0.56007  0.74397  0.00878  1.0000
  C   C592      1.0  0.69685  0.56906  0.12548  1.0000
  H   H587      1.0  0.59774  0.58052  0.22123  1.0000
  H   H588      1.0  0.69111  0.85251  0.24119  1.0000
  H   H589      1.0  0.57946  0.60244  0.20249  1.0000
  C   C593      1.0  0.59368  0.59884  0.23413  1.0000
  H   H590      1.0  0.54367  0.78860  0.01958  1.0000
  H   H591      1.0  0.51358  0.43706  0.14937  1.0000
  C   C594      1.0  0.54004  0.59562  0.23713  1.0000
  C   C595      1.0  0.53026  0.61872  0.22548  1.0000
  C   C596      1.0  0.52984  0.61143  0.20533  1.0000
  C   C597      1.0  0.53916  0.58058  0.19656  1.0000
  C   C598      1.0  0.54885  0.55702  0.20826  1.0000
  C   C599      1.0  0.54930  0.56442  0.22842  1.0000
  H   H592      1.0  0.52304  0.64292  0.23204  1.0000
  H   H593      1.0  0.52235  0.62997  0.19654  1.0000
  H   H594      1.0  0.55610  0.53296  0.20166  1.0000
  H   H595      1.0  0.55683  0.54622  0.23718  1.0000
  Fe  Fe101     1.0  0.74023  0.73407  0.10646  1.0000
  C   C600      1.0  0.52343  0.70822  0.02313  1.0000
  C   C601      1.0  0.52310  0.69076  0.04350  1.0000
  C   C602      1.0  0.53244  0.65600  0.04978  1.0000
  C   C603      1.0  0.54165  0.63757  0.03525  1.0000
  C   C604      1.0  0.54187  0.65465  0.01486  1.0000
  H   H596      1.0  0.66904  0.89428  0.24755  1.0000
  H   H597      1.0  0.51608  0.70579  0.05447  1.0000
  H   H598      1.0  0.54896  0.61086  0.03992  1.0000
  N   N49       1.0  0.56904  0.70839  0.01357  1.0000
  C   C605      1.0  0.52206  0.48528  0.18840  1.0000
  H   H599      1.0  0.67416  0.70751  0.10270  1.0000
  H   H600      1.0  0.54920  0.64071  0.00401  1.0000
  C   C606      1.0  0.69577  0.60238  0.13822  1.0000
  H   H601      1.0  0.49999  0.51864  0.22393  1.0000
  H   H602      1.0  0.68762  0.72682  0.11358  1.0000
  H   H603      1.0  0.69133  0.67210  0.14084  1.0000
  Fe  Fe102     1.0  0.50374  0.55726  0.12457  1.0000
  S   S201      1.0  0.50236  0.58387  0.15437  1.0000
  H   H604      1.0  0.69315  0.67591  0.23820  1.0000
  H   H605      1.0  0.70021  0.53504  0.13084  1.0000
  C   C607      1.0  0.56931  0.68938  0.03296  1.0000
  C   C608      1.0  0.52365  0.46211  0.17151  1.0000
  H   H606      1.0  0.68749  0.63232  0.08353  1.0000
  H   H607      1.0  0.60142  0.61889  0.23767  1.0000
  N   N50       1.0  0.68909  0.65676  0.11140  1.0000
  C   C609      1.0  0.68972  0.62408  0.09899  1.0000
  C   C610      1.0  0.69187  0.64635  0.13089  1.0000
  C   C611      1.0  0.69380  0.57990  0.10572  1.0000
  C   C612      1.0  0.53300  0.69101  0.00875  1.0000
  H   H608      1.0  0.50429  0.45395  0.07269  1.0000
  C   C613      1.0  0.55118  0.76184  0.02363  1.0000
  C   C614      1.0  0.55143  0.74279  0.04344  1.0000
  H   H609      1.0  0.54413  0.75471  0.05496  1.0000
  C   C615      1.0  0.57620  0.65590  0.24372  1.0000
  C   C616      1.0  0.56371  0.65241  0.20951  1.0000
  H   H610      1.0  0.58670  0.66943  0.00320  1.0000
  S   S202      1.0  0.70040  0.76108  0.24880  1.0000
  H   H611      1.0  0.57597  0.65989  0.03666  1.0000
  H   H612      1.0  0.51736  0.52480  0.22076  1.0000
  S   S203      1.0  0.74488  0.80501  0.09573  1.0000
  S   S204      1.0  0.74586  0.67978  0.08654  1.0000
  C   C617      1.0  0.49994  0.46924  0.17095  1.0000
  H   H613      1.0  0.73620  0.59070  0.18876  1.0000
  H   H614      1.0  0.74090  0.59758  0.16220  1.0000
  H   H615      1.0  0.59164  0.57419  0.24732  1.0000
  S   S205      1.0  0.74527  0.69147  0.13479  1.0000
  C   C618      1.0  0.50824  0.52821  0.21278  1.0000
  H   H616      1.0  0.50621  0.56376  0.20687  1.0000
  C   C619      1.0  0.49872  0.49285  0.18769  1.0000
  Fe  Fe103     1.0  0.49865  0.65142  0.13693  1.0000
  C   C620      1.0  0.74374  0.60326  0.17704  1.0000
  H   H617      1.0  0.74337  0.63970  0.17771  1.0000
  H   H618      1.0  0.74668  0.95264  0.11080  1.0000
  S   S206      1.0  0.49797  0.48933  0.11967  1.0000
  S   S207      1.0  0.49850  0.62360  0.10723  1.0000
  H   H619      1.0  0.69317  0.64525  0.00296  1.0000
  H   H620      1.0  0.72771  0.64503  0.00529  1.0000
  Fe  Fe104     1.0  0.55492  0.59005  0.28627  1.0000
  S   S208      1.0  0.56383  0.64877  0.29496  1.0000
  H   H621      1.0  0.64291  0.63881  0.37087  1.0000
  Fe  Fe105     1.0  0.56827  0.52521  0.31878  1.0000
  S   S209      1.0  0.57815  0.57979  0.32909  1.0000
  S   S210      1.0  0.57487  0.45613  0.33416  1.0000
  Fe  Fe106     1.0  0.55848  0.62065  0.32662  1.0000
  S   S211      1.0  0.55107  0.66187  0.35213  1.0000
  Fe  Fe107     1.0  0.58273  0.60338  0.29673  1.0000
  S   S212      1.0  0.60296  0.62015  0.28171  1.0000
  S   S213      1.0  0.54824  0.56483  0.31833  1.0000
  S   S214      1.0  0.57419  0.54613  0.28605  1.0000
  Fe  Fe108     1.0  0.55459  0.24679  0.41412  1.0000
  S   S215      1.0  0.56053  0.18070  0.40202  1.0000
  S   S216      1.0  0.54689  0.31283  0.39673  1.0000
  Fe  Fe109     1.0  0.55542  0.20343  0.45819  1.0000
  S   S217      1.0  0.56206  0.13535  0.44897  1.0000
  H   H622      1.0  0.52278  0.22977  0.47413  1.0000
  Fe  Fe110     1.0  0.57553  0.17053  0.42507  1.0000
  S   S218      1.0  0.59622  0.14146  0.41384  1.0000
  Fe  Fe111     1.0  0.54669  0.15037  0.42678  1.0000
  S   S219      1.0  0.53080  0.10211  0.42907  1.0000
  S   S220      1.0  0.57017  0.23808  0.43598  1.0000
  S   S221      1.0  0.53953  0.21708  0.43712  1.0000
  Fe  Fe112     1.0  0.66486  0.73579  0.30914  1.0000
  S   S222      1.0  0.67544  0.79494  0.29556  1.0000
  S   S223      1.0  0.64241  0.73648  0.31507  1.0000
  Fe  Fe113     1.0  0.69051  0.68175  0.31952  1.0000
  S   S224      1.0  0.70298  0.73679  0.30691  1.0000
  S   S225      1.0  0.69624  0.60936  0.33068  1.0000
  Fe  Fe114     1.0  0.68728  0.78311  0.32257  1.0000
  S   S226      1.0  0.69314  0.84385  0.33649  1.0000
  Fe  Fe115     1.0  0.69041  0.74512  0.28082  1.0000
  H   H623      1.0  0.73880  0.13476  0.41676  1.0000
  S   S227      1.0  0.67579  0.72667  0.33692  1.0000
  S   S228      1.0  0.67882  0.68742  0.29263  1.0000
  Fe  Fe116     1.0  0.69477  0.11880  0.41715  1.0000
  S   S229      1.0  0.70574  0.05342  0.42796  1.0000
  S   S230      1.0  0.70371  0.16892  0.39340  1.0000
  Fe  Fe117     1.0  0.66985  0.09977  0.44387  1.0000
  S   S231      1.0  0.67922  0.03371  0.45701  1.0000
  S   S232      1.0  0.64956  0.12875  0.45601  1.0000
  Fe  Fe118     1.0  0.69713  0.06987  0.45896  1.0000
  H   H624      1.0  0.53797  0.72278  0.37896  1.0000
  Fe  Fe119     1.0  0.68684  0.02303  0.42483  1.0000
  S   S233      1.0  0.68231  0.95808  0.41285  1.0000
  S   S234      1.0  0.68719  0.13638  0.44777  1.0000
  S   S235      1.0  0.67647  0.08799  0.41211  1.0000
  C   C621      1.0  0.72654  0.27920  0.40973  1.0000
  C   C622      1.0  0.72675  0.27088  0.38979  1.0000
  C   C623      1.0  0.71967  0.23704  0.38494  1.0000
  C   C624      1.0  0.71255  0.21093  0.39997  1.0000
  C   C625      1.0  0.71231  0.21950  0.41986  1.0000
  C   C626      1.0  0.71910  0.25390  0.42464  1.0000
  H   H625      1.0  0.52265  0.15707  0.46239  1.0000
  H   H626      1.0  0.71984  0.23078  0.36947  1.0000
  H   H627      1.0  0.70680  0.19995  0.43156  1.0000
  C   C627      1.0  0.68984  0.87513  0.35792  1.0000
  C   C628      1.0  0.69634  0.91362  0.35818  1.0000
  C   C629      1.0  0.69411  0.93954  0.37457  1.0000
  C   C630      1.0  0.68539  0.92732  0.39125  1.0000
  C   C631      1.0  0.67886  0.88891  0.39096  1.0000
  C   C632      1.0  0.68100  0.86322  0.37448  1.0000
  H   H628      1.0  0.70329  0.92336  0.34567  1.0000
  H   H629      1.0  0.69930  0.96865  0.37441  1.0000
  H   H630      1.0  0.67214  0.87866  0.40368  1.0000
  H   H631      1.0  0.67590  0.83385  0.37475  1.0000
  C   C633      1.0  0.70928  0.59067  0.34583  1.0000
  C   C634      1.0  0.71731  0.62003  0.35178  1.0000
  C   C635      1.0  0.72806  0.60344  0.36292  1.0000
  C   C636      1.0  0.73092  0.55747  0.36801  1.0000
  C   C637      1.0  0.72284  0.52816  0.36217  1.0000
  C   C638      1.0  0.71200  0.54477  0.35126  1.0000
  H   H632      1.0  0.71529  0.65545  0.34773  1.0000
  C   C639      1.0  0.63665  0.60892  0.33313  1.0000
  H   H633      1.0  0.72491  0.49274  0.36609  1.0000
  H   H634      1.0  0.70580  0.52186  0.34675  1.0000
  C   C640      1.0  0.61105  0.14235  0.42514  1.0000
  C   C641      1.0  0.61101  0.15398  0.44453  1.0000
  C   C642      1.0  0.62295  0.15049  0.45360  1.0000
  C   C643      1.0  0.63500  0.13522  0.44343  1.0000
  C   C644      1.0  0.63508  0.12424  0.42390  1.0000
  C   C645      1.0  0.62315  0.12783  0.41483  1.0000
  H   H635      1.0  0.60176  0.16505  0.45264  1.0000
  H   H636      1.0  0.62279  0.15909  0.46871  1.0000
  H   H637      1.0  0.64425  0.11207  0.41594  1.0000
  H   H638      1.0  0.62324  0.11867  0.39982  1.0000
  C   C646      1.0  0.66354  0.20249  0.40629  1.0000
  C   C647      1.0  0.52971  0.04178  0.37829  1.0000
  C   C648      1.0  0.53347  0.06844  0.39204  1.0000
  C   C649      1.0  0.52649  0.06968  0.41095  1.0000
  C   C650      1.0  0.51576  0.04394  0.41590  1.0000
  C   C651      1.0  0.51197  0.01746  0.40213  1.0000
  H   H639      1.0  0.63327  0.67746  0.35398  1.0000
  H   H640      1.0  0.54172  0.08811  0.38799  1.0000
  H   H641      1.0  0.51028  0.04469  0.43045  1.0000
  C   C652      1.0  0.56666  0.41498  0.35025  1.0000
  C   C653      1.0  0.57428  0.37745  0.35887  1.0000
  C   C654      1.0  0.56838  0.34502  0.37258  1.0000
  C   C655      1.0  0.55472  0.34963  0.37781  1.0000
  C   C656      1.0  0.54705  0.38663  0.36882  1.0000
  C   C657      1.0  0.55297  0.41915  0.35516  1.0000
  H   H642      1.0  0.58487  0.37366  0.35510  1.0000
  H   H643      1.0  0.57442  0.31683  0.37934  1.0000
  H   H644      1.0  0.53647  0.39038  0.37264  1.0000
  H   H645      1.0  0.54694  0.44753  0.34854  1.0000
  C   C658      1.0  0.61381  0.65250  0.29125  1.0000
  C   C659      1.0  0.62682  0.65402  0.28214  1.0000
  C   C660      1.0  0.63574  0.67934  0.28925  1.0000
  C   C661      1.0  0.63165  0.70416  0.30532  1.0000
  C   C662      1.0  0.61861  0.70294  0.31430  1.0000
  C   C663      1.0  0.60978  0.67691  0.30747  1.0000
  H   H646      1.0  0.63003  0.63539  0.26954  1.0000
  H   H647      1.0  0.64572  0.68001  0.28216  1.0000
  H   H648      1.0  0.61531  0.72219  0.32668  1.0000
  H   H649      1.0  0.59980  0.67630  0.31456  1.0000
  C   C664      1.0  0.53572  0.69500  0.35176  1.0000
  C   C665      1.0  0.52757  0.69487  0.33641  1.0000
  C   C666      1.0  0.51553  0.72229  0.33626  1.0000
  C   C667      1.0  0.51166  0.75073  0.35120  1.0000
  C   C668      1.0  0.51982  0.75095  0.36657  1.0000
  C   C669      1.0  0.53174  0.72274  0.36696  1.0000
  H   H650      1.0  0.53049  0.67347  0.32468  1.0000
  H   H651      1.0  0.50922  0.72167  0.32441  1.0000
  H   H652      1.0  0.66361  0.93017  0.27883  1.0000
  N   N51       1.0  0.53795  0.86562  0.35864  1.0000
  C   C670      1.0  0.54727  0.83009  0.35644  1.0000
  C   C671      1.0  0.52796  0.87434  0.34632  1.0000
  C   C672      1.0  0.54665  0.80209  0.34164  1.0000
  C   C673      1.0  0.52692  0.84667  0.33159  1.0000
  C   C674      1.0  0.53636  0.81041  0.32923  1.0000
  C   C675      1.0  0.53862  0.89512  0.37407  1.0000
  H   H653      1.0  0.55516  0.82284  0.36625  1.0000
  H   H654      1.0  0.52067  0.90270  0.34798  1.0000
  H   H655      1.0  0.55380  0.77310  0.34028  1.0000
  H   H656      1.0  0.51866  0.85279  0.32239  1.0000
  H   H657      1.0  0.53548  0.78797  0.31822  1.0000
  H   H658      1.0  0.52895  0.89880  0.38329  1.0000
  C   C676      1.0  0.73148  0.13732  0.44758  1.0000
  C   C677      1.0  0.67067  0.26231  0.44865  1.0000
  H   H659      1.0  0.52491  0.07599  0.47145  1.0000
  H   H660      1.0  0.72983  0.60065  0.31056  1.0000
  H   H661      1.0  0.65029  0.68322  0.35476  1.0000
  H   H662      1.0  0.58103  0.65732  0.25716  1.0000
  H   H663      1.0  0.73818  0.21461  0.47643  1.0000
  H   H664      1.0  0.65892  0.17549  0.41618  1.0000
  H   H665      1.0  0.51686  0.77239  0.37826  1.0000
  C   C678      1.0  0.67337  0.91286  0.27591  1.0000
  C   C679      1.0  0.73887  0.15202  0.42989  1.0000
  N   N52       1.0  0.68253  0.91020  0.28952  1.0000
  C   C680      1.0  0.65283  0.57118  0.31069  1.0000
  H   H666      1.0  0.72540  0.14904  0.47814  1.0000
  C   C681      1.0  0.66278  0.58995  0.31844  1.0000
  S   S236      1.0  0.51470  0.98280  0.36545  1.0000
  H   H667      1.0  0.72125  0.53111  0.30433  1.0000
  N   N53       1.0  0.62275  0.02007  0.43013  1.0000
  C   C682      1.0  0.62732  0.02974  0.44729  1.0000
  C   C683      1.0  0.63119  0.00021  0.41598  1.0000
  C   C684      1.0  0.64071  0.01993  0.45049  1.0000
  C   C685      1.0  0.64463  0.98971  0.41877  1.0000
  C   C686      1.0  0.64936  0.99960  0.43616  1.0000
  C   C687      1.0  0.60868  0.02980  0.42697  1.0000
  H   H668      1.0  0.62072  0.04640  0.45833  1.0000
  H   H669      1.0  0.62757  0.99260  0.40238  1.0000
  H   H670      1.0  0.64439  0.02900  0.46379  1.0000
  H   H671      1.0  0.65141  0.97413  0.40755  1.0000
  H   H672      1.0  0.65975  0.99163  0.43842  1.0000
  H   H673      1.0  0.60746  0.04709  0.41170  1.0000
  H   H674      1.0  0.60379  0.99863  0.42889  1.0000
  H   H675      1.0  0.60339  0.05257  0.43757  1.0000
  H   H676      1.0  0.54633  0.88242  0.38433  1.0000
  C   C688      1.0  0.51536  0.22035  0.48670  1.0000
  S   S237      1.0  0.71112  0.06669  0.48410  1.0000
  H   H677      1.0  0.67108  0.18631  0.39562  1.0000
  N   N54       1.0  0.51667  0.17213  0.49227  1.0000
  C   C689      1.0  0.73089  0.52978  0.30990  1.0000
  H   H678      1.0  0.67307  0.58298  0.31286  1.0000
  H   H679      1.0  0.73453  0.45823  0.31209  1.0000
  C   C690      1.0  0.63967  0.58042  0.31816  1.0000
  H   H680      1.0  0.68548  0.30782  0.44813  1.0000
  H   H681      1.0  0.66721  0.63275  0.33930  1.0000
  S   S238      1.0  0.74487  0.53798  0.38118  1.0000
  C   C691      1.0  0.68091  0.28664  0.43961  1.0000
  C   C692      1.0  0.69793  0.86579  0.26879  1.0000
  H   H682      1.0  0.70172  0.88284  0.29743  1.0000
  C   C693      1.0  0.51893  0.01628  0.38321  1.0000
  H   H683      1.0  0.71879  0.26042  0.44009  1.0000
  H   H684      1.0  0.68788  0.93571  0.31541  1.0000
  C   C694      1.0  0.65939  0.61834  0.33338  1.0000
  H   H685      1.0  0.65575  0.22255  0.39783  1.0000
  C   C695      1.0  0.73828  0.48900  0.31438  1.0000
  N   N55       1.0  0.66965  0.23092  0.41793  1.0000
  C   C696      1.0  0.73122  0.15989  0.46442  1.0000
  C   C697      1.0  0.67959  0.25500  0.40889  1.0000
  C   C698      1.0  0.52168  0.09795  0.48294  1.0000
  H   H686      1.0  0.65699  0.21627  0.44456  1.0000
  H   H687      1.0  0.66715  0.26448  0.46425  1.0000
  H   H688      1.0  0.54073  0.92876  0.36693  1.0000
  H   H689      1.0  0.68333  0.25167  0.39345  1.0000
  H   H690      1.0  0.51737  0.23834  0.49926  1.0000
  H   H691      1.0  0.69335  0.30182  0.41239  1.0000
  H   H692      1.0  0.65529  0.54970  0.29887  1.0000
  C   C699      1.0  0.66501  0.23484  0.43745  1.0000
  H   H693      1.0  0.72585  0.10889  0.44819  1.0000
  C   C700      1.0  0.64306  0.65812  0.35585  1.0000
  C   C701      1.0  0.69464  0.88658  0.28628  1.0000
  H   H694      1.0  0.70737  0.84591  0.26648  1.0000
  C   C702      1.0  0.68530  0.28339  0.41954  1.0000
  H   H695      1.0  0.62637  0.61665  0.33855  1.0000
  H   H696      1.0  0.63180  0.56659  0.31207  1.0000
  N   N56       1.0  0.55418  0.46894  0.39423  1.0000
  C   C703      1.0  0.54064  0.47391  0.39631  1.0000
  C   C704      1.0  0.56104  0.50051  0.38279  1.0000
  C   C705      1.0  0.53361  0.51123  0.38671  1.0000
  C   C706      1.0  0.55432  0.53852  0.37328  1.0000
  C   C707      1.0  0.54054  0.54385  0.37522  1.0000
  C   C708      1.0  0.56144  0.43086  0.40514  1.0000
  H   H697      1.0  0.53520  0.44860  0.40519  1.0000
  H   H698      1.0  0.57176  0.49618  0.38077  1.0000
  H   H699      1.0  0.52288  0.51484  0.38817  1.0000
  H   H700      1.0  0.55975  0.56380  0.36442  1.0000
  H   H701      1.0  0.53529  0.57325  0.36777  1.0000
  H   H702      1.0  0.57037  0.41838  0.39578  1.0000
  H   H703      1.0  0.56447  0.44061  0.41915  1.0000
  H   H704      1.0  0.55532  0.40246  0.40903  1.0000
  N   N57       1.0  0.64644  0.62819  0.34023  1.0000
  S   S239      1.0  0.54039  0.60830  0.26211  1.0000
  C   C709      1.0  0.73840  0.19659  0.46346  1.0000
  C   C710      1.0  0.67896  0.93060  0.30818  1.0000
  C   C711      1.0  0.67636  0.89267  0.25822  1.0000
  C   C712      1.0  0.52046  0.14404  0.47789  1.0000
  H   H705      1.0  0.67301  0.90838  0.31894  1.0000
  S   S240      1.0  0.54934  0.22272  0.48990  1.0000
  S   S241      1.0  0.73598  0.31849  0.41721  1.0000
  H   H706      1.0  0.73242  0.29022  0.37817  1.0000
  H   H707      1.0  0.53514  0.04125  0.36368  1.0000
  C   C713      1.0  0.73573  0.56894  0.31337  1.0000
  H   H708      1.0  0.55229  0.12613  0.50111  1.0000
  H   H709      1.0  0.67319  0.96354  0.30544  1.0000
  H   H710      1.0  0.73424  0.62633  0.36748  1.0000
  C   C714      1.0  0.68875  0.86919  0.25464  1.0000
  H   H711      1.0  0.50529  0.23173  0.48217  1.0000
  C   C715      1.0  0.74570  0.21040  0.44553  1.0000
  H   H712      1.0  0.50365  0.99811  0.40613  1.0000
  N   N58       1.0  0.74574  0.18842  0.42899  1.0000
  S   S242      1.0  0.74765  0.40895  0.36944  1.0000
  H   H713      1.0  0.55982  0.70353  0.25203  1.0000
  H   H714      1.0  0.53654  0.22703  0.73816  1.0000
  S   S243      1.0  0.51991  0.17326  0.61819  1.0000
  S   S244      1.0  0.74198  0.12455  0.58854  1.0000
  C   C716      1.0  0.55423  0.10984  0.62618  1.0000
  S   S245      1.0  0.52099  0.06502  0.62581  1.0000
  C   C717      1.0  0.51354  0.15543  0.51170  1.0000
  Fe  Fe120     1.0  0.51958  0.12125  0.64512  1.0000
  S   S246      1.0  0.53291  0.13354  0.66895  1.0000
  Fe  Fe121     1.0  0.51954  0.11759  0.59922  1.0000
  S   S247      1.0  0.53198  0.10141  0.57024  1.0000
  H   H715      1.0  0.55594  0.99827  0.63963  1.0000
  H   H716      1.0  0.68817  0.10316  0.50969  1.0000
  H   H717      1.0  0.67940  0.24691  0.70706  1.0000
  S   S248      1.0  0.72214  0.20225  0.61056  1.0000
  H   H718      1.0  0.51259  0.09648  0.53285  1.0000
  C   C718      1.0  0.67183  0.30615  0.73327  1.0000
  S   S249      1.0  0.71888  0.09842  0.62339  1.0000
  H   H719      1.0  0.55802  0.07131  0.58117  1.0000
  Fe  Fe122     1.0  0.72021  0.14261  0.59422  1.0000
  S   S250      1.0  0.70555  0.13825  0.57085  1.0000
  Fe  Fe123     1.0  0.72293  0.15555  0.63950  1.0000
  S   S251      1.0  0.71212  0.15032  0.67144  1.0000
  H   H720      1.0  0.70163  0.05307  0.59676  1.0000
  H   H721      1.0  0.72305  0.99648  0.67947  1.0000
  H   H722      1.0  0.69343  0.05022  0.57513  1.0000
  C   C719      1.0  0.69705  0.10449  0.51695  1.0000
  C   C720      1.0  0.69615  0.11986  0.53606  1.0000
  C   C721      1.0  0.70750  0.12142  0.54607  1.0000
  C   C722      1.0  0.71986  0.10790  0.53643  1.0000
  C   C723      1.0  0.72076  0.09217  0.51738  1.0000
  C   C724      1.0  0.54481  0.18832  0.51218  1.0000
  H   H723      1.0  0.68652  0.13038  0.54322  1.0000
  H   H724      1.0  0.72872  0.10889  0.54380  1.0000
  H   H725      1.0  0.51989  0.04499  0.50695  1.0000
  C   C725      1.0  0.70445  0.22493  0.72832  1.0000
  C   C726      1.0  0.71028  0.24573  0.71029  1.0000
  C   C727      1.0  0.71295  0.22337  0.69289  1.0000
  C   C728      1.0  0.70971  0.17982  0.69316  1.0000
  C   C729      1.0  0.70394  0.15892  0.71123  1.0000
  C   C730      1.0  0.70142  0.18109  0.72870  1.0000
  H   H726      1.0  0.71271  0.27957  0.70974  1.0000
  H   H727      1.0  0.71735  0.24011  0.67919  1.0000
  H   H728      1.0  0.70138  0.12528  0.71173  1.0000
  H   H729      1.0  0.70439  0.01077  0.54761  1.0000
  S   S252      1.0  0.74754  0.01019  0.62336  1.0000
  S   S253      1.0  0.74508  0.13863  0.63559  1.0000
  H   H730      1.0  0.67321  0.17040  0.70886  1.0000
  C   C731      1.0  0.72465  0.01618  0.58318  1.0000
  N   N59       1.0  0.52699  0.16828  0.74866  1.0000
  C   C732      1.0  0.55455  0.06957  0.63862  1.0000
  C   C733      1.0  0.55736  0.03026  0.60932  1.0000
  Fe  Fe124     1.0  0.74415  0.18187  0.60600  1.0000
  C   C734      1.0  0.54733  0.14198  0.51374  1.0000
  C   C735      1.0  0.54355  0.11610  0.53175  1.0000
  C   C736      1.0  0.53690  0.13605  0.54823  1.0000
  C   C737      1.0  0.53434  0.18237  0.54668  1.0000
  C   C738      1.0  0.53839  0.20831  0.52881  1.0000
  H   H731      1.0  0.55820  0.99947  0.60249  1.0000
  H   H732      1.0  0.54561  0.08030  0.53278  1.0000
  H   H733      1.0  0.52926  0.19829  0.55920  1.0000
  H   H734      1.0  0.53645  0.24416  0.52780  1.0000
  C   C739      1.0  0.54544  0.05801  0.72873  1.0000
  C   C740      1.0  0.54919  0.10051  0.72210  1.0000
  C   C741      1.0  0.54544  0.12263  0.70364  1.0000
  C   C742      1.0  0.53769  0.10304  0.69172  1.0000
  C   C743      1.0  0.53399  0.06047  0.69829  1.0000
  C   C744      1.0  0.53795  0.03802  0.71659  1.0000
  H   H735      1.0  0.55505  0.11618  0.73114  1.0000
  H   H736      1.0  0.54846  0.15539  0.69866  1.0000
  H   H737      1.0  0.52809  0.04479  0.68930  1.0000
  H   H738      1.0  0.53504  0.00507  0.72150  1.0000
  N   N60       1.0  0.66826  0.26052  0.73457  1.0000
  C   C745      1.0  0.51404  0.13450  0.72806  1.0000
  Fe  Fe125     1.0  0.49870  0.07398  0.62842  1.0000
  H   H739      1.0  0.55330  0.06945  0.65478  1.0000
  H   H740      1.0  0.51055  0.17764  0.52312  1.0000
  H   H741      1.0  0.54455  0.16433  0.59074  1.0000
  H   H742      1.0  0.50882  0.06896  0.73951  1.0000
  H   H743      1.0  0.52142  0.19801  0.72007  1.0000
  H   H744      1.0  0.56043  0.14936  0.57801  1.0000
  C   C746      1.0  0.66929  0.19117  0.72053  1.0000
  H   H745      1.0  0.55256  0.14078  0.63299  1.0000
  C   C747      1.0  0.55725  0.07107  0.59733  1.0000
  H   H746      1.0  0.55940  0.17847  0.59981  1.0000
  C   C748      1.0  0.70046  0.03092  0.58525  1.0000
  C   C749      1.0  0.72549  0.99588  0.54414  1.0000
  C   C750      1.0  0.55605  0.02960  0.63010  1.0000
  C   C751      1.0  0.51880  0.08064  0.50279  1.0000
  H   H747      1.0  0.69694  0.16449  0.74237  1.0000
  C   C752      1.0  0.73726  0.99417  0.55314  1.0000
  H   H748      1.0  0.72446  0.02367  0.59849  1.0000
  N   N61       1.0  0.71318  0.01880  0.57410  1.0000
  C   C753      1.0  0.51357  0.09743  0.74233  1.0000
  C   C754      1.0  0.71346  0.00825  0.55492  1.0000
  Fe  Fe126     1.0  0.74085  0.08387  0.61848  1.0000
  C   C755      1.0  0.55504  0.15269  0.59301  1.0000
  H   H749      1.0  0.65832  0.14085  0.73785  1.0000
  N   N62       1.0  0.55576  0.11018  0.60580  1.0000
  C   C756      1.0  0.73686  0.00420  0.57281  1.0000
  C   C757      1.0  0.74428  0.06976  0.68301  1.0000
  H   H750      1.0  0.73785  0.10022  0.67992  1.0000
  H   H751      1.0  0.72021  0.05592  0.67739  1.0000
  H   H752      1.0  0.68120  0.31026  0.72356  1.0000
  H   H753      1.0  0.72566  0.98896  0.52871  1.0000
  C   C758      1.0  0.72739  0.02757  0.67317  1.0000
  S   S254      1.0  0.70050  0.25614  0.74938  1.0000
  H   H754      1.0  0.73037  0.08113  0.51034  1.0000
  H   H755      1.0  0.69614  0.00059  0.59261  1.0000
  C   C759      1.0  0.66102  0.17458  0.73680  1.0000
  H   H756      1.0  0.72859  0.02893  0.65660  1.0000
  C   C760      1.0  0.67276  0.23458  0.71959  1.0000
  H   H757      1.0  0.50966  0.13507  0.71405  1.0000
  N   N63       1.0  0.74027  0.02950  0.68059  1.0000
  H   H758      1.0  0.74592  0.00293  0.58007  1.0000
  C   C761      1.0  0.52081  0.16994  0.73151  1.0000
  C   C762      1.0  0.65995  0.24478  0.75039  1.0000
  C   C763      1.0  0.51461  0.10948  0.51728  1.0000
  H   H759      1.0  0.74668  0.98533  0.54486  1.0000
  H   H760      1.0  0.74559  0.95953  0.68119  1.0000
  C   C764      1.0  0.70937  0.08998  0.50752  1.0000
  H   H761      1.0  0.67371  0.31434  0.74825  1.0000
  H   H762      1.0  0.66379  0.32996  0.72725  1.0000
  Fe  Fe127     1.0  0.54868  0.69951  0.95732  1.0000
  S   S255      1.0  0.55962  0.63166  0.95684  1.0000
  S   S256      1.0  0.53440  0.71904  0.98398  1.0000
  Fe  Fe128     1.0  0.56079  0.73242  0.91508  1.0000
  S   S257      1.0  0.57268  0.66568  0.91234  1.0000
  S   S258      1.0  0.56308  0.77872  0.88558  1.0000
  Fe  Fe129     1.0  0.55412  0.63545  0.92529  1.0000
  S   S259      1.0  0.54979  0.57341  0.91230  1.0000
  Fe  Fe130     1.0  0.57728  0.66733  0.94394  1.0000
  S   S260      1.0  0.59627  0.64036  0.95835  1.0000
  S   S261      1.0  0.54192  0.70142  0.92625  1.0000
  S   S262      1.0  0.56665  0.73588  0.94624  1.0000
  H   H763      1.0  0.54281  0.49701  0.89656  1.0000
  Fe  Fe131     1.0  0.55897  0.03155  0.82458  1.0000
  S   S263      1.0  0.56650  0.09762  0.82724  1.0000
  S   S264      1.0  0.55507  0.98702  0.85425  1.0000
  Fe  Fe132     1.0  0.55756  0.05442  0.77867  1.0000
  S   S265      1.0  0.56555  0.12024  0.77826  1.0000
  H   H764      1.0  0.68293  0.79303  0.90858  1.0000
  Fe  Fe133     1.0  0.57999  0.08498  0.79949  1.0000
  S   S266      1.0  0.60258  0.08513  0.79783  1.0000
  Fe  Fe134     1.0  0.55150  0.12789  0.80600  1.0000
  S   S267      1.0  0.53702  0.19050  0.80433  1.0000
  S   S268      1.0  0.57312  0.01742  0.79780  1.0000
  S   S269      1.0  0.54291  0.06337  0.80552  1.0000
  Fe  Fe135     1.0  0.67407  0.60814  0.93287  1.0000
  S   S270      1.0  0.67571  0.54183  0.95184  1.0000
  S   S271      1.0  0.65617  0.65336  0.92264  1.0000
  Fe  Fe136     1.0  0.70364  0.60382  0.92121  1.0000
  S   S272      1.0  0.70719  0.53648  0.93846  1.0000
  S   S273      1.0  0.72091  0.63681  0.90396  1.0000
  Fe  Fe137     1.0  0.68927  0.51777  0.92562  1.0000
  S   S274      1.0  0.68804  0.44835  0.91506  1.0000
  Fe  Fe138     1.0  0.69362  0.56612  0.96311  1.0000
  H   H765      1.0  0.58095  0.71419  0.98563  1.0000
  S   S275      1.0  0.68687  0.58319  0.90650  1.0000
  S   S276      1.0  0.69079  0.63405  0.94596  1.0000
  Fe  Fe139     1.0  0.66360  0.22811  0.80532  1.0000
  S   S277      1.0  0.67422  0.28819  0.79360  1.0000
  S   S278      1.0  0.64147  0.23466  0.80106  1.0000
  Fe  Fe140     1.0  0.68890  0.17909  0.82036  1.0000
  S   S279      1.0  0.70122  0.23587  0.80964  1.0000
  S   S280      1.0  0.69552  0.10863  0.83327  1.0000
  Fe  Fe141     1.0  0.68377  0.27986  0.82278  1.0000
  S   S281      1.0  0.68357  0.34559  0.83759  1.0000
  Fe  Fe142     1.0  0.69073  0.24019  0.78141  1.0000
  H   H766      1.0  0.61693  0.53423  0.95430  1.0000
  S   S282      1.0  0.67208  0.22215  0.83513  1.0000
  S   S283      1.0  0.67945  0.18120  0.79141  1.0000
  C   C765      1.0  0.68733  0.42099  0.89294  1.0000
  C   C766      1.0  0.68426  0.44395  0.87445  1.0000
  C   C767      1.0  0.68329  0.42047  0.85780  1.0000
  C   C768      1.0  0.68554  0.37360  0.85908  1.0000
  C   C769      1.0  0.68880  0.35075  0.87748  1.0000
  C   C770      1.0  0.68951  0.37415  0.89422  1.0000
  H   H767      1.0  0.68258  0.47985  0.87296  1.0000
  H   H768      1.0  0.68086  0.43888  0.84372  1.0000
  H   H769      1.0  0.69081  0.31494  0.87888  1.0000
  H   H770      1.0  0.69198  0.35572  0.90828  1.0000
  C   C771      1.0  0.73198  0.06197  0.86760  1.0000
  C   C772      1.0  0.72847  0.10767  0.86266  1.0000
  C   C773      1.0  0.71725  0.12268  0.85229  1.0000
  C   C774      1.0  0.70940  0.09197  0.84697  1.0000
  C   C775      1.0  0.71279  0.04634  0.85224  1.0000
  C   C776      1.0  0.72407  0.03133  0.86243  1.0000
  H   H771      1.0  0.71470  0.15789  0.84838  1.0000
  H   H772      1.0  0.70672  0.02244  0.84825  1.0000
  H   H773      1.0  0.72665  0.99612  0.86621  1.0000
  C   C777      1.0  0.73039  0.77833  0.91008  1.0000
  C   C778      1.0  0.73852  0.75169  0.89736  1.0000
  C   C779      1.0  0.73564  0.70805  0.89592  1.0000
  C   C780      1.0  0.72466  0.69071  0.90719  1.0000
  C   C781      1.0  0.71679  0.71690  0.92038  1.0000
  C   C782      1.0  0.71963  0.76051  0.92176  1.0000
  C   C783      1.0  0.70967  0.81250  0.87584  1.0000
  C   C784      1.0  0.74308  0.99551  0.81505  1.0000
  H   H774      1.0  0.70838  0.70392  0.92927  1.0000
  C   C785      1.0  0.61306  0.12735  0.79940  1.0000
  C   C786      1.0  0.62671  0.11515  0.80048  1.0000
  C   C787      1.0  0.63550  0.14731  0.80143  1.0000
  C   C788      1.0  0.63075  0.19230  0.80109  1.0000
  C   C789      1.0  0.61710  0.20450  0.80017  1.0000
  C   C790      1.0  0.60828  0.17225  0.79947  1.0000
  H   H775      1.0  0.63053  0.08054  0.80046  1.0000
  H   H776      1.0  0.64596  0.13728  0.80217  1.0000
  H   H777      1.0  0.61329  0.23918  0.79980  1.0000
  H   H778      1.0  0.59783  0.18223  0.79859  1.0000
  C   C791      1.0  0.52194  0.27425  0.85590  1.0000
  C   C792      1.0  0.51683  0.28378  0.83728  1.0000
  C   C793      1.0  0.52152  0.25762  0.82170  1.0000
  C   C794      1.0  0.53125  0.22152  0.82462  1.0000
  C   C795      1.0  0.53620  0.21153  0.84334  1.0000
  C   C796      1.0  0.53158  0.23791  0.85890  1.0000
  H   H779      1.0  0.72568  0.03787  0.80653  1.0000
  H   H780      1.0  0.51764  0.26556  0.80726  1.0000
  H   H781      1.0  0.54369  0.18384  0.84576  1.0000
  H   H782      1.0  0.53559  0.23033  0.87326  1.0000
  C   C797      1.0  0.56058  0.83685  0.87730  1.0000
  C   C798      1.0  0.55628  0.86894  0.89039  1.0000
  C   C799      1.0  0.55451  0.91448  0.88299  1.0000
  C   C800      1.0  0.55700  0.92874  0.86244  1.0000
  C   C801      1.0  0.56125  0.89664  0.84934  1.0000
  C   C802      1.0  0.56305  0.85112  0.85675  1.0000
  H   H783      1.0  0.55428  0.85869  0.90620  1.0000
  H   H784      1.0  0.55116  0.93885  0.89329  1.0000
  H   H785      1.0  0.56310  0.90679  0.83349  1.0000
  H   H786      1.0  0.56634  0.82673  0.84643  1.0000
  C   C803      1.0  0.61284  0.64590  0.94841  1.0000
  C   C804      1.0  0.61594  0.67115  0.93018  1.0000
  C   C805      1.0  0.62927  0.67376  0.92270  1.0000
  C   C806      1.0  0.63961  0.65043  0.93312  1.0000
  C   C807      1.0  0.63650  0.62487  0.95125  1.0000
  C   C808      1.0  0.62319  0.62311  0.95896  1.0000
  H   H787      1.0  0.60808  0.68893  0.92193  1.0000
  H   H788      1.0  0.63158  0.69371  0.90867  1.0000
  H   H789      1.0  0.64435  0.60690  0.95945  1.0000
  H   H790      1.0  0.62089  0.60369  0.97313  1.0000
  C   C809      1.0  0.53444  0.56053  0.90561  1.0000
  C   C810      1.0  0.52295  0.59015  0.90698  1.0000
  C   C811      1.0  0.51128  0.58004  0.89979  1.0000
  C   C812      1.0  0.51091  0.53995  0.89153  1.0000
  C   C813      1.0  0.52228  0.50977  0.89076  1.0000
  C   C814      1.0  0.53399  0.52021  0.89762  1.0000
  H   H791      1.0  0.52315  0.62126  0.91313  1.0000
  H   H792      1.0  0.56500  0.61639  0.87543  1.0000
  H   H793      1.0  0.52214  0.47882  0.88444  1.0000
  C   C815      1.0  0.73832  0.63694  0.94925  1.0000
  H   H794      1.0  0.65759  0.27418  0.89066  1.0000
  S   S284      1.0  0.70187  0.55283  0.99419  1.0000
  H   H795      1.0  0.66214  0.32935  0.88320  1.0000
  H   H796      1.0  0.60267  0.09018  0.84061  1.0000
  H   H797      1.0  0.67066  0.28353  0.87089  1.0000
  C   C816      1.0  0.66087  0.29736  0.87759  1.0000
  H   H798      1.0  0.71636  0.83780  0.87096  1.0000
  H   H799      1.0  0.55514  0.57853  0.86746  1.0000
  C   C817      1.0  0.53678  0.71895  0.87326  1.0000
  N   N64       1.0  0.65140  0.30398  0.86238  1.0000
  N   N65       1.0  0.59037  0.99128  0.85436  1.0000
  C   C818      1.0  0.58268  0.00107  0.87139  1.0000
  C   C819      1.0  0.59751  0.02272  0.84343  1.0000
  C   C820      1.0  0.58192  0.04337  0.87779  1.0000
  C   C821      1.0  0.59715  0.06516  0.84956  1.0000
  C   C822      1.0  0.58922  0.07558  0.86678  1.0000
  C   C823      1.0  0.59025  0.94809  0.84690  1.0000
  H   H800      1.0  0.57667  0.97663  0.87972  1.0000
  H   H801      1.0  0.60334  0.01539  0.82963  1.0000
  H   H802      1.0  0.57543  0.05132  0.89090  1.0000
  C   C824      1.0  0.73713  0.67844  0.95656  1.0000
  H   H803      1.0  0.58853  0.10882  0.87130  1.0000
  H   H804      1.0  0.58310  0.95135  0.83535  1.0000
  H   H805      1.0  0.60020  0.93617  0.84016  1.0000
  H   H806      1.0  0.58718  0.92235  0.85908  1.0000
  H   H807      1.0  0.56280  0.61850  0.84900  1.0000
  H   H808      1.0  0.73003  0.57250  0.99161  1.0000
  H   H809      1.0  0.74682  0.76506  0.88828  1.0000
  H   H810      1.0  0.74182  0.68792  0.88573  1.0000
  H   H811      1.0  0.61123  0.56421  0.93195  1.0000
  N   N66       1.0  0.63074  0.52955  0.92865  1.0000
  C   C825      1.0  0.63475  0.56046  0.91347  1.0000
  C   C826      1.0  0.63943  0.49459  0.93525  1.0000
  C   C827      1.0  0.64775  0.55687  0.90453  1.0000
  C   C828      1.0  0.65247  0.48968  0.92646  1.0000
  C   C829      1.0  0.65661  0.52101  0.91097  1.0000
  H   H812      1.0  0.69752  0.85228  0.89632  1.0000
  H   H813      1.0  0.62798  0.58869  0.90845  1.0000
  H   H814      1.0  0.63631  0.47033  0.94742  1.0000
  H   H815      1.0  0.65102  0.58229  0.89299  1.0000
  H   H816      1.0  0.65942  0.46210  0.93170  1.0000
  H   H817      1.0  0.66672  0.51765  0.90414  1.0000
  H   H818      1.0  0.64978  0.18911  0.76449  1.0000
  C   C830      1.0  0.52424  0.70769  0.87074  1.0000
  C   C831      1.0  0.73071  0.64315  0.98949  1.0000
  N   N67       1.0  0.54623  0.64555  0.86682  1.0000
  C   C832      1.0  0.54774  0.68733  0.87116  1.0000
  H   H819      1.0  0.73504  0.55980  0.93797  1.0000
  H   H820      1.0  0.53277  0.60130  0.86053  1.0000
  C   C833      1.0  0.68518  0.71032  0.89800  1.0000
  H   H821      1.0  0.72034  0.76417  0.85772  1.0000
  H   H822      1.0  0.71331  0.78091  0.93167  1.0000
  C   C834      1.0  0.69911  0.82052  0.89021  1.0000
  C   C835      1.0  0.55788  0.61322  0.86440  1.0000
  H   H823      1.0  0.73025  0.53369  0.96243  1.0000
  H   H824      1.0  0.53114  0.13143  0.77651  1.0000
  H   H825      1.0  0.73917  0.70801  0.94654  1.0000
  C   C836      1.0  0.51968  0.09644  0.75992  1.0000
  H   H826      1.0  0.67970  0.71630  0.91270  1.0000
  C   C837      1.0  0.61707  0.53322  0.93789  1.0000
  C   C838      1.0  0.64399  0.27045  0.86014  1.0000
  C   C839      1.0  0.63544  0.27528  0.84499  1.0000
  C   C840      1.0  0.64239  0.34808  0.83409  1.0000
  C   C841      1.0  0.63469  0.31428  0.83186  1.0000
  H   H827      1.0  0.62985  0.24819  0.84282  1.0000
  H   H828      1.0  0.64219  0.37801  0.82361  1.0000
  H   H829      1.0  0.62848  0.31751  0.81955  1.0000
  H   H830      1.0  0.64493  0.23925  0.86973  1.0000
  H   H831      1.0  0.65687  0.36845  0.85097  1.0000
  H   H832      1.0  0.53804  0.75187  0.87699  1.0000
  H   H833      1.0  0.51565  0.73176  0.87260  1.0000
  H   H834      1.0  0.69141  0.67813  0.90040  1.0000
  S   S285      1.0  0.51653  0.30678  0.87577  1.0000
  H   H835      1.0  0.51128  0.25150  0.91702  1.0000
  S   S286      1.0  0.73250  0.83493  0.91088  1.0000
  C   C842      1.0  0.65071  0.34238  0.84957  1.0000
  N   N68       1.0  0.73557  0.59965  0.96173  1.0000
  H   H836      1.0  0.65620  0.26546  0.76215  1.0000
  H   H837      1.0  0.70578  0.70544  0.87059  1.0000
  C   C843      1.0  0.53401  0.63452  0.86387  1.0000
  H   H838      1.0  0.67787  0.70724  0.88731  1.0000
  H   H839      1.0  0.61198  0.50455  0.93506  1.0000
  H   H840      1.0  0.73208  0.71353  0.98265  1.0000
  H   H841      1.0  0.50348  0.30705  0.91789  1.0000
  C   C844      1.0  0.50196  0.27141  0.92196  1.0000
  C   C845      1.0  0.71193  0.77115  0.86848  1.0000
  H   H842      1.0  0.52824  0.22526  0.76328  1.0000
  H   H843      1.0  0.50252  0.60356  0.90050  1.0000
  C   C846      1.0  0.52631  0.13253  0.76291  1.0000
  H   H844      1.0  0.50940  0.31164  0.83482  1.0000
  C   C847      1.0  0.52283  0.66528  0.86591  1.0000
  H   H845      1.0  0.73453  0.13157  0.86668  1.0000
  C   C848      1.0  0.73320  0.68152  0.97680  1.0000
  H   H846      1.0  0.55744  0.69636  0.87321  1.0000
  H   H847      1.0  0.51976  0.06724  0.77086  1.0000
  C   C849      1.0  0.73203  0.60220  0.98167  1.0000
  H   H848      1.0  0.73373  0.10610  0.81540  1.0000
  H   H849      1.0  0.51312  0.65584  0.86412  1.0000
  N   N69       1.0  0.69349  0.74593  0.89023  1.0000
  C   C850      1.0  0.69100  0.78675  0.89719  1.0000
  C   C851      1.0  0.70366  0.73808  0.87583  1.0000
  H   H850      1.0  0.55932  0.75745  0.99328  1.0000
  H   H851      1.0  0.50271  0.22960  0.88905  1.0000
  Fe  Fe143     1.0  0.50001  0.36307  0.87296  1.0000
  H   H852      1.0  0.54373  0.19231  0.75836  1.0000
  H   H853      1.0  0.73960  0.96529  0.81147  1.0000
  C   C852      1.0  0.73533  0.03615  0.81214  1.0000
  H   H854      1.0  0.50023  0.26463  0.93849  1.0000
  H   H855      1.0  0.57219  0.66528  0.99077  1.0000
  C   C853      1.0  0.73721  0.55631  0.95392  1.0000
  C   C854      1.0  0.73986  0.07457  0.81711  1.0000
  H   H856      1.0  0.74492  0.90237  0.97236  1.0000
  H   H857      1.0  0.74134  0.63477  0.93348  1.0000
  S   S287      1.0  0.49858  0.42192  0.84936  1.0000
  C   C855      1.0  0.57763  0.68837  0.99758  1.0000
  S   S288      1.0  0.74667  0.04446  0.87927  1.0000
  C   C856      1.0  0.53419  0.20522  0.75217  1.0000
  C   C857      1.0  0.65625  0.20158  0.75178  1.0000
  H   H858      1.0  0.74750  0.54074  0.95510  1.0000
  S   S289      1.0  0.54967  0.02877  0.75206  1.0000
  C   C858      1.0  0.77338  0.00582  0.11666  1.0000
  H   H859      1.0  0.87723  0.41223  0.13880  1.0000
  Fe  Fe144     1.0  0.94053  0.89022  0.07599  1.0000
  S   S290      1.0  0.95661  0.83817  0.06723  1.0000
  S   S291      1.0  0.94284  0.95590  0.08750  1.0000
  Fe  Fe145     1.0  0.91931  0.84250  0.06122  1.0000
  S   S292      1.0  0.93418  0.78718  0.05073  1.0000
  S   S293      1.0  0.89719  0.83773  0.06153  1.0000
  Fe  Fe146     1.0  0.94253  0.78758  0.08030  1.0000
  S   S294      1.0  0.95041  0.72457  0.09966  1.0000
  Fe  Fe147     1.0  0.94695  0.84209  0.03839  1.0000
  C   C859      1.0  0.97964  0.92410  0.04331  1.0000
  S   S295      1.0  0.92713  0.84006  0.09131  1.0000
  S   S296      1.0  0.93141  0.89692  0.04670  1.0000
  Fe  Fe148     1.0  0.91697  0.42865  0.19637  1.0000
  S   S297      1.0  0.92615  0.45131  0.16557  1.0000
  S   S298      1.0  0.90071  0.38107  0.20150  1.0000
  Fe  Fe149     1.0  0.93677  0.47182  0.21773  1.0000
  S   S299      1.0  0.94698  0.49878  0.18825  1.0000
  C   C860      1.0  0.77671  0.92947  0.12916  1.0000
  Fe  Fe150     1.0  0.92691  0.51703  0.17740  1.0000
  S   S300      1.0  0.91978  0.58119  0.15849  1.0000
  Fe  Fe151     1.0  0.94562  0.43148  0.17847  1.0000
  S   S301      1.0  0.96444  0.40273  0.16183  1.0000
  S   S302      1.0  0.91645  0.49573  0.20764  1.0000
  S   S303      1.0  0.93670  0.40333  0.20846  1.0000
  Fe  Fe152     1.0  0.82917  0.98962  0.05839  1.0000
  S   S304      1.0  0.81563  0.05064  0.04888  1.0000
  S   S305      1.0  0.85113  0.99523  0.04992  1.0000
  Fe  Fe153     1.0  0.80605  0.94183  0.07863  1.0000
  S   S306      1.0  0.79118  0.99949  0.07073  1.0000
  S   S307      1.0  0.80046  0.87892  0.09747  1.0000
  Fe  Fe154     1.0  0.80255  0.00218  0.04013  1.0000
  Fe  Fe155     1.0  0.80567  0.04237  0.08039  1.0000
  S   S308      1.0  0.79756  0.09829  0.10040  1.0000
  S   S309      1.0  0.81675  0.94211  0.04772  1.0000
  S   S310      1.0  0.81987  0.98373  0.09012  1.0000
  Fe  Fe156     1.0  0.82290  0.36279  0.18900  1.0000
  S   S311      1.0  0.82273  0.29270  0.20405  1.0000
  S   S312      1.0  0.84036  0.40506  0.18129  1.0000
  Fe  Fe157     1.0  0.79353  0.36944  0.18259  1.0000
  S   S313      1.0  0.79161  0.29953  0.19708  1.0000
  S   S314      1.0  0.77409  0.40778  0.17423  1.0000
  Fe  Fe158     1.0  0.80343  0.31795  0.22073  1.0000
  H   H860      1.0  0.86459  0.00423  0.09271  1.0000
  Fe  Fe159     1.0  0.81079  0.28008  0.17907  1.0000
  S   S315      1.0  0.81731  0.21585  0.16349  1.0000
  S   S316      1.0  0.80434  0.38864  0.20707  1.0000
  S   S317      1.0  0.81201  0.34927  0.16320  1.0000
  C   C861      1.0  0.75846  0.51863  0.14183  1.0000
  C   C862      1.0  0.76000  0.47803  0.15415  1.0000
  C   C863      1.0  0.77266  0.45618  0.15699  1.0000
  H   H861      1.0  0.78899  0.59262  0.16302  1.0000
  S   S318      1.0  0.99348  0.11157  0.14541  1.0000
  H   H862      1.0  0.94672  0.22775  0.19106  1.0000
  C   C864      1.0  0.80352  0.13138  0.11741  1.0000
  C   C865      1.0  0.79519  0.16774  0.12433  1.0000
  C   C866      1.0  0.79926  0.19432  0.13801  1.0000
  C   C867      1.0  0.81173  0.18478  0.14533  1.0000
  C   C868      1.0  0.82002  0.14821  0.13855  1.0000
  C   C869      1.0  0.81602  0.12198  0.12467  1.0000
  H   H863      1.0  0.78552  0.17573  0.11891  1.0000
  H   H864      1.0  0.79270  0.22218  0.14288  1.0000
  H   H865      1.0  0.82968  0.14013  0.14401  1.0000
  H   H866      1.0  0.82261  0.09431  0.11968  1.0000
  C   C870      1.0  0.78550  0.85661  0.09514  1.0000
  C   C871      1.0  0.77581  0.88003  0.08366  1.0000
  C   C872      1.0  0.77068  0.79876  0.10586  1.0000
  C   C873      1.0  0.78291  0.81584  0.10612  1.0000
  H   H867      1.0  0.91484  0.93184  0.10312  1.0000
  H   H868      1.0  0.79035  0.79750  0.11503  1.0000
  C   C874      1.0  0.88354  0.39079  0.19787  1.0000
  C   C875      1.0  0.87808  0.42990  0.18742  1.0000
  C   C876      1.0  0.86472  0.43425  0.18317  1.0000
  C   C877      1.0  0.85660  0.39974  0.18935  1.0000
  C   C878      1.0  0.86194  0.36113  0.20029  1.0000
  C   C879      1.0  0.87532  0.35671  0.20448  1.0000
  H   H869      1.0  0.88423  0.45643  0.18224  1.0000
  H   H870      1.0  0.86070  0.46431  0.17472  1.0000
  H   H871      1.0  0.85585  0.33435  0.20521  1.0000
  H   H872      1.0  0.87941  0.32638  0.21265  1.0000
  C   C880      1.0  0.94166  0.68730  0.11721  1.0000
  C   C881      1.0  0.92784  0.68993  0.11950  1.0000
  C   C882      1.0  0.92135  0.65770  0.13252  1.0000
  C   C883      1.0  0.92856  0.62228  0.14332  1.0000
  C   C884      1.0  0.94238  0.62017  0.14141  1.0000
  C   C885      1.0  0.94887  0.65260  0.12849  1.0000
  H   H873      1.0  0.92214  0.71636  0.11097  1.0000
  H   H874      1.0  0.91065  0.65980  0.13390  1.0000
  H   H875      1.0  0.94808  0.59334  0.14969  1.0000
  H   H876      1.0  0.95956  0.65031  0.12687  1.0000
  C   C886      1.0  0.88459  0.88152  0.05665  1.0000
  C   C887      1.0  0.87129  0.87250  0.06025  1.0000
  C   C888      1.0  0.86092  0.90683  0.05796  1.0000
  C   C889      1.0  0.86377  0.95048  0.05185  1.0000
  C   C890      1.0  0.87706  0.95931  0.04765  1.0000
  C   C891      1.0  0.88744  0.92506  0.05016  1.0000
  H   H877      1.0  0.86901  0.83885  0.06520  1.0000
  H   H878      1.0  0.85074  0.89953  0.06116  1.0000
  H   H879      1.0  0.87934  0.99297  0.04275  1.0000
  H   H880      1.0  0.89762  0.93233  0.04715  1.0000
  C   C892      1.0  0.96878  0.26763  0.13690  1.0000
  C   C893      1.0  0.95619  0.28722  0.14340  1.0000
  C   C894      1.0  0.95468  0.32883  0.15092  1.0000
  C   C895      1.0  0.96576  0.35141  0.15171  1.0000
  C   C896      1.0  0.97830  0.33241  0.14470  1.0000
  C   C897      1.0  0.97984  0.29053  0.13744  1.0000
  H   H881      1.0  0.94760  0.26971  0.14295  1.0000
  H   H882      1.0  0.94497  0.34324  0.15622  1.0000
  H   H883      1.0  0.98691  0.34987  0.14515  1.0000
  H   H884      1.0  0.93725  0.68304  0.17336  1.0000
  C   C898      1.0  0.98165  0.99322  0.10714  1.0000
  C   C899      1.0  0.98033  0.94887  0.10444  1.0000
  C   C900      1.0  0.96856  0.93695  0.09831  1.0000
  C   C901      1.0  0.95787  0.96920  0.09521  1.0000
  C   C902      1.0  0.95911  0.01341  0.09821  1.0000
  C   C903      1.0  0.97096  0.02546  0.10402  1.0000
  H   H885      1.0  0.96773  0.90277  0.09617  1.0000
  H   H886      1.0  0.95089  0.03859  0.09593  1.0000
  H   H887      1.0  0.97184  0.05970  0.10606  1.0000
  N   N70       1.0  0.89482  0.94685  0.09609  1.0000
  C   C904      1.0  0.89110  0.90506  0.10174  1.0000
  C   C905      1.0  0.88548  0.98227  0.09296  1.0000
  C   C906      1.0  0.87771  0.89807  0.10492  1.0000
  C   C907      1.0  0.98729  0.99757  0.05803  1.0000
  H   H888      1.0  0.91256  0.94380  0.07683  1.0000
  C   C908      1.0  0.90891  0.95296  0.09199  1.0000
  H   H889      1.0  0.89849  0.87658  0.10312  1.0000
  C   C909      1.0  0.78233  0.53835  0.18370  1.0000
  H   H890      1.0  0.99494  0.18472  0.18621  1.0000
  S   S319      1.0  0.99705  0.00714  0.11323  1.0000
  C   C910      1.0  0.97982  0.27762  0.19065  1.0000
  H   H891      1.0  0.78300  0.90135  0.13558  1.0000
  C   C911      1.0  0.92110  0.61550  0.20914  1.0000
  N   N71       1.0  0.97171  0.96350  0.04205  1.0000
  C   C912      1.0  0.75627  0.95799  0.11513  1.0000
  H   H892      1.0  0.76589  0.22122  0.22922  1.0000
  H   H893      1.0  0.86880  0.26171  0.16997  1.0000
  C   C913      1.0  0.76085  0.99998  0.11135  1.0000
  H   H894      1.0  0.91141  0.60411  0.21340  1.0000
  H   H895      1.0  0.80166  0.94906  0.12617  1.0000
  N   N72       1.0  0.75706  0.58139  0.17992  1.0000
  H   H896      1.0  0.95794  0.93688  0.02596  1.0000
  C   C914      1.0  0.87076  0.29414  0.16246  1.0000
  H   H897      1.0  0.81171  0.17100  0.20448  1.0000
  H   H898      1.0  0.77065  0.19846  0.19478  1.0000
  H   H899      1.0  0.75137  0.46380  0.16178  1.0000
  C   C915      1.0  0.88572  0.35083  0.15383  1.0000
  C   C916      1.0  0.86320  0.36323  0.14503  1.0000
  H   H900      1.0  0.84182  0.32523  0.14276  1.0000
  H   H901      1.0  0.74870  0.53537  0.13992  1.0000
  H   H902      1.0  0.89521  0.36303  0.15477  1.0000
  C   C917      1.0  0.95614  0.28271  0.19852  1.0000
  H   H903      1.0  0.77764  0.91164  0.07531  1.0000
  H   H904      1.0  0.84230  0.31326  0.16938  1.0000
  S   S320      1.0  0.97028  0.21371  0.12918  1.0000
  H   H905      1.0  0.79354  0.45790  0.14894  1.0000
  C   C918      1.0  0.78377  0.47452  0.14693  1.0000
  H   H906      1.0  0.84805  0.27082  0.15304  1.0000
  C   C919      1.0  0.76086  0.82273  0.09483  1.0000
  C   C920      1.0  0.79432  0.97681  0.13063  1.0000
  H   H907      1.0  0.87484  0.86462  0.10867  1.0000
  N   N73       1.0  0.78120  0.97057  0.12515  1.0000
  C   C921      1.0  0.97532  0.99981  0.04945  1.0000
  C   C922      1.0  0.84765  0.30685  0.15470  1.0000
  Fe  Fe160     1.0  0.98998  0.17237  0.12346  1.0000
  H   H908      1.0  0.81524  0.22180  0.23695  1.0000
  H   H909      1.0  0.97670  0.89506  0.03768  1.0000
  C   C923      1.0  0.88330  0.30838  0.16267  1.0000
  C   C924      1.0  0.77132  0.51951  0.19373  1.0000
  H   H910      1.0  0.96766  0.18828  0.17757  1.0000
  H   H911      1.0  0.76648  0.63007  0.15967  1.0000
  H   H912      1.0  0.83767  0.02758  0.01360  1.0000
  Fe  Fe161     1.0  0.74916  0.63561  0.11525  1.0000
  N   N74       1.0  0.86094  0.32136  0.15356  1.0000
  H   H913      1.0  0.79789  0.00827  0.12296  1.0000
  S   S321      1.0  0.79221  0.01498  0.01088  1.0000
  C   C925      1.0  0.95908  0.96701  0.03319  1.0000
  H   H914      1.0  0.80174  0.92274  0.00308  1.0000
  H   H915      1.0  0.77256  0.48699  0.20229  1.0000
  H   H916      1.0  0.91087  0.98784  0.09280  1.0000
  C   C926      1.0  0.76418  0.92259  0.12428  1.0000
  C   C927      1.0  0.95543  0.59122  0.22509  1.0000
  C   C928      1.0  0.80160  0.18068  0.21024  1.0000
  H   H917      1.0  0.93307  0.63190  0.08188  1.0000
  C   C929      1.0  0.86811  0.93406  0.10199  1.0000
  C   C930      1.0  0.76779  0.59980  0.16983  1.0000
  H   H918      1.0  0.85519  0.38585  0.13911  1.0000
  H   H919      1.0  0.98854  0.92369  0.10685  1.0000
  C   C931      1.0  0.93727  0.60222  0.09052  1.0000
  H   H920      1.0  0.77691  0.03853  0.11356  1.0000
  H   H921      1.0  0.95739  0.61651  0.08218  1.0000
  H   H922      1.0  0.95077  0.97121  0.04500  1.0000
  C   C932      1.0  0.95096  0.59351  0.09068  1.0000
  H   H923      1.0  0.96881  0.03055  0.04911  1.0000
  S   S322      1.0  0.76828  0.59044  0.11807  1.0000
  N   N75       1.0  0.94419  0.61121  0.21412  1.0000
  C   C933      1.0  0.77296  0.85289  0.01398  1.0000
  H   H924      1.0  0.88842  0.01507  0.08764  1.0000
  H   H925      1.0  0.85770  0.92884  0.10356  1.0000
  H   H926      1.0  0.76875  0.76753  0.11453  1.0000
  H   H927      1.0  0.95947  0.55925  0.21931  1.0000
  C   C934      1.0  0.87564  0.37844  0.14488  1.0000
  C   C935      1.0  0.93186  0.59795  0.21983  1.0000
  H   H928      1.0  0.91837  0.58147  0.10300  1.0000
  H   H929      1.0  0.94777  0.46228  0.12871  1.0000
  C   C936      1.0  0.92904  0.57390  0.10233  1.0000
  N   N76       1.0  0.97956  0.23763  0.18342  1.0000
  C   C937      1.0  0.95624  0.55638  0.10270  1.0000
  S   S323      1.0  0.96208  0.85064  0.01094  1.0000
  H   H930      1.0  0.96688  0.55055  0.10316  1.0000
  H   H931      1.0  0.98955  0.27600  0.13227  1.0000
  N   N77       1.0  0.94809  0.52855  0.11411  1.0000
  C   C938      1.0  0.93464  0.53722  0.11424  1.0000
  H   H932      1.0  0.92815  0.51661  0.12409  1.0000
  H   H933      1.0  0.91482  0.65971  0.18377  1.0000
  C   C939      1.0  0.95372  0.49109  0.12738  1.0000
  C   C940      1.0  0.99182  0.21352  0.17540  1.0000
  H   H934      1.0  0.96394  0.47891  0.12173  1.0000
  H   H935      1.0  0.95401  0.50127  0.14256  1.0000
  H   H936      1.0  0.95603  0.65060  0.19260  1.0000
  C   C941      1.0  0.78222  0.51497  0.13449  1.0000
  H   H937      1.0  0.96826  0.33349  0.20310  1.0000
  C   C942      1.0  0.76350  0.86331  0.08366  1.0000
  H   H938      1.0  0.79213  0.52067  0.18459  1.0000
  C   C943      1.0  0.93563  0.65974  0.18665  1.0000
  C   C944      1.0  0.94620  0.64115  0.19756  1.0000
  H   H939      1.0  0.98903  0.29243  0.19007  1.0000
  C   C945      1.0  0.79146  0.18183  0.19771  1.0000
  C   C946      1.0  0.76959  0.53752  0.13214  1.0000
  C   C947      1.0  0.92301  0.64683  0.19255  1.0000
  H   H940      1.0  0.79373  0.17301  0.18255  1.0000
  H   H941      1.0  0.95840  0.99586  0.02149  1.0000
  C   C948      1.0  0.96811  0.30088  0.19819  1.0000
  H   H942      1.0  0.79087  0.52930  0.12695  1.0000
  C   C949      1.0  0.80976  0.19226  0.24181  1.0000
  C   C950      1.0  0.77852  0.19613  0.20459  1.0000
  C   C951      1.0  0.95600  0.24167  0.19134  1.0000
  H   H943      1.0  0.89094  0.28748  0.17037  1.0000
  H   H944      1.0  0.99030  0.20114  0.16110  1.0000
  C   C952      1.0  0.87199  0.97645  0.09593  1.0000
  H   H945      1.0  0.75591  0.88211  0.07518  1.0000
  C   C953      1.0  0.96787  0.21945  0.18379  1.0000
  C   C954      1.0  0.78058  0.57874  0.17166  1.0000
  H   H946      1.0  0.76678  0.95878  0.02620  1.0000
  H   H947      1.0  0.79399  0.97788  0.14703  1.0000
  H   H948      1.0  0.99001  0.02612  0.06432  1.0000
  H   H949      1.0  0.94696  0.30094  0.20389  1.0000
  C   C955      1.0  0.75868  0.54153  0.19160  1.0000
  H   H950      1.0  0.76083  0.88955  0.12691  1.0000
  C   C956      1.0  0.99161  0.92053  0.05203  1.0000
  H   H951      1.0  0.84835  0.95039  0.01527  1.0000
  N   N78       1.0  0.79888  0.19264  0.22923  1.0000
  C   C957      1.0  0.84117  0.96179  0.00450  1.0000
  H   H952      1.0  0.93030  0.57331  0.23262  1.0000
  C   C958      1.0  0.99545  0.95760  0.05939  1.0000
  H   H953      1.0  0.81668  0.16159  0.24084  1.0000
  C   C959      1.0  0.77585  0.20882  0.22389  1.0000
  C   C960      1.0  0.78621  0.20687  0.23607  1.0000
  H   H954      1.0  0.78409  0.21787  0.25088  1.0000
  H   H955      1.0  0.77704  0.88436  0.03928  1.0000
  C   C961      1.0  0.83506  0.00542  0.00352  1.0000
  H   H956      1.0  0.96341  0.61361  0.22373  1.0000
  C   C962      1.0  0.76676  0.93038  0.01790  1.0000
  H   H957      1.0  0.77752  0.82042  0.01950  1.0000
  S   S324      1.0  0.94465  0.49314  0.24547  1.0000
  H   H958      1.0  0.81755  0.07657  0.00442  1.0000
  S   S325      1.0  0.99594  0.13671  0.09592  1.0000
  C   C963      1.0  0.77263  0.88875  0.02514  1.0000
  H   H959      1.0  0.95231  0.58397  0.24133  1.0000
  H   H960      1.0  0.75483  0.02778  0.10417  1.0000
  H   H961      1.0  0.75017  0.52578  0.19886  1.0000
  H   H962      1.0  0.99778  0.88909  0.05330  1.0000
  Fe  Fe162     1.0  0.97652  0.41995  0.39897  1.0000
  S   S326      1.0  0.97472  0.46992  0.37150  1.0000
  S   S327      1.0  0.96575  0.44069  0.42854  1.0000
  C   C964      1.0  0.76977  0.57154  0.44777  1.0000
  Fe  Fe163     1.0  0.99704  0.46309  0.36911  1.0000
  C   C965      1.0  0.76787  0.52552  0.33389  1.0000
  Fe  Fe164     1.0  0.97664  0.41218  0.35299  1.0000
  S   S328      1.0  0.96494  0.39470  0.32808  1.0000
  H   H963      1.0  0.75136  0.59713  0.32479  1.0000
  S   S329      1.0  0.97646  0.36248  0.38084  1.0000
  H   H964      1.0  0.92578  0.33996  0.47354  1.0000
  Fe  Fe165     1.0  0.77375  0.40711  0.40890  1.0000
  H   H965      1.0  0.79636  0.38883  0.26081  1.0000
  S   S330      1.0  0.78897  0.40688  0.43197  1.0000
  Fe  Fe166     1.0  0.76984  0.39368  0.36413  1.0000
  H   H966      1.0  0.76817  0.45911  0.45568  1.0000
  S   S331      1.0  0.77943  0.39882  0.33147  1.0000
  H   H967      1.0  0.97277  0.53178  0.41119  1.0000
  H   H968      1.0  0.92089  0.47861  0.48148  1.0000
  H   H969      1.0  0.76338  0.18342  0.40951  1.0000
  N   N79       1.0  0.99114  0.25069  0.34368  1.0000
  S   S332      1.0  0.77417  0.45136  0.37970  1.0000
  S   S333      1.0  0.77151  0.34727  0.39295  1.0000
  H   H970      1.0  0.98199  0.56826  0.39322  1.0000
  C   C966      1.0  0.78794  0.42645  0.45617  1.0000
  C   C967      1.0  0.77688  0.45281  0.46383  1.0000
  C   C968      1.0  0.77729  0.47288  0.48158  1.0000
  H   H971      1.0  0.76612  0.53318  0.34966  1.0000
  H   H972      1.0  0.78770  0.56550  0.46237  1.0000
  C   C969      1.0  0.79910  0.41854  0.46724  1.0000
  C   C970      1.0  0.99576  0.58926  0.42012  1.0000
  H   H973      1.0  0.94505  0.40019  0.26422  1.0000
  C   C971      1.0  0.75353  0.20296  0.41037  1.0000
  H   H974      1.0  0.80773  0.39815  0.46161  1.0000
  C   C972      1.0  0.79183  0.32459  0.27502  1.0000
  C   C973      1.0  0.78697  0.30134  0.29314  1.0000
  C   C974      1.0  0.78299  0.32329  0.31045  1.0000
  C   C975      1.0  0.78393  0.36896  0.31000  1.0000
  C   C976      1.0  0.78874  0.39221  0.29186  1.0000
  C   C977      1.0  0.79260  0.37035  0.27450  1.0000
  H   H975      1.0  0.78633  0.26597  0.29386  1.0000
  H   H976      1.0  0.77937  0.30475  0.32420  1.0000
  H   H977      1.0  0.78960  0.42743  0.29123  1.0000
  H   H978      1.0  0.77366  0.49234  0.33367  1.0000
  C   C978      1.0  0.96168  0.40714  0.45137  1.0000
  C   C979      1.0  0.95767  0.42790  0.46887  1.0000
  C   C980      1.0  0.95370  0.40294  0.48708  1.0000
  Fe  Fe167     1.0  0.75217  0.46455  0.38586  1.0000
  C   C981      1.0  0.95759  0.33610  0.47047  1.0000
  C   C982      1.0  0.96174  0.36097  0.45234  1.0000
  H   H979      1.0  0.95753  0.46360  0.46831  1.0000
  H   H980      1.0  0.80706  0.48392  0.43254  1.0000
  H   H981      1.0  0.95749  0.30049  0.47092  1.0000
  H   H982      1.0  0.96476  0.34447  0.43905  1.0000
  C   C983      1.0  0.95068  0.46443  0.26798  1.0000
  C   C984      1.0  0.94958  0.41916  0.27371  1.0000
  C   C985      1.0  0.95406  0.39855  0.29204  1.0000
  C   C986      1.0  0.95983  0.42261  0.30485  1.0000
  C   C987      1.0  0.96113  0.46771  0.29896  1.0000
  C   C988      1.0  0.95651  0.48843  0.28074  1.0000
  N   N80       1.0  0.99014  0.55013  0.42150  1.0000
  H   H983      1.0  0.95291  0.36375  0.29642  1.0000
  H   H984      1.0  0.96550  0.48680  0.30858  1.0000
  H   H985      1.0  0.95742  0.52344  0.27659  1.0000
  H   H986      1.0  0.80828  0.43266  0.49303  1.0000
  C   C989      1.0  0.92372  0.41045  0.47501  1.0000
  H   H987      1.0  0.76640  0.52453  0.40577  1.0000
  C   C990      1.0  0.92128  0.36675  0.48202  1.0000
  H   H988      1.0  0.80618  0.51189  0.45441  1.0000
  H   H989      1.0  0.76410  0.59088  0.45880  1.0000
  C   C991      1.0  0.79943  0.43801  0.48518  1.0000
  N   N81       1.0  0.91378  0.35765  0.49973  1.0000
  C   C992      1.0  0.76372  0.55979  0.43185  1.0000
  H   H990      1.0  0.81051  0.54152  0.43011  1.0000
  H   H991      1.0  0.75611  0.45619  0.32571  1.0000
  C   C993      1.0  0.99699  0.27463  0.30296  1.0000
  H   H992      1.0  0.98476  0.33576  0.30780  1.0000
  N   N82       1.0  0.79022  0.53145  0.43618  1.0000
  C   C994      1.0  0.78315  0.55727  0.44964  1.0000
  C   C995      1.0  0.78440  0.52033  0.42037  1.0000
  N   N83       1.0  0.75518  0.52667  0.32543  1.0000
  C   C996      1.0  0.91874  0.44477  0.48649  1.0000
  H   H993      1.0  0.97909  0.21862  0.36725  1.0000
  C   C997      1.0  0.77107  0.53416  0.41804  1.0000
  H   H994      1.0  0.74833  0.19889  0.39714  1.0000
  C   C998      1.0  0.98787  0.23764  0.36505  1.0000
  C   C999      1.0  0.95348  0.35685  0.48792  1.0000
  H   H995      1.0  0.77404  0.55014  0.32512  1.0000
  H   H996      1.0  0.78995  0.49938  0.40983  1.0000
  C   C1000     1.0  0.98286  0.54021  0.40531  1.0000
  H   H997      1.0  0.98823  0.51135  0.39841  1.0000
  C   C1001     1.0  0.80421  0.51671  0.43836  1.0000
  H   H998      1.0  0.99493  0.61329  0.40699  1.0000
  C   C1002     1.0  0.78863  0.46625  0.49228  1.0000
  H   H999      1.0  0.97951  0.31349  0.34379  1.0000
  H   H1000     1.0  0.75494  0.23893  0.40942  1.0000
  C   C1003     1.0  0.75048  0.48805  0.32217  1.0000
  C   C1004     1.0  0.98590  0.29082  0.33495  1.0000
  C   C1005     1.0  0.98881  0.30353  0.31452  1.0000
  H   H1001     1.0  0.98741  0.48758  0.43847  1.0000
  H   H1002     1.0  0.99636  0.21728  0.37178  1.0000
  H   H1003     1.0  0.92990  0.41727  0.46114  1.0000
  H   H1004     1.0  0.76884  0.49451  0.48685  1.0000
  C   C1006     1.0  0.99173  0.51889  0.43762  1.0000
  Fe  Fe168     1.0  0.74955  0.36625  0.39902  1.0000
  H   H1005     1.0  0.75331  0.57006  0.43024  1.0000
  S   S334      1.0  0.75203  0.42407  0.41591  1.0000
  H   H1006     1.0  0.90903  0.29391  0.49462  1.0000
  C   C1007     1.0  0.74790  0.56672  0.32140  1.0000
  H   H1007     1.0  0.75101  0.23964  0.44475  1.0000
  H   H1008     1.0  0.98577  0.26727  0.37346  1.0000
  H   H1009     1.0  0.95053  0.41943  0.50033  1.0000
  H   H1010     1.0  0.80608  0.19398  0.25781  1.0000
  S   S335      1.0  0.79701  0.29460  0.25376  1.0000
  Fe  Fe169     1.0  0.93598  0.95822  0.71949  1.0000
  S   S336      1.0  0.94885  0.96259  0.69026  1.0000
  N   N84       1.0  0.94647  0.27700  0.64249  1.0000
  Fe  Fe170     1.0  0.91034  0.97423  0.69757  1.0000
  S   S337      1.0  0.92156  0.98004  0.66705  1.0000
  S   S338      1.0  0.88773  0.98066  0.69957  1.0000
  Fe  Fe171     1.0  0.93484  0.92129  0.67932  1.0000
  S   S339      1.0  0.93891  0.85769  0.66438  1.0000
  Fe  Fe172     1.0  0.93455  0.02186  0.68018  1.0000
  S   S340      1.0  0.94356  0.08294  0.66285  1.0000
  S   S341      1.0  0.92271  0.91310  0.70886  1.0000
  S   S342      1.0  0.92250  0.02007  0.71036  1.0000
  H   H1011     1.0  0.77374  0.29027  0.56547  1.0000
  S   S343      1.0  0.97133  0.59359  0.61875  1.0000
  Fe  Fe173     1.0  0.92884  0.30518  0.58334  1.0000
  S   S344      1.0  0.92549  0.37311  0.59431  1.0000
  S   S345      1.0  0.92048  0.24696  0.60372  1.0000
  Fe  Fe174     1.0  0.94002  0.34442  0.54100  1.0000
  S   S346      1.0  0.93760  0.41409  0.54944  1.0000
  H   H1012     1.0  0.79154  0.54064  0.62586  1.0000
  Fe  Fe175     1.0  0.94558  0.38410  0.57848  1.0000
  S   S347      1.0  0.96283  0.40460  0.59305  1.0000
  Fe  Fe176     1.0  0.91769  0.39702  0.56446  1.0000
  S   S348      1.0  0.89973  0.44676  0.55818  1.0000
  S   S349      1.0  0.94936  0.31463  0.56908  1.0000
  S   S350      1.0  0.91969  0.32890  0.55447  1.0000
  Fe  Fe177     1.0  0.82969  0.82516  0.69866  1.0000
  S   S351      1.0  0.81905  0.76551  0.71100  1.0000
  S   S352      1.0  0.85174  0.82104  0.70294  1.0000
  Fe  Fe178     1.0  0.80456  0.87367  0.68323  1.0000
  S   S353      1.0  0.79218  0.81727  0.69450  1.0000
  S   S354      1.0  0.79821  0.94420  0.67002  1.0000
  Fe  Fe179     1.0  0.80259  0.81415  0.72276  1.0000
  H   H1013     1.0  0.98894  0.85147  0.70750  1.0000
  Fe  Fe180     1.0  0.80963  0.77249  0.68175  1.0000
  S   S355      1.0  0.80972  0.70524  0.66822  1.0000
  S   S356      1.0  0.81390  0.87280  0.71216  1.0000
  S   S357      1.0  0.82135  0.82982  0.66884  1.0000
  Fe  Fe181     1.0  0.82116  0.44750  0.56910  1.0000
  S   S358      1.0  0.81747  0.51441  0.55110  1.0000
  S   S359      1.0  0.83991  0.40115  0.57407  1.0000
  Fe  Fe182     1.0  0.79222  0.44535  0.58494  1.0000
  S   S360      1.0  0.78666  0.51217  0.56847  1.0000
  S   S361      1.0  0.77752  0.40969  0.60697  1.0000
  Fe  Fe183     1.0  0.79945  0.48655  0.54205  1.0000
  Fe  Fe184     1.0  0.80489  0.53433  0.57901  1.0000
  S   S362      1.0  0.80429  0.60310  0.59103  1.0000
  S   S363      1.0  0.80406  0.41858  0.55842  1.0000
  S   S364      1.0  0.80955  0.46878  0.59715  1.0000
  C   C1008     1.0  0.77146  0.36063  0.60150  1.0000
  C   C1009     1.0  0.77496  0.34394  0.58308  1.0000
  H   H1014     1.0  0.95446  0.18582  0.67458  1.0000
  C   C1010     1.0  0.76351  0.33670  0.61628  1.0000
  H   H1015     1.0  0.78098  0.36212  0.57151  1.0000
  H   H1016     1.0  0.78242  0.58998  0.63459  1.0000
  S   S365      1.0  0.94726  0.32412  0.50982  1.0000
  C   C1011     1.0  0.80847  0.67786  0.64631  1.0000
  C   C1012     1.0  0.80487  0.70080  0.62810  1.0000
  C   C1013     1.0  0.80377  0.67745  0.61148  1.0000
  C   C1014     1.0  0.80630  0.63072  0.61257  1.0000
  C   C1015     1.0  0.81010  0.60778  0.63067  1.0000
  C   C1016     1.0  0.81107  0.63110  0.64735  1.0000
  H   H1017     1.0  0.80284  0.73663  0.62687  1.0000
  H   H1018     1.0  0.80088  0.69594  0.59766  1.0000
  H   H1019     1.0  0.81223  0.57204  0.63198  1.0000
  H   H1020     1.0  0.81390  0.61277  0.66124  1.0000
  C   C1017     1.0  0.78454  0.96099  0.65595  1.0000
  C   C1018     1.0  0.77608  0.93085  0.65185  1.0000
  C   C1019     1.0  0.77045  0.02189  0.63958  1.0000
  C   C1020     1.0  0.78174  0.00644  0.64962  1.0000
  H   H1021     1.0  0.76834  0.05701  0.63493  1.0000
  H   H1022     1.0  0.78825  0.02990  0.65276  1.0000
  C   C1021     1.0  0.88325  0.43232  0.56133  1.0000
  C   C1022     1.0  0.87300  0.46376  0.55474  1.0000
  C   C1023     1.0  0.85968  0.45446  0.55808  1.0000
  C   C1024     1.0  0.85651  0.41357  0.56812  1.0000
  C   C1025     1.0  0.86678  0.38194  0.57441  1.0000
  C   C1026     1.0  0.88009  0.39120  0.57105  1.0000
  H   H1023     1.0  0.87535  0.49564  0.54714  1.0000
  H   H1024     1.0  0.85188  0.47907  0.55310  1.0000
  H   H1025     1.0  0.86444  0.35019  0.58218  1.0000
  H   H1026     1.0  0.88786  0.36673  0.57627  1.0000
  C   C1027     1.0  0.96903  0.54028  0.61243  1.0000
  C   C1028     1.0  0.95691  0.53379  0.60558  1.0000
  C   C1029     1.0  0.95482  0.49252  0.59957  1.0000
  C   C1030     1.0  0.96478  0.45706  0.60070  1.0000
  C   C1031     1.0  0.97682  0.46334  0.60785  1.0000
  C   C1032     1.0  0.97899  0.50484  0.61352  1.0000
  H   H1027     1.0  0.94912  0.56095  0.60480  1.0000
  H   H1028     1.0  0.94550  0.48809  0.59421  1.0000
  H   H1029     1.0  0.98456  0.43604  0.60886  1.0000
  N   N85       1.0  0.98359  0.58443  0.56731  1.0000
  C   C1033     1.0  0.93701  0.12429  0.64442  1.0000
  C   C1034     1.0  0.94572  0.15076  0.63202  1.0000
  C   C1035     1.0  0.94092  0.18738  0.61890  1.0000
  C   C1036     1.0  0.92728  0.19815  0.61806  1.0000
  C   C1037     1.0  0.91860  0.17087  0.63001  1.0000
  C   C1038     1.0  0.92340  0.13418  0.64307  1.0000
  H   H1030     1.0  0.95627  0.14337  0.63286  1.0000
  H   H1031     1.0  0.94775  0.20767  0.60972  1.0000
  H   H1032     1.0  0.90803  0.17870  0.62948  1.0000
  H   H1033     1.0  0.91656  0.11435  0.65251  1.0000
  C   C1039     1.0  0.87771  0.93583  0.70219  1.0000
  C   C1040     1.0  0.86401  0.94505  0.70060  1.0000
  C   C1041     1.0  0.85586  0.91038  0.70114  1.0000
  C   C1042     1.0  0.86133  0.86603  0.70341  1.0000
  C   C1043     1.0  0.87493  0.85681  0.70567  1.0000
  C   C1044     1.0  0.88309  0.89145  0.70500  1.0000
  H   H1034     1.0  0.85974  0.97927  0.69852  1.0000
  H   H1035     1.0  0.84540  0.91803  0.69946  1.0000
  H   H1036     1.0  0.87923  0.82261  0.70765  1.0000
  H   H1037     1.0  0.89355  0.88381  0.70659  1.0000
  C   C1045     1.0  0.95513  0.83658  0.65621  1.0000
  C   C1046     1.0  0.95727  0.79354  0.65021  1.0000
  C   C1047     1.0  0.97012  0.77488  0.64436  1.0000
  C   C1048     1.0  0.98090  0.79949  0.64416  1.0000
  C   C1049     1.0  0.97874  0.84272  0.64996  1.0000
  C   C1050     1.0  0.96591  0.86112  0.65611  1.0000
  H   H1038     1.0  0.94897  0.77436  0.65025  1.0000
  H   H1039     1.0  0.97168  0.74155  0.63994  1.0000
  H   H1040     1.0  0.90935  0.84558  0.65697  1.0000
  H   H1041     1.0  0.96436  0.89434  0.66065  1.0000
  N   N86       1.0  0.86583  0.52015  0.59746  1.0000
  C   C1051     1.0  0.85981  0.56256  0.59421  1.0000
  C   C1052     1.0  0.85839  0.48503  0.60225  1.0000
  C   C1053     1.0  0.84599  0.57062  0.59559  1.0000
  C   C1054     1.0  0.84457  0.49186  0.60357  1.0000
  C   C1055     1.0  0.83836  0.53496  0.60022  1.0000
  C   C1056     1.0  0.88032  0.51277  0.59564  1.0000
  H   H1042     1.0  0.86569  0.59041  0.59043  1.0000
  H   H1043     1.0  0.86311  0.45127  0.60453  1.0000
  H   H1044     1.0  0.84116  0.60423  0.59300  1.0000
  H   H1045     1.0  0.83877  0.46369  0.60679  1.0000
  H   H1046     1.0  0.82765  0.54087  0.60109  1.0000
  H   H1047     1.0  0.88396  0.47687  0.59824  1.0000
  H   H1048     1.0  0.88435  0.52477  0.58026  1.0000
  H   H1049     1.0  0.88442  0.53049  0.60666  1.0000
  N   N87       1.0  0.80107  0.25661  0.59270  1.0000
  C   C1057     1.0  0.79673  0.27925  0.60885  1.0000
  C   C1058     1.0  0.81090  0.27146  0.57903  1.0000
  C   C1059     1.0  0.80231  0.31772  0.61166  1.0000
  C   C1060     1.0  0.81675  0.30964  0.58148  1.0000
  C   C1061     1.0  0.81241  0.33283  0.59791  1.0000
  C   C1062     1.0  0.79511  0.21660  0.58965  1.0000
  H   H1050     1.0  0.78863  0.26848  0.61933  1.0000
  H   H1051     1.0  0.81419  0.25393  0.56607  1.0000
  H   H1052     1.0  0.79852  0.33646  0.62409  1.0000
  H   H1053     1.0  0.82451  0.32167  0.57060  1.0000
  H   H1054     1.0  0.81674  0.36284  0.59978  1.0000
  H   H1055     1.0  0.78992  0.22253  0.57575  1.0000
  H   H1056     1.0  0.80280  0.18796  0.58852  1.0000
  H   H1057     1.0  0.78758  0.20724  0.60211  1.0000
  H   H1058     1.0  0.92686  0.30252  0.63606  1.0000
  H   H1059     1.0  0.77854  0.53637  0.64615  1.0000
  C   C1063     1.0  0.95583  0.80349  0.70535  1.0000
  C   C1064     1.0  0.76515  0.03333  0.69312  1.0000
  C   C1065     1.0  0.93298  0.27843  0.64520  1.0000
  C   C1066     1.0  0.98737  0.50660  0.56307  1.0000
  S   S366      1.0  0.76000  0.22457  0.59046  1.0000
  H   H1060     1.0  0.98833  0.50931  0.61883  1.0000
  C   C1067     1.0  0.94838  0.21274  0.66687  1.0000
  C   C1068     1.0  0.95599  0.84226  0.71437  1.0000
  H   H1061     1.0  0.76811  0.48751  0.62752  1.0000
  C   C1069     1.0  0.96795  0.85958  0.71519  1.0000
  S   S367      1.0  0.99724  0.77651  0.63783  1.0000
  C   C1070     1.0  0.97452  0.62516  0.56828  1.0000
  C   C1071     1.0  0.90877  0.39119  0.51102  1.0000
  S   S368      1.0  0.94438  0.92640  0.74882  1.0000
  H   H1062     1.0  0.76000  0.10434  0.69088  1.0000
  S   S369      1.0  0.99361  0.64896  0.65272  1.0000
  H   H1063     1.0  0.91618  0.24734  0.66042  1.0000
  S   S370      1.0  0.78949  0.49917  0.51235  1.0000
  H   H1064     1.0  0.77501  0.03466  0.69754  1.0000
  H   H1065     1.0  0.96748  0.75242  0.69017  1.0000
  H   H1066     1.0  0.75838  0.92278  0.63836  1.0000
  S   S371      1.0  0.99658  0.67734  0.60371  1.0000
  H   H1067     1.0  0.93005  0.18835  0.67978  1.0000
  H   H1068     1.0  0.75311  0.48271  0.60173  1.0000
  H   H1069     1.0  0.97789  0.64735  0.57822  1.0000
  H   H1070     1.0  0.84421  0.86021  0.74031  1.0000
  H   H1071     1.0  0.76756  0.96214  0.69306  1.0000
  H   H1072     1.0  0.83705  0.78519  0.74112  1.0000
  H   H1073     1.0  0.77816  0.89578  0.65667  1.0000
  H   H1074     1.0  0.95409  0.29388  0.61253  1.0000
  H   H1075     1.0  0.94649  0.79082  0.70399  1.0000
  H   H1076     1.0  0.94655  0.34063  0.62515  1.0000
  H   H1077     1.0  0.88740  0.82596  0.65954  1.0000
  N   N88       1.0  0.97946  0.79933  0.69832  1.0000
  H   H1078     1.0  0.97382  0.64319  0.55310  1.0000
  C   C1072     1.0  0.91121  0.43517  0.50463  1.0000
  H   H1079     1.0  0.86354  0.84642  0.65635  1.0000
  H   H1080     1.0  0.85481  0.92603  0.65139  1.0000
  C   C1073     1.0  0.76161  0.58762  0.58783  1.0000
  C   C1074     1.0  0.77084  0.30313  0.57970  1.0000
  C   C1075     1.0  0.97888  0.54583  0.56405  1.0000
  C   C1076     1.0  0.87025  0.87211  0.65484  1.0000
  C   C1077     1.0  0.86534  0.91685  0.65216  1.0000
  H   H1081     1.0  0.99030  0.74934  0.68148  1.0000
  C   C1078     1.0  0.88376  0.86078  0.65674  1.0000
  C   C1079     1.0  0.87394  0.94963  0.65148  1.0000
  N   N89       1.0  0.89214  0.89316  0.65587  1.0000
  H   H1082     1.0  0.87016  0.98451  0.65028  1.0000
  C   C1080     1.0  0.76316  0.27859  0.59461  1.0000
  C   C1081     1.0  0.88738  0.93711  0.65347  1.0000
  C   C1082     1.0  0.90616  0.88111  0.65876  1.0000
  H   H1083     1.0  0.77545  0.61838  0.60218  1.0000
  H   H1084     1.0  0.76074  0.34938  0.63057  1.0000
  C   C1083     1.0  0.77019  0.58918  0.60254  1.0000
  H   H1085     1.0  0.92099  0.29376  0.51253  1.0000
  H   H1086     1.0  0.98703  0.86199  0.64978  1.0000
  N   N90       1.0  0.77219  0.55393  0.61686  1.0000
  H   H1087     1.0  0.89390  0.96276  0.65383  1.0000
  C   C1084     1.0  0.95418  0.24447  0.65298  1.0000
  C   C1085     1.0  0.76612  0.51619  0.61667  1.0000
  H   H1088     1.0  0.96248  0.31534  0.63099  1.0000
  C   C1086     1.0  0.75935  0.29583  0.61286  1.0000
  C   C1087     1.0  0.91172  0.31133  0.50691  1.0000
  H   H1089     1.0  0.91252  0.90116  0.64765  1.0000
  H   H1090     1.0  0.90810  0.88727  0.67401  1.0000
  C   C1088     1.0  0.96774  0.78213  0.69746  1.0000
  C   C1089     1.0  0.95270  0.30813  0.62707  1.0000
  C   C1090     1.0  0.76096  0.99248  0.69064  1.0000
  C   C1091     1.0  0.76487  0.94625  0.64153  1.0000
  H   H1091     1.0  0.98346  0.47567  0.56132  1.0000
  H   H1092     1.0  0.90743  0.46140  0.51390  1.0000
  C   C1092     1.0  0.76198  0.99182  0.63550  1.0000
  H   H1093     1.0  0.94684  0.85914  0.72058  1.0000
  C   C1093     1.0  0.99195  0.77637  0.69038  1.0000
  H   H1094     1.0  0.96487  0.24213  0.65024  1.0000
  C   C1094     1.0  0.93463  0.21418  0.66983  1.0000
  H   H1095     1.0  0.96805  0.89004  0.72205  1.0000
  C   C1095     1.0  0.92686  0.24728  0.65899  1.0000
  C   C1096     1.0  0.97968  0.83760  0.70699  1.0000
  H   H1096     1.0  0.90297  0.38418  0.52522  1.0000
  C   C1097     1.0  0.78163  0.55524  0.63162  1.0000
  H   H1097     1.0  0.96841  0.54480  0.56287  1.0000
  C   C1098     1.0  0.75678  0.07230  0.68928  1.0000
  Fe  Fe185     1.0  0.99063  0.61841  0.62483  1.0000
  C   C1099     1.0  0.74850  0.99123  0.68400  1.0000
  H   H1098     1.0  0.96452  0.61741  0.57500  1.0000
  H   H1099     1.0  0.90367  0.30896  0.51928  1.0000
  H   H1100     1.0  0.75349  0.27718  0.62449  1.0000
  C   C1100     1.0  0.99680  0.58559  0.56886  1.0000
  C   C1101     1.0  0.75755  0.51334  0.60212  1.0000
  C   C1102     1.0  0.75525  0.54940  0.58767  1.0000
  H   H1101     1.0  0.76023  0.61534  0.57631  1.0000
  H   H1102     1.0  0.74888  0.54718  0.57602  1.0000
  H   H1103     1.0  0.99770  0.79998  0.68006  1.0000
  C   C1103     1.0  0.82872  0.94817  0.97782  1.0000
  H   H1104     1.0  0.95221  0.06370  0.83140  1.0000
  Fe  Fe186     1.0  0.97962  0.94190  0.84834  1.0000
  S   S372      1.0  0.97205  0.87768  0.86164  1.0000
  S   S373      1.0  0.97093  0.98598  0.82198  1.0000
  Fe  Fe187     1.0  0.97393  0.89892  0.89195  1.0000
  S   S374      1.0  0.95719  0.88529  0.91643  1.0000
  H   H1105     1.0  0.75517  0.10135  0.82996  1.0000
  S   S375      1.0  0.97963  0.96638  0.87876  1.0000
  H   H1106     1.0  0.94834  0.03823  0.86909  1.0000
  H   H1107     1.0  0.94175  0.04431  0.81557  1.0000
  Fe  Fe188     1.0  0.77358  0.91071  0.91125  1.0000
  C   C1104     1.0  0.93800  0.93219  0.85164  1.0000
  S   S376      1.0  0.78604  0.90115  0.93856  1.0000
  Fe  Fe189     1.0  0.77224  0.89908  0.86561  1.0000
  H   H1108     1.0  0.83653  0.90568  0.76825  1.0000
  S   S377      1.0  0.78403  0.90113  0.83435  1.0000
  N   N91       1.0  0.98352  0.76689  0.90912  1.0000
  H   H1109     1.0  0.94081  0.90153  0.88162  1.0000
  H   H1110     1.0  0.94731  0.96981  0.89287  1.0000
  H   H1111     1.0  0.93550  0.90217  0.84638  1.0000
  S   S378      1.0  0.77619  0.95557  0.88240  1.0000
  S   S379      1.0  0.77156  0.85179  0.89441  1.0000
  H   H1112     1.0  0.93437  0.07521  0.83585  1.0000
  H   H1113     1.0  0.82169  0.87482  0.79698  1.0000
  H   H1114     1.0  0.82603  0.92605  0.96779  1.0000
  C   C1105     1.0  0.79634  0.93846  0.99072  1.0000
  C   C1106     1.0  0.79493  0.91447  0.97450  1.0000
  C   C1107     1.0  0.78782  0.93388  0.95829  1.0000
  C   C1108     1.0  0.78224  0.97803  0.95850  1.0000
  C   C1109     1.0  0.78376  0.00215  0.97462  1.0000
  H   H1115     1.0  0.77052  0.03999  0.85201  1.0000
  H   H1116     1.0  0.79928  0.88036  0.97460  1.0000
  H   H1117     1.0  0.77681  0.99371  0.94617  1.0000
  H   H1118     1.0  0.77940  0.03628  0.97448  1.0000
  C   C1110     1.0  0.78935  0.83053  0.77627  1.0000
  C   C1111     1.0  0.78296  0.81053  0.79403  1.0000
  C   C1112     1.0  0.78090  0.83194  0.81175  1.0000
  C   C1113     1.0  0.78537  0.87363  0.81208  1.0000
  C   C1114     1.0  0.79167  0.89381  0.79427  1.0000
  C   C1115     1.0  0.79354  0.87271  0.77647  1.0000
  H   H1119     1.0  0.77964  0.77797  0.79414  1.0000
  H   H1120     1.0  0.77610  0.81570  0.82524  1.0000
  H   H1121     1.0  0.79519  0.92602  0.79424  1.0000
  H   H1122     1.0  0.84248  0.89893  0.99243  1.0000
  C   C1116     1.0  0.95191  0.94414  0.76877  1.0000
  C   C1117     1.0  0.95586  0.91220  0.78446  1.0000
  C   C1118     1.0  0.96187  0.92423  0.80065  1.0000
  C   C1119     1.0  0.96403  0.96855  0.80138  1.0000
  C   C1120     1.0  0.96006  0.00055  0.78572  1.0000
  C   C1121     1.0  0.95405  0.98849  0.76951  1.0000
  H   H1123     1.0  0.95425  0.87780  0.78409  1.0000
  H   H1124     1.0  0.96482  0.89921  0.81256  1.0000
  H   H1125     1.0  0.96171  0.03492  0.78606  1.0000
  H   H1126     1.0  0.95112  0.01346  0.75757  1.0000
  C   C1122     1.0  0.96021  0.86225  0.98482  1.0000
  C   C1123     1.0  0.94817  0.86093  0.97686  1.0000
  C   C1124     1.0  0.94736  0.86873  0.95595  1.0000
  C   C1125     1.0  0.95853  0.87836  0.94276  1.0000
  C   C1126     1.0  0.97052  0.88037  0.95074  1.0000
  C   C1127     1.0  0.97135  0.87209  0.97161  1.0000
  C   C1128     1.0  0.75527  0.99395  0.82296  1.0000
  H   H1127     1.0  0.93804  0.86698  0.94999  1.0000
  H   H1128     1.0  0.97918  0.88804  0.94084  1.0000
  H   H1129     1.0  0.98071  0.87342  0.97757  1.0000
  N   N92       1.0  0.82588  0.01979  0.99018  1.0000
  H   H1130     1.0  0.96502  0.79615  0.89933  1.0000
  H   H1131     1.0  0.75703  0.93945  0.96137  1.0000
  Fe  Fe190     1.0  0.99347  0.85131  0.86179  1.0000
  Fe  Fe191     1.0  0.75411  0.97148  0.88540  1.0000
  C   C1129     1.0  0.94466  0.97022  0.87769  1.0000
  C   C1130     1.0  0.93853  0.97141  0.83859  1.0000
  C   C1131     1.0  0.94254  0.05019  0.83130  1.0000
  S   S380      1.0  0.75174  0.93046  0.91521  1.0000
  C   C1132     1.0  0.94101  0.93179  0.87134  1.0000
  H   H1132     1.0  0.76121  0.96219  0.82523  1.0000
  C   C1133     1.0  0.94520  0.00874  0.86419  1.0000
  H   H1133     1.0  0.93642  0.97119  0.82318  1.0000
  N   N93       1.0  0.94210  0.00902  0.84496  1.0000
  C   C1134     1.0  0.83790  0.93296  0.99165  1.0000
  C   C1135     1.0  0.82119  0.74361  0.76945  1.0000
  C   C1136     1.0  0.82125  0.81272  0.78476  1.0000
  C   C1137     1.0  0.76744  0.85929  0.99560  1.0000
  H   H1134     1.0  0.97538  0.76688  0.88126  1.0000
  H   H1135     1.0  0.81010  0.06934  0.98258  1.0000
  C   C1138     1.0  0.77223  0.03002  0.83658  1.0000
  C   C1139     1.0  0.97220  0.76622  0.89754  1.0000
  Fe  Fe192     1.0  0.74968  0.87404  0.89733  1.0000
  S   S381      1.0  0.99476  0.86751  0.89300  1.0000
  H   H1136     1.0  0.97183  0.79702  0.93285  1.0000
  C   C1140     1.0  0.75565  0.90614  0.96958  1.0000
  H   H1137     1.0  0.82902  0.71828  0.77503  1.0000
  S   S382      1.0  0.75015  0.91744  0.86771  1.0000
  H   H1138     1.0  0.77757  0.99603  0.83750  1.0000
  H   H1139     1.0  0.81459  0.79992  0.79714  1.0000
  C   C1141     1.0  0.82523  0.85523  0.78474  1.0000
  H   H1140     1.0  0.77874  0.05281  0.82727  1.0000
  C   C1142     1.0  0.83348  0.87257  0.76862  1.0000
  H   H1141     1.0  0.93951  0.85328  0.98677  1.0000
  C   C1143     1.0  0.79077  0.98262  0.99090  1.0000
  H   H1142     1.0  0.76786  0.83139  0.98688  1.0000
  C   C1144     1.0  0.75200  0.07169  0.82527  1.0000
  H   H1143     1.0  0.82645  0.08831  0.98005  1.0000
  H   H1144     1.0  0.96715  0.73588  0.90262  1.0000
  H   H1145     1.0  0.76033  0.88152  0.95939  1.0000
  C   C1145     1.0  0.76125  0.93551  0.99953  1.0000
  H   H1146     1.0  0.81176  0.73986  0.77904  1.0000
  H   H1147     1.0  0.79846  0.88870  0.76302  1.0000
  C   C1146     1.0  0.98164  0.78401  0.92713  1.0000
  N   N94       1.0  0.75956  0.03178  0.82800  1.0000
  N   N95       1.0  0.76176  0.90030  0.98855  1.0000
  N   N96       1.0  0.82529  0.78835  0.76907  1.0000
  H   H1148     1.0  0.81562  0.00344  0.96652  1.0000
  C   C1147     1.0  0.82285  0.99205  0.97719  1.0000
  S   S383      1.0  0.79250  0.80019  0.75482  1.0000
  C   C1148     1.0  0.81976  0.06584  0.98917  1.0000
  H   H1149     1.0  0.81918  0.73731  0.75425  1.0000
  H   H1150     1.0  0.99084  0.80064  0.95224  1.0000
  H   H1151     1.0  0.75687  0.96813  0.99387  1.0000
  C   C1149     1.0  0.83776  0.84713  0.75291  1.0000
  C   C1150     1.0  0.83362  0.80472  0.75342  1.0000
  C   C1151     1.0  0.99236  0.78601  0.93819  1.0000
  C   C1152     1.0  0.99583  0.74923  0.90218  1.0000
  H   H1152     1.0  0.99727  0.73434  0.88823  1.0000
  S   S384      1.0  0.99741  0.78354  0.85047  1.0000
