data_image0
_chemical_formula_structural       S2FeSFeS3CS2FeSFeS2C2HC3H3C6H4C5H3C6FeH6C2H2C3H3CH2CHCH2NH2SC2NCH2C3HCNC3HCHC3NCH7C2HNHSFeH2CHCH3SCFeHFeCHCHSC2HCSHCS2HC3HNCH2SCFeHCHCH2FeHCHCHSCFeNHFeHC3HCH3CS2FeCFeSCSHC2HFeSHSFeSFeS3HCH3SNFeS2C7H6CH3CHCSC7H3CHC2HC2H5CHCH2C2H3CSNSHFeC2H4FeHC2NHC3HCH2CS2FeSFeS2FeSFeS3FeS2FeS2Fe2S6CHC4H3C6H4C2FeC2H4C6H4C6H4FeCHC3FeCH2C3HCH2CHCHSHSH2NHCHCHNC6H7CH5CHCH2CHCSH2CFeHCHC2SH4CNH3C2HC5NH2NH4CSH2SNC4HC2HC3SFeS2FeS2FeSFeS3HSFeSFeS2FeS2FeSFeS3HS2HSC6H5C5NH2C6H4C6H4C6H4C6H3C3HC3HCH2NC6H11C2HC5HC2HFeHNC6H4SH5CH6C3SNH3FeCH2NC2H5NCFeCHCHCHC4H4SHFeSFeNSCSHFeS2HCHFeHNCHCHCHSHCHSC2HSC2SHCHCHCH2CHCHCHC2H2CSH2CH4CFeSCSC2S2CFeSC3H2C2H2FeC2SC4HC3HCHSHFeHC2H3CH3SH3C2SH2NCH3CH2C2HNCHC3NH4CH2CHFeS2FeS2FeSFeS3NSHS2C2FeS2FeSCFeSFeS4HSFeSC6H4C6NH3CH3CNC6H4C6H4CHCH2C8H4NCHCSHC2HCHC2HFeCH3C2H3C3H2CHCHSH2CH2CNH2C2H3SCFeNFeHFeHCH3SCH3SCH3CH2CHC4FeS2FeS2Fe2S3FeS2Fe2S2CSFe2S2FeS2CHFeSHFeS2Fe2S3C6H4C6H4FeH2SCH2C2H2C6H4C6H4C6H4CHCHSCHNC5H3CHCSH2SC2H4FeH6CSC2SH2C2NC3NH4C2HNC5H2CHS2H4C2HNH2CH6CH4SCH2C2FeSCSC2FeCSHCS2FeSFeSH3SHCHC7H6CHCHC7H3C2HNHNH2C3HCH2CHNH3CHCHC2S2HC3H7NC3HC5HC3H2CNH2SH3C4HC2HC2HC3HC2H5S2FeSFeSFe2S2CSFeCSFeS3HSFe2S2C6H4C6H4C6H3CHC5H3CNHSH3CHFeC2H2C4H4CHCHNCHC5H3CHC3NHS2CHCH2CH2FeHC2H2C2HCSCH2NSFeH5C2H3NHCH
_chemical_formula_sum              "S192 Fe96 C576 H576 N48"
_cell_length_a       64.0685
_cell_length_b       51.4898
_cell_length_c       33.6855
_cell_angle_alpha    90.2248
_cell_angle_beta     90.2006
_cell_angle_gamma    89.7296

_space_group_name_H-M_alt    "P 1"
_space_group_IT_number       1

loop_
  _space_group_symop_operation_xyz
  'x, y, z'

loop_
  _atom_site_type_symbol
  _atom_site_label
  _atom_site_symmetry_multiplicity
  _atom_site_fract_x
  _atom_site_fract_y
  _atom_site_fract_z
  _atom_site_occupancy
  S   S1        1.0  0.25883  0.41936  0.99897  1.0000
  S   S2        1.0  0.29583  0.35163  0.01793  1.0000
  Fe  Fe1       1.0  0.15161  0.46897  0.10776  1.0000
  S   S3        1.0  0.17650  0.43668  0.10468  1.0000
  Fe  Fe2       1.0  0.10354  0.47899  0.10991  1.0000
  S   S4        1.0  0.06984  0.46837  0.09306  1.0000
  S   S5        1.0  0.12754  0.47818  0.06111  1.0000
  S   S6        1.0  0.12704  0.46619  0.15577  1.0000
  C   C1        1.0  0.18325  0.49403  0.24517  1.0000
  S   S7        1.0  0.13344  0.01995  0.17059  1.0000
  S   S8        1.0  0.13379  0.01688  0.07349  1.0000
  Fe  Fe3       1.0  0.15772  0.01563  0.12211  1.0000
  S   S9        1.0  0.18789  0.03968  0.12473  1.0000
  Fe  Fe4       1.0  0.10922  0.01781  0.12153  1.0000
  S   S10       1.0  0.08293  0.04670  0.10617  1.0000
  S   S11       1.0  0.29656  0.11493  0.03455  1.0000
  C   C2        1.0  0.20530  0.04775  0.08571  1.0000
  C   C3        1.0  0.20205  0.03948  0.04660  1.0000
  H   H1        1.0  0.01977  0.46808  0.16818  1.0000
  C   C4        1.0  0.23388  0.06167  0.02514  1.0000
  C   C5        1.0  0.23706  0.07021  0.06418  1.0000
  C   C6        1.0  0.22290  0.06313  0.09428  1.0000
  H   H2        1.0  0.18860  0.02768  0.03950  1.0000
  H   H3        1.0  0.25052  0.08200  0.07124  1.0000
  H   H4        1.0  0.22555  0.06966  0.12446  1.0000
  C   C7        1.0  0.01399  0.05981  0.14255  1.0000
  C   C8        1.0  0.02382  0.07629  0.11557  1.0000
  C   C9        1.0  0.04487  0.07191  0.10493  1.0000
  C   C10       1.0  0.05643  0.05112  0.12110  1.0000
  C   C11       1.0  0.04655  0.03452  0.14785  1.0000
  C   C12       1.0  0.02549  0.03887  0.15846  1.0000
  H   H5        1.0  0.01527  0.09248  0.10306  1.0000
  H   H6        1.0  0.05231  0.08491  0.08422  1.0000
  H   H7        1.0  0.05516  0.01844  0.16056  1.0000
  H   H8        1.0  0.01809  0.02596  0.17934  1.0000
  C   C13       1.0  0.23578  0.42326  0.02831  1.0000
  C   C14       1.0  0.20463  0.44940  0.04437  1.0000
  C   C15       1.0  0.19888  0.43176  0.07385  1.0000
  C   C16       1.0  0.21172  0.40987  0.08034  1.0000
  C   C17       1.0  0.23000  0.40559  0.05773  1.0000
  H   H9        1.0  0.19499  0.46632  0.03884  1.0000
  H   H10       1.0  0.20751  0.39605  0.10302  1.0000
  H   H11       1.0  0.23962  0.38863  0.06312  1.0000
  C   C18       1.0  0.01987  0.41107  0.13741  1.0000
  C   C19       1.0  0.01612  0.42702  0.10462  1.0000
  C   C20       1.0  0.03187  0.44374  0.09075  1.0000
  C   C21       1.0  0.05159  0.44471  0.10930  1.0000
  C   C22       1.0  0.05554  0.42827  0.14146  1.0000
  C   C23       1.0  0.03973  0.41165  0.15551  1.0000
  Fe  Fe5       1.0  0.32851  0.36806  0.01663  1.0000
  H   H12       1.0  0.02860  0.45633  0.06584  1.0000
  H   H13       1.0  0.07065  0.42867  0.15590  1.0000
  H   H14       1.0  0.04286  0.39927  0.18073  1.0000
  H   H15       1.0  0.28589  0.02588  0.01286  1.0000
  H   H16       1.0  0.03898  0.45102  0.22217  1.0000
  H   H17       1.0  0.25335  0.17748  0.04559  1.0000
  C   C24       1.0  0.24388  0.16230  0.03223  1.0000
  C   C25       1.0  0.19446  0.46566  0.19216  1.0000
  H   H18       1.0  0.08771  0.48239  0.01649  1.0000
  H   H19       1.0  0.18575  0.13139  0.05971  1.0000
  C   C26       1.0  0.21511  0.48185  0.13635  1.0000
  C   C27       1.0  0.26404  0.02142  0.10432  1.0000
  C   C28       1.0  0.28430  0.02740  0.04488  1.0000
  H   H20       1.0  0.29150  0.28167  0.00979  1.0000
  H   H21       1.0  0.20398  0.48568  0.11165  1.0000
  H   H22       1.0  0.19528  0.09933  0.04746  1.0000
  C   C29       1.0  0.22827  0.14989  0.05399  1.0000
  H   H23       1.0  0.27783  0.03616  0.15792  1.0000
  H   H24       1.0  0.17529  0.45348  0.24124  1.0000
  C   C30       1.0  0.00428  0.32063  0.14289  1.0000
  H   H25       1.0  0.20467  0.11512  0.09114  1.0000
  C   C31       1.0  0.29995  0.03908  0.06774  1.0000
  H   H26       1.0  0.31389  0.04604  0.05313  1.0000
  H   H27       1.0  0.22554  0.15584  0.08446  1.0000
  N   N1        1.0  0.21663  0.13050  0.03712  1.0000
  H   H28       1.0  0.00395  0.28713  0.18105  1.0000
  H   H29       1.0  0.00838  0.26433  0.03190  1.0000
  S   S12       1.0  0.29703  0.18635  0.01012  1.0000
  C   C32       1.0  0.02776  0.48722  0.16927  1.0000
  C   C33       1.0  0.18362  0.46944  0.22769  1.0000
  N   N2        1.0  0.20457  0.48589  0.17444  1.0000
  C   C34       1.0  0.00268  0.29414  0.15081  1.0000
  H   H30       1.0  0.19457  0.44650  0.17865  1.0000
  H   H31       1.0  0.07156  0.44937  0.26187  1.0000
  C   C35       1.0  0.22295  0.44519  0.02191  1.0000
  C   C36       1.0  0.99854  0.31154  0.07339  1.0000
  C   C37       1.0  0.99924  0.27674  0.11944  1.0000
  H   H32       1.0  0.25385  0.00984  0.04581  1.0000
  C   C38       1.0  0.22003  0.12312  0.99859  1.0000
  N   N3        1.0  0.29765  0.04193  0.10789  1.0000
  C   C39       1.0  0.27991  0.03347  0.12623  1.0000
  C   C40       1.0  0.19974  0.11858  0.05992  1.0000
  C   C41       1.0  0.26632  0.01837  0.06338  1.0000
  H   H33       1.0  0.29040  0.23783  0.04042  1.0000
  C   C42       1.0  0.29331  0.23960  0.00893  1.0000
  H   H34       1.0  0.00096  0.42680  0.09033  1.0000
  C   C43       1.0  0.06887  0.46519  0.24130  1.0000
  C   C44       1.0  0.21626  0.04641  0.01657  1.0000
  C   C45       1.0  0.31412  0.05490  0.13080  1.0000
  N   N4        1.0  0.99696  0.28559  0.08139  1.0000
  C   C46       1.0  0.05049  0.46624  0.21872  1.0000
  H   H35       1.0  0.31486  0.07578  0.12253  1.0000
  H   H36       1.0  0.24979  0.01515  0.11872  1.0000
  H   H37       1.0  0.22086  0.46151  0.13328  1.0000
  H   H38       1.0  0.31163  0.05356  0.16332  1.0000
  H   H39       1.0  0.00683  0.33447  0.16684  1.0000
  H   H40       1.0  0.22718  0.45902  0.99927  1.0000
  H   H41       1.0  0.99650  0.31861  0.04332  1.0000
  C   C47       1.0  0.00240  0.32939  0.10393  1.0000
  C   C48       1.0  0.08374  0.48471  0.23710  1.0000
  H   H42       1.0  0.09426  0.02185  0.03287  1.0000
  N   N5        1.0  0.04728  0.48585  0.19203  1.0000
  H   H43       1.0  0.99788  0.25617  0.12589  1.0000
  S   S13       1.0  0.00010  0.39097  0.15785  1.0000
  Fe  Fe6       1.0  0.32712  0.09684  0.01675  1.0000
  H   H44       1.0  0.03097  0.49275  0.13798  1.0000
  H   H45       1.0  0.00371  0.34998  0.09758  1.0000
  C   C49       1.0  0.08477  0.01114  0.01182  1.0000
  H   H46       1.0  0.05713  0.01372  0.04774  1.0000
  C   C50       1.0  0.06380  0.00664  0.02007  1.0000
  H   H47       1.0  0.09809  0.48429  0.25438  1.0000
  H   H48       1.0  0.22882  0.49480  0.13325  1.0000
  H   H49       1.0  0.21361  0.03972  0.98648  1.0000
  S   S14       1.0  0.28996  0.37522  0.92713  1.0000
  C   C51       1.0  0.30061  0.24460  0.92790  1.0000
  Fe  Fe7       1.0  0.30261  0.33847  0.95536  1.0000
  H   H50       1.0  0.28690  0.44736  0.94908  1.0000
  Fe  Fe8       1.0  0.32255  0.39094  0.93120  1.0000
  C   C52       1.0  0.32487  0.41660  0.76858  1.0000
  H   H51       1.0  0.31369  0.49317  0.92825  1.0000
  C   C53       1.0  0.29967  0.06082  0.71898  1.0000
  H   H52       1.0  0.32336  0.46178  0.94478  1.0000
  S   S15       1.0  0.32901  0.09913  0.86185  1.0000
  C   C54       1.0  0.29506  0.05561  0.75860  1.0000
  C   C55       1.0  0.30119  0.46203  0.85597  1.0000
  H   H53       1.0  0.31414  0.40645  0.74918  1.0000
  C   C56       1.0  0.26987  0.43620  0.85517  1.0000
  S   S16       1.0  0.28714  0.12251  0.93940  1.0000
  H   H54       1.0  0.25840  0.42535  0.91297  1.0000
  C   C57       1.0  0.28651  0.44816  0.91690  1.0000
  S   S17       1.0  0.31229  0.07071  0.97042  1.0000
  S   S18       1.0  0.25132  0.06930  0.98596  1.0000
  H   H55       1.0  0.29453  0.07130  0.78028  1.0000
  C   C58       1.0  0.29759  0.26718  0.95098  1.0000
  C   C59       1.0  0.27031  0.43571  0.89657  1.0000
  C   C60       1.0  0.30114  0.04025  0.69180  1.0000
  H   H56       1.0  0.30305  0.20259  0.92722  1.0000
  N   N6        1.0  0.30187  0.46072  0.89653  1.0000
  C   C61       1.0  0.08554  0.49101  0.98742  1.0000
  H   H57       1.0  0.25765  0.42609  0.83908  1.0000
  H   H58       1.0  0.28538  0.44982  0.80243  1.0000
  S   S19       1.0  0.29876  0.29807  0.92755  1.0000
  C   C62       1.0  0.30043  0.21970  0.94532  1.0000
  Fe  Fe9       1.0  0.28226  0.09145  0.98546  1.0000
  H   H59       1.0  0.21110  0.10747  0.98527  1.0000
  C   C63       1.0  0.09336  0.00180  0.97639  1.0000
  H   H60       1.0  0.30327  0.24641  0.89633  1.0000
  C   C64       1.0  0.28534  0.44956  0.83466  1.0000
  H   H61       1.0  0.30507  0.04444  0.66122  1.0000
  H   H62       1.0  0.30262  0.08061  0.70966  1.0000
  Fe  Fe10      1.0  0.31819  0.10295  0.92712  1.0000
  H   H63       1.0  0.31338  0.47195  0.83976  1.0000
  C   C65       1.0  0.31875  0.47353  0.91850  1.0000
  H   H64       1.0  0.23844  0.12877  0.94579  1.0000
  C   C66       1.0  0.29209  0.03001  0.77061  1.0000
  H   H65       1.0  0.28924  0.02576  0.80165  1.0000
  S   S20       1.0  0.31813  0.40701  0.99312  1.0000
  C   C67       1.0  0.32556  0.41020  0.80938  1.0000
  Fe  Fe11      1.0  0.28568  0.38985  0.99009  1.0000
  N   N7        1.0  0.29800  0.01520  0.70378  1.0000
  H   H66       1.0  0.05204  0.48969  0.99031  1.0000
  Fe  Fe12      1.0  0.30367  0.14496  0.98763  1.0000
  H   H67       1.0  0.31538  0.39537  0.82102  1.0000
  C   C68       1.0  0.29378  0.00990  0.74270  1.0000
  C   C69       1.0  0.29679  0.21706  0.98602  1.0000
  C   C70       1.0  0.23547  0.13514  0.97601  1.0000
  H   H68       1.0  0.10981  0.00500  0.97068  1.0000
  C   C71       1.0  0.29397  0.26453  0.99168  1.0000
  H   H69       1.0  0.25941  0.16450  0.97577  1.0000
  H   H70       1.0  0.30027  0.00039  0.64410  1.0000
  H   H71       1.0  0.09053  0.99645  0.89051  1.0000
  C   C72       1.0  0.24737  0.15495  0.99293  1.0000
  S   S21       1.0  0.15888  0.51079  0.12153  1.0000
  S   S22       1.0  0.10813  0.52142  0.12412  1.0000
  Fe  Fe13      1.0  0.13300  0.51991  0.07729  1.0000
  C   C73       1.0  0.19564  0.71793  0.49170  1.0000
  Fe  Fe14      1.0  0.13329  0.50877  0.16743  1.0000
  S   S23       1.0  0.13424  0.51783  0.23482  1.0000
  C   C74       1.0  0.20384  0.51022  0.19088  1.0000
  S   S24       1.0  0.16048  0.63374  0.46454  1.0000
  H   H72       1.0  0.12832  0.71948  0.44269  1.0000
  C   C75       1.0  0.16347  0.90459  0.12429  1.0000
  C   C76       1.0  0.29690  0.53296  0.47061  1.0000
  H   H73       1.0  0.15064  0.96701  0.42566  1.0000
  Fe  Fe15      1.0  0.17847  0.60382  0.42863  1.0000
  S   S25       1.0  0.17432  0.59840  0.36071  1.0000
  H   H74       1.0  0.11971  0.90248  0.06704  1.0000
  S   S26       1.0  0.20984  0.61787  0.45169  1.0000
  Fe  Fe16      1.0  0.13252  0.97606  0.17075  1.0000
  S   S27       1.0  0.13057  0.94785  0.22398  1.0000
  Fe  Fe17      1.0  0.13209  0.97355  0.07906  1.0000
  S   S28       1.0  0.13394  0.94928  0.02224  1.0000
  S   S29       1.0  0.15790  0.97190  0.12488  1.0000
  S   S30       1.0  0.10653  0.97422  0.12445  1.0000
  H   H75       1.0  0.13039  0.67807  0.47954  1.0000
  C   C77       1.0  0.08011  0.50487  0.21044  1.0000
  H   H76       1.0  0.10388  0.89666  0.13379  1.0000
  H   H77       1.0  0.17467  0.49733  0.27249  1.0000
  H   H78       1.0  0.15798  0.90803  0.06111  1.0000
  S   S31       1.0  0.13658  0.54796  0.02543  1.0000
  N   N8        1.0  0.13077  0.94057  0.45604  1.0000
  Fe  Fe18      1.0  0.17987  0.89861  0.44170  1.0000
  S   S32       1.0  0.17745  0.92894  0.39118  1.0000
  S   S33       1.0  0.20806  0.87254  0.45044  1.0000
  C   C78       1.0  0.13355  0.89800  0.16434  1.0000
  C   C79       1.0  0.16483  0.93310  0.34394  1.0000
  C   C80       1.0  0.16906  0.95559  0.32162  1.0000
  C   C81       1.0  0.15900  0.96035  0.28483  1.0000
  C   C82       1.0  0.14421  0.94286  0.26997  1.0000
  C   C83       1.0  0.13999  0.92035  0.29225  1.0000
  C   C84       1.0  0.15032  0.91536  0.32868  1.0000
  H   H79       1.0  0.18024  0.96950  0.33289  1.0000
  H   H80       1.0  0.16250  0.97776  0.26829  1.0000
  H   H81       1.0  0.12862  0.90661  0.28126  1.0000
  H   H82       1.0  0.14695  0.89785  0.34503  1.0000
  H   H83       1.0  0.26782  0.54947  0.44937  1.0000
  H   H84       1.0  0.17783  0.74947  0.40930  1.0000
  C   C85       1.0  0.15107  0.90471  0.09003  1.0000
  H   H85       1.0  0.18010  0.90792  0.12157  1.0000
  H   H86       1.0  0.31738  0.98053  0.47087  1.0000
  H   H87       1.0  0.19274  0.53390  0.23972  1.0000
  C   C86       1.0  0.18751  0.72155  0.45352  1.0000
  H   H88       1.0  0.12646  0.89610  0.19339  1.0000
  C   C87       1.0  0.12953  0.90165  0.09336  1.0000
  S   S34       1.0  0.18262  0.80036  0.44302  1.0000
  C   C88       1.0  0.28945  0.57892  0.46844  1.0000
  C   C89       1.0  0.14533  0.54081  0.26908  1.0000
  C   C90       1.0  0.15612  0.56295  0.25681  1.0000
  C   C91       1.0  0.16483  0.58017  0.28522  1.0000
  C   C92       1.0  0.16298  0.57566  0.32637  1.0000
  C   C93       1.0  0.15225  0.55344  0.33858  1.0000
  C   C94       1.0  0.14349  0.53626  0.31018  1.0000
  H   H89       1.0  0.15767  0.56696  0.22547  1.0000
  H   H90       1.0  0.17300  0.59729  0.27525  1.0000
  H   H91       1.0  0.15060  0.54959  0.36995  1.0000
  C   C95       1.0  0.18868  0.76898  0.46219  1.0000
  H   H92       1.0  0.08893  0.94619  0.03677  1.0000
  C   C96       1.0  0.12066  0.89834  0.13073  1.0000
  C   C97       1.0  0.18417  0.74691  0.43884  1.0000
  H   H93       1.0  0.05933  0.52051  0.16643  1.0000
  C   C98       1.0  0.14459  0.96071  0.45410  1.0000
  C   C99       1.0  0.15158  0.97302  0.48875  1.0000
  H   H94       1.0  0.01705  0.50171  0.18283  1.0000
  H   H95       1.0  0.09154  0.52023  0.20730  1.0000
  H   H96       1.0  0.18374  0.70485  0.43533  1.0000
  H   H97       1.0  0.13484  0.91036  0.41413  1.0000
  H   H98       1.0  0.27876  0.59486  0.46238  1.0000
  C   C100      1.0  0.30892  0.58373  0.48557  1.0000
  H   H99       1.0  0.18267  0.89138  0.19200  1.0000
  C   C101      1.0  0.09222  0.93771  0.00801  1.0000
  H   H100      1.0  0.09117  0.54710  0.03402  1.0000
  H   H101      1.0  0.10799  0.92006  0.42188  1.0000
  C   C102      1.0  0.06180  0.50504  0.18773  1.0000
  C   C103      1.0  0.28334  0.55340  0.46096  1.0000
  H   H102      1.0  0.15998  0.89420  0.22277  1.0000
  H   H103      1.0  0.13521  0.51927  0.32027  1.0000
  H   H104      1.0  0.12511  0.94021  0.39345  1.0000
  C   C104      1.0  0.09486  0.55591  0.00581  1.0000
  S   S35       1.0  0.15726  0.86697  0.45663  1.0000
  N   N9        1.0  0.15468  0.90111  0.16083  1.0000
  S   S36       1.0  0.17551  0.57334  0.47587  1.0000
  H   H105      1.0  0.17162  0.92305  0.20321  1.0000
  Fe  Fe19      1.0  0.18523  0.84150  0.46943  1.0000
  C   C105      1.0  0.16793  0.90241  0.19637  1.0000
  C   C106      1.0  0.19337  0.51460  0.22669  1.0000
  H   H106      1.0  0.32580  0.49793  0.48355  1.0000
  H   H107      1.0  0.21121  0.52646  0.17617  1.0000
  H   H108      1.0  0.29172  0.51316  0.46605  1.0000
  H   H109      1.0  0.14105  0.76023  0.47427  1.0000
  Fe  Fe20      1.0  0.19138  0.64548  0.49073  1.0000
  H   H110      1.0  0.16289  0.98858  0.48702  1.0000
  C   C107      1.0  0.12428  0.92715  0.41963  1.0000
  C   C108      1.0  0.12389  0.93188  0.49201  1.0000
  N   N10       1.0  0.31605  0.53787  0.48708  1.0000
  H   H111      1.0  0.11359  0.91524  0.49375  1.0000
  C   C109      1.0  0.13424  0.71920  0.47289  1.0000
  C   C110      1.0  0.14127  0.74208  0.49067  1.0000
  C   C111      1.0  0.13561  0.69581  0.49382  1.0000
  H   H112      1.0  0.05994  0.92918  0.99500  1.0000
  C   C112      1.0  0.11572  0.55882  0.99468  1.0000
  H   H113      1.0  0.03533  0.98919  0.99899  1.0000
  H   H114      1.0  0.31347  0.60342  0.49307  1.0000
  C   C113      1.0  0.04509  0.67361  0.91176  1.0000
  S   S37       1.0  0.12979  0.59637  0.54789  1.0000
  S   S38       1.0  0.18988  0.61689  0.54158  1.0000
  Fe  Fe21      1.0  0.03063  0.59427  0.77835  1.0000
  S   S39       1.0  0.02767  0.61634  0.83523  1.0000
  Fe  Fe22      1.0  0.07552  0.61373  0.76502  1.0000
  S   S40       1.0  0.07530  0.63687  0.82260  1.0000
  S   S41       1.0  0.10617  0.61657  0.73008  1.0000
  Fe  Fe23      1.0  0.06006  0.60177  0.84951  1.0000
  S   S42       1.0  0.06201  0.58515  0.91240  1.0000
  Fe  Fe24      1.0  0.04316  0.64949  0.80370  1.0000
  S   S43       1.0  0.02741  0.68893  0.81299  1.0000
  S   S44       1.0  0.06236  0.57766  0.79374  1.0000
  S   S45       1.0  0.04402  0.62843  0.74502  1.0000
  Fe  Fe25      1.0  0.05880  0.84158  0.80123  1.0000
  S   S46       1.0  0.05108  0.86403  0.74581  1.0000
  S   S47       1.0  0.07085  0.79974  0.79523  1.0000
  Fe  Fe26      1.0  0.05866  0.89157  0.85293  1.0000
  S   S48       1.0  0.05158  0.91721  0.80040  1.0000
  S   S49       1.0  0.05816  0.90891  0.91575  1.0000
  Fe  Fe27      1.0  0.02808  0.88665  0.78370  1.0000
  Fe  Fe28      1.0  0.07505  0.89261  0.76686  1.0000
  S   S50       1.0  0.10271  0.90804  0.73124  1.0000
  S   S51       1.0  0.03399  0.86178  0.83764  1.0000
  S   S52       1.0  0.08385  0.86948  0.82101  1.0000
  S   S53       1.0  0.12875  0.87836  0.55376  1.0000
  S   S54       1.0  0.18656  0.85278  0.53390  1.0000
  S   S55       1.0  0.31058  0.97721  0.55842  1.0000
  C   C114      1.0  0.25664  0.91729  0.55480  1.0000
  H   H115      1.0  0.12503  0.93672  0.55566  1.0000
  C   C115      1.0  0.28925  0.93319  0.58513  1.0000
  C   C116      1.0  0.29019  0.95354  0.55778  1.0000
  C   C117      1.0  0.27425  0.95562  0.52900  1.0000
  C   C118      1.0  0.25765  0.93761  0.52739  1.0000
  H   H116      1.0  0.30135  0.93116  0.60738  1.0000
  H   H117      1.0  0.09515  0.70940  0.84876  1.0000
  H   H118      1.0  0.11306  0.51587  0.91079  1.0000
  C   C119      1.0  0.10924  0.90066  0.68119  1.0000
  C   C120      1.0  0.09596  0.88637  0.65646  1.0000
  C   C121      1.0  0.10208  0.88018  0.61737  1.0000
  C   C122      1.0  0.12166  0.88779  0.60271  1.0000
  C   C123      1.0  0.13487  0.90232  0.62725  1.0000
  C   C124      1.0  0.12861  0.90885  0.66618  1.0000
  H   H119      1.0  0.08093  0.88018  0.66738  1.0000
  H   H120      1.0  0.09165  0.86914  0.59851  1.0000
  H   H121      1.0  0.14994  0.90841  0.61636  1.0000
  H   H122      1.0  0.13896  0.92001  0.68502  1.0000
  C   C125      1.0  0.07969  0.91761  0.94628  1.0000
  C   C126      1.0  0.10030  0.91598  0.93292  1.0000
  Fe  Fe29      1.0  0.15991  0.60412  0.51361  1.0000
  C   C127      1.0  0.10275  0.49834  0.96489  1.0000
  C   C128      1.0  0.07746  0.65141  0.92607  1.0000
  H   H123      1.0  0.00470  0.65999  0.75158  1.0000
  H   H124      1.0  0.10353  0.90792  0.90385  1.0000
  H   H125      1.0  0.13987  0.55620  0.63689  1.0000
  H   H126      1.0  0.20708  0.73745  0.54416  1.0000
  C   C129      1.0  0.03933  0.71965  0.80564  1.0000
  C   C130      1.0  0.06001  0.72183  0.79304  1.0000
  C   C131      1.0  0.06928  0.74652  0.78973  1.0000
  C   C132      1.0  0.05799  0.76932  0.79875  1.0000
  C   C133      1.0  0.03725  0.76713  0.81109  1.0000
  C   C134      1.0  0.02801  0.74241  0.81459  1.0000
  H   H127      1.0  0.06889  0.70452  0.78590  1.0000
  H   H128      1.0  0.08531  0.74800  0.78003  1.0000
  H   H129      1.0  0.02840  0.78446  0.81820  1.0000
  H   H130      1.0  0.01201  0.74095  0.82447  1.0000
  C   C135      1.0  0.12301  0.60401  0.59788  1.0000
  C   C136      1.0  0.10337  0.59638  0.61225  1.0000
  C   C137      1.0  0.09771  0.60066  0.65226  1.0000
  C   C138      1.0  0.11174  0.61244  0.67858  1.0000
  C   C139      1.0  0.13132  0.62030  0.66407  1.0000
  C   C140      1.0  0.13688  0.61632  0.62394  1.0000
  H   H131      1.0  0.09247  0.58688  0.59240  1.0000
  H   H132      1.0  0.08263  0.59443  0.66288  1.0000
  H   H133      1.0  0.14230  0.62944  0.68413  1.0000
  H   H134      1.0  0.15207  0.62222  0.61348  1.0000
  Fe  Fe30      1.0  0.20751  0.88592  0.51448  1.0000
  C   C141      1.0  0.11674  0.92530  0.95693  1.0000
  H   H135      1.0  0.06119  0.53427  0.87075  1.0000
  C   C142      1.0  0.08317  0.57575  0.94349  1.0000
  C   C143      1.0  0.10403  0.57876  0.93232  1.0000
  C   C144      1.0  0.12020  0.57047  0.95795  1.0000
  Fe  Fe31      1.0  0.20598  0.58859  0.50067  1.0000
  C   C145      1.0  0.19091  0.57279  0.64370  1.0000
  H   H136      1.0  0.10772  0.58745  0.90402  1.0000
  H   H137      1.0  0.04706  0.63545  0.93770  1.0000
  C   C146      1.0  0.29435  0.55468  0.57798  1.0000
  C   C147      1.0  0.28390  0.57850  0.57209  1.0000
  C   C148      1.0  0.26375  0.57946  0.55491  1.0000
  H   H138      1.0  0.09430  0.81710  0.72003  1.0000
  C   C149      1.0  0.28413  0.53170  0.56739  1.0000
  H   H139      1.0  0.29160  0.59641  0.58030  1.0000
  H   H140      1.0  0.25613  0.59797  0.55001  1.0000
  C   C150      1.0  0.14972  0.74129  0.52884  1.0000
  H   H141      1.0  0.21397  0.56459  0.59878  1.0000
  C   C151      1.0  0.09959  0.50978  0.92774  1.0000
  H   H142      1.0  0.27470  0.97126  0.50770  1.0000
  S   S56       1.0  0.00432  0.56947  0.75213  1.0000
  H   H143      1.0  0.16442  0.57818  0.68238  1.0000
  S   S57       1.0  0.22902  0.55636  0.51901  1.0000
  H   H144      1.0  0.18889  0.54273  0.55403  1.0000
  H   H145      1.0  0.08577  0.63440  0.93685  1.0000
  N   N11       1.0  0.07782  0.69380  0.89640  1.0000
  H   H146      1.0  0.15863  0.71682  0.57759  1.0000
  C   C152      1.0  0.08955  0.71521  0.87872  1.0000
  H   H147      1.0  0.16222  0.66429  0.55335  1.0000
  C   C153      1.0  0.14827  0.53520  0.56589  1.0000
  H   H148      1.0  0.07891  0.51013  0.85081  1.0000
  N   N12       1.0  0.12229  0.83656  0.70200  1.0000
  C   C154      1.0  0.13921  0.85067  0.71411  1.0000
  C   C155      1.0  0.12119  0.82705  0.66406  1.0000
  C   C156      1.0  0.15597  0.85480  0.68835  1.0000
  C   C157      1.0  0.13759  0.83100  0.63742  1.0000
  C   C158      1.0  0.15511  0.84487  0.64977  1.0000
  C   C159      1.0  0.10465  0.83335  0.72912  1.0000
  H   H149      1.0  0.13949  0.85947  0.74345  1.0000
  H   H150      1.0  0.10733  0.81700  0.65383  1.0000
  H   H151      1.0  0.16917  0.86645  0.69775  1.0000
  H   H152      1.0  0.13637  0.82438  0.60685  1.0000
  H   H153      1.0  0.16762  0.84876  0.62895  1.0000
  H   H154      1.0  0.04805  0.71116  0.88526  1.0000
  H   H155      1.0  0.09527  0.85150  0.72991  1.0000
  C   C160      1.0  0.05647  0.69455  0.89698  1.0000
  H   H156      1.0  0.20180  0.58269  0.66325  1.0000
  H   H157      1.0  0.29211  0.98998  0.75248  1.0000
  H   H158      1.0  0.32780  0.51310  0.53175  1.0000
  H   H159      1.0  0.06264  0.56207  0.98942  1.0000
  H   H160      1.0  0.14991  0.97361  0.55271  1.0000
  C   C161      1.0  0.30009  0.99363  0.67544  1.0000
  H   H161      1.0  0.02816  0.67399  0.91089  1.0000
  C   C162      1.0  0.15110  0.71752  0.54872  1.0000
  H   H162      1.0  0.11845  0.49588  0.97660  1.0000
  H   H163      1.0  0.15112  0.54100  0.53462  1.0000
  C   C163      1.0  0.07693  0.52529  0.87402  1.0000
  H   H164      1.0  0.13183  0.54081  0.57233  1.0000
  C   C164      1.0  0.05569  0.65197  0.92653  1.0000
  S   S58       1.0  0.32055  0.55487  0.59613  1.0000
  H   H165      1.0  0.11014  0.82906  0.75976  1.0000
  H   H166      1.0  0.08834  0.54115  0.86898  1.0000
  C   C165      1.0  0.08835  0.67253  0.91047  1.0000
  Fe  Fe32      1.0  0.15989  0.87984  0.52051  1.0000
  H   H167      1.0  0.15002  0.51383  0.56867  1.0000
  C   C166      1.0  0.07871  0.56445  0.98043  1.0000
  H   H168      1.0  0.10658  0.97283  0.91628  1.0000
  C   C167      1.0  0.17002  0.57019  0.65447  1.0000
  C   C168      1.0  0.27257  0.91530  0.58368  1.0000
  S   S59       1.0  0.23581  0.89422  0.55507  1.0000
  H   H169      1.0  0.08138  0.96375  0.89841  1.0000
  H   H170      1.0  0.31485  0.98293  0.68135  1.0000
  H   H171      1.0  0.13617  0.65498  0.53897  1.0000
  H   H172      1.0  0.29182  0.51321  0.57200  1.0000
  C   C169      1.0  0.25377  0.55651  0.54340  1.0000
  N   N13       1.0  0.16290  0.54840  0.59267  1.0000
  H   H173      1.0  0.10314  0.72047  0.89762  1.0000
  H   H174      1.0  0.27202  0.89966  0.60500  1.0000
  H   H175      1.0  0.14010  0.67287  0.58397  1.0000
  C   C170      1.0  0.15617  0.55771  0.62855  1.0000
  C   C171      1.0  0.18345  0.55041  0.58223  1.0000
  H   H176      1.0  0.10525  0.67163  0.90919  1.0000
  C   C172      1.0  0.26399  0.53265  0.55026  1.0000
  C   C173      1.0  0.14563  0.67064  0.55292  1.0000
  C   C174      1.0  0.14435  0.96457  0.52553  1.0000
  C   C175      1.0  0.19774  0.56269  0.60750  1.0000
  C   C176      1.0  0.06545  0.49519  0.97267  1.0000
  N   N14       1.0  0.07982  0.51396  0.91355  1.0000
  H   H177      1.0  0.13631  0.57291  0.94917  1.0000
  H   H178      1.0  0.15614  0.75878  0.54204  1.0000
  N   N15       1.0  0.14377  0.69526  0.53143  1.0000
  H   H179      1.0  0.04717  0.51009  0.92422  1.0000
  H   H180      1.0  0.13262  0.92417  0.94615  1.0000
  H   H181      1.0  0.20080  0.78206  0.51838  1.0000
  H   H182      1.0  0.07976  0.73300  0.87529  1.0000
  C   C177      1.0  0.06060  0.98429  0.95717  1.0000
  S   S60       1.0  0.18055  0.91365  0.50516  1.0000
  H   H183      1.0  0.28679  0.97997  0.67818  1.0000
  H   H184      1.0  0.25639  0.51474  0.54173  1.0000
  S   S61       1.0  0.19895  0.68654  0.51301  1.0000
  N   N16       1.0  0.08128  0.98856  0.94961  1.0000
  C   C178      1.0  0.20061  0.73999  0.51471  1.0000
  C   C179      1.0  0.09037  0.98006  0.91180  1.0000
  C   C180      1.0  0.06285  0.50670  0.93538  1.0000
  C   C181      1.0  0.32205  0.56283  0.49501  1.0000
  H   H185      1.0  0.05109  0.97343  0.93618  1.0000
  C   C182      1.0  0.07581  0.92803  0.98426  1.0000
  C   C183      1.0  0.19706  0.76534  0.50019  1.0000
  H   H186      1.0  0.24558  0.93951  0.50503  1.0000
  C   C184      1.0  0.05160  0.99304  0.99267  1.0000
  C   C185      1.0  0.13039  0.94391  0.52723  1.0000
  C   C186      1.0  0.11276  0.93663  0.99423  1.0000
  S   S62       1.0  0.35458  0.35482  0.05901  1.0000
  Fe  Fe33      1.0  0.44516  0.33907  0.28837  1.0000
  S   S63       1.0  0.44502  0.36645  0.23600  1.0000
  S   S64       1.0  0.45287  0.29720  0.27067  1.0000
  Fe  Fe34      1.0  0.43428  0.38289  0.34686  1.0000
  S   S65       1.0  0.43291  0.41247  0.29833  1.0000
  S   S66       1.0  0.43450  0.39590  0.41187  1.0000
  Fe  Fe35      1.0  0.41561  0.38229  0.26261  1.0000
  S   S67       1.0  0.38724  0.39617  0.22724  1.0000
  Fe  Fe36      1.0  0.46252  0.39426  0.27564  1.0000
  S   S68       1.0  0.48634  0.42405  0.25417  1.0000
  S   S69       1.0  0.41461  0.35368  0.31324  1.0000
  S   S70       1.0  0.46498  0.36589  0.32580  1.0000
  H   H187      1.0  0.47987  0.39534  0.40769  1.0000
  S   S71       1.0  0.63922  0.46535  0.26977  1.0000
  Fe  Fe37      1.0  0.60607  0.47020  0.29208  1.0000
  S   S72       1.0  0.58370  0.43547  0.29454  1.0000
  Fe  Fe38      1.0  0.46401  0.10742  0.28780  1.0000
  S   S73       1.0  0.45464  0.11543  0.35106  1.0000
  S   S74       1.0  0.49844  0.10232  0.27046  1.0000
  Fe  Fe39      1.0  0.41942  0.11968  0.25579  1.0000
  S   S75       1.0  0.40741  0.12772  0.31749  1.0000
  S   S76       1.0  0.39814  0.13338  0.20497  1.0000
  Fe  Fe40      1.0  0.43713  0.15005  0.32672  1.0000
  S   S77       1.0  0.43599  0.18961  0.35753  1.0000
  Fe  Fe41      1.0  0.42577  0.09253  0.33650  1.0000
  S   S78       1.0  0.41353  0.05946  0.37520  1.0000
  S   S79       1.0  0.44836  0.14383  0.26475  1.0000
  S   S80       1.0  0.43595  0.08260  0.27369  1.0000
  H   H188      1.0  0.64251  0.39182  0.23047  1.0000
  S   S81       1.0  0.56526  0.01280  0.30873  1.0000
  S   S82       1.0  0.62698  0.02244  0.27027  1.0000
  H   H189      1.0  0.35923  0.07909  0.44820  1.0000
  S   S83       1.0  0.34879  0.07794  0.06249  1.0000
  C   C187      1.0  0.38439  0.11723  0.16603  1.0000
  C   C188      1.0  0.37174  0.13211  0.14038  1.0000
  C   C189      1.0  0.36073  0.12044  0.10868  1.0000
  C   C190      1.0  0.36230  0.09366  0.10211  1.0000
  C   C191      1.0  0.37481  0.07873  0.12792  1.0000
  C   C192      1.0  0.38579  0.09040  0.15971  1.0000
  H   H190      1.0  0.37052  0.15286  0.14495  1.0000
  H   H191      1.0  0.35117  0.13219  0.08917  1.0000
  H   H192      1.0  0.37621  0.05801  0.12309  1.0000
  H   H193      1.0  0.39549  0.07870  0.17905  1.0000
  H   H194      1.0  0.42151  0.38809  0.09582  1.0000
  C   C193      1.0  0.51528  0.43745  0.37208  1.0000
  C   C194      1.0  0.40455  0.03602  0.44622  1.0000
  C   C195      1.0  0.40853  0.05972  0.42707  1.0000
  C   C196      1.0  0.40706  0.08280  0.44898  1.0000
  C   C197      1.0  0.45658  0.41095  0.16331  1.0000
  N   N17       1.0  0.42309  0.43145  0.17151  1.0000
  H   H195      1.0  0.40568  0.01807  0.42956  1.0000
  H   H196      1.0  0.41003  0.10118  0.43465  1.0000
  C   C198      1.0  0.51676  0.07721  0.28158  1.0000
  C   C199      1.0  0.51094  0.05413  0.30017  1.0000
  C   C200      1.0  0.52606  0.03485  0.30846  1.0000
  C   C201      1.0  0.54721  0.03844  0.29878  1.0000
  C   C202      1.0  0.55310  0.06170  0.28071  1.0000
  C   C203      1.0  0.53793  0.08087  0.27198  1.0000
  H   H197      1.0  0.49475  0.05098  0.30773  1.0000
  H   H198      1.0  0.52128  0.01695  0.32241  1.0000
  H   H199      1.0  0.56929  0.06486  0.27320  1.0000
  H   H200      1.0  0.54264  0.09865  0.25763  1.0000
  C   C204      1.0  0.44957  0.26778  0.29706  1.0000
  C   C205      1.0  0.45478  0.24427  0.27807  1.0000
  C   C206      1.0  0.45071  0.22023  0.29618  1.0000
  C   C207      1.0  0.44169  0.21944  0.33388  1.0000
  C   C208      1.0  0.43716  0.24294  0.35352  1.0000
  C   C209      1.0  0.44098  0.26704  0.33516  1.0000
  H   H201      1.0  0.46156  0.24465  0.24870  1.0000
  H   H202      1.0  0.45447  0.20233  0.28084  1.0000
  H   H203      1.0  0.43038  0.24253  0.38289  1.0000
  H   H204      1.0  0.43703  0.28498  0.35024  1.0000
  C   C210      1.0  0.51341  0.42676  0.26574  1.0000
  C   C211      1.0  0.52419  0.44929  0.25430  1.0000
  C   C212      1.0  0.54557  0.45253  0.26338  1.0000
  C   C213      1.0  0.55655  0.43300  0.28343  1.0000
  C   C214      1.0  0.54578  0.41041  0.29470  1.0000
  C   C215      1.0  0.52433  0.40735  0.28618  1.0000
  H   H205      1.0  0.51596  0.46440  0.23831  1.0000
  H   H206      1.0  0.55362  0.46993  0.25422  1.0000
  H   H207      1.0  0.55413  0.39507  0.30991  1.0000
  H   H208      1.0  0.51634  0.38982  0.29488  1.0000
  C   C216      1.0  0.36306  0.36653  0.10610  1.0000
  C   C217      1.0  0.38025  0.35436  0.12458  1.0000
  C   C218      1.0  0.38765  0.36288  0.16189  1.0000
  C   C219      1.0  0.37789  0.38369  0.18126  1.0000
  C   C220      1.0  0.36072  0.39588  0.16280  1.0000
  C   C221      1.0  0.35335  0.38740  0.12541  1.0000
  H   H209      1.0  0.38788  0.33820  0.10991  1.0000
  H   H210      1.0  0.40092  0.35339  0.17562  1.0000
  H   H211      1.0  0.35304  0.41201  0.17749  1.0000
  C   C222      1.0  0.34363  0.28372  0.05108  1.0000
  C   C223      1.0  0.44869  0.39625  0.13182  1.0000
  C   C224      1.0  0.42796  0.39958  0.11998  1.0000
  H   H212      1.0  0.41390  0.47029  0.18389  1.0000
  C   C225      1.0  0.41458  0.41347  0.43721  1.0000
  C   C226      1.0  0.39488  0.41774  0.42039  1.0000
  C   C227      1.0  0.37929  0.43095  0.44215  1.0000
  H   H213      1.0  0.57737  0.02768  0.17633  1.0000
  C   C228      1.0  0.63045  0.41270  0.36179  1.0000
  H   H214      1.0  0.39152  0.41052  0.39085  1.0000
  H   H215      1.0  0.36400  0.43374  0.42905  1.0000
  N   N18       1.0  0.40235  0.24175  0.26345  1.0000
  C   C229      1.0  0.39851  0.21707  0.27642  1.0000
  C   C230      1.0  0.41194  0.24572  0.22775  1.0000
  C   C231      1.0  0.40457  0.19556  0.25365  1.0000
  C   C232      1.0  0.41829  0.22461  0.20432  1.0000
  C   C233      1.0  0.41453  0.19939  0.21743  1.0000
  C   C234      1.0  0.39523  0.26409  0.28701  1.0000
  H   H216      1.0  0.39113  0.21381  0.30489  1.0000
  H   H217      1.0  0.41525  0.26529  0.21774  1.0000
  H   H218      1.0  0.40168  0.17599  0.26409  1.0000
  H   H219      1.0  0.42624  0.22776  0.17640  1.0000
  H   H220      1.0  0.41938  0.18276  0.19970  1.0000
  H   H221      1.0  0.40531  0.28132  0.28197  1.0000
  H   H222      1.0  0.37891  0.26914  0.27890  1.0000
  H   H223      1.0  0.39607  0.25978  0.31930  1.0000
  H   H224      1.0  0.50591  0.40069  0.42510  1.0000
  H   H225      1.0  0.50212  0.09590  0.36135  1.0000
  H   H226      1.0  0.50157  0.38488  0.37762  1.0000
  C   C235      1.0  0.38326  0.44036  0.48070  1.0000
  C   C236      1.0  0.34961  0.01596  0.42504  1.0000
  H   H227      1.0  0.64606  0.01798  0.43669  1.0000
  C   C237      1.0  0.39861  0.03537  0.48648  1.0000
  C   C238      1.0  0.51635  0.46104  0.35174  1.0000
  C   C239      1.0  0.49809  0.47217  0.33671  1.0000
  C   C240      1.0  0.40112  0.08215  0.48929  1.0000
  C   C241      1.0  0.66172  0.01796  0.45107  1.0000
  H   H228      1.0  0.61942  0.40372  0.28622  1.0000
  C   C242      1.0  0.49596  0.40037  0.39807  1.0000
  C   C243      1.0  0.34544  0.05095  0.48729  1.0000
  H   H229      1.0  0.66016  0.01232  0.48268  1.0000
  Fe  Fe42      1.0  0.64966  0.48078  0.32914  1.0000
  H   H230      1.0  0.39923  0.41990  0.13075  1.0000
  N   N19       1.0  0.50704  0.13637  0.36649  1.0000
  C   C244      1.0  0.49392  0.14725  0.39396  1.0000
  C   C245      1.0  0.51212  0.14968  0.33280  1.0000
  C   C246      1.0  0.48569  0.17217  0.38821  1.0000
  C   C247      1.0  0.50411  0.17461  0.32606  1.0000
  C   C248      1.0  0.49089  0.18591  0.35409  1.0000
  C   C249      1.0  0.51435  0.10958  0.37189  1.0000
  H   H231      1.0  0.52199  0.14078  0.31039  1.0000
  H   H232      1.0  0.50774  0.18481  0.29885  1.0000
  H   H233      1.0  0.48426  0.20505  0.34901  1.0000
  H   H234      1.0  0.51790  0.10553  0.40356  1.0000
  S   S84       1.0  0.61958  0.00183  0.36045  1.0000
  H   H235      1.0  0.52878  0.10561  0.35457  1.0000
  H   H236      1.0  0.52965  0.42843  0.38228  1.0000
  H   H237      1.0  0.39295  0.44685  0.18602  1.0000
  H   H238      1.0  0.46364  0.42666  0.36714  1.0000
  H   H239      1.0  0.34287  0.29901  0.07338  1.0000
  C   C250      1.0  0.47902  0.45979  0.34251  1.0000
  H   H240      1.0  0.44963  0.43956  0.20788  1.0000
  H   H241      1.0  0.47265  0.40843  0.17305  1.0000
  H   H242      1.0  0.48918  0.13633  0.41985  1.0000
  H   H243      1.0  0.47470  0.18046  0.40929  1.0000
  H   H244      1.0  0.34010  0.39691  0.11164  1.0000
  H   H245      1.0  0.55679  0.02446  0.21193  1.0000
  C   C251      1.0  0.41537  0.41759  0.14000  1.0000
  C   C252      1.0  0.41857  0.42293  0.47577  1.0000
  C   C253      1.0  0.40978  0.45019  0.19250  1.0000
  S   S85       1.0  0.61684  0.48282  0.35275  1.0000
  N   N20       1.0  0.64415  0.40535  0.32882  1.0000
  H   H246      1.0  0.46478  0.46787  0.33008  1.0000
  H   H247      1.0  0.63814  0.42737  0.38116  1.0000
  H   H248      1.0  0.41160  0.44783  0.22515  1.0000
  Fe  Fe43      1.0  0.64699  0.01638  0.32510  1.0000
  C   C254      1.0  0.44346  0.42852  0.18300  1.0000
  H   H249      1.0  0.53136  0.47007  0.34625  1.0000
  H   H250      1.0  0.45860  0.38218  0.11683  1.0000
  N   N21       1.0  0.34134  0.00798  0.46037  1.0000
  C   C255      1.0  0.35371  0.05930  0.45129  1.0000
  C   C256      1.0  0.63600  0.40118  0.29174  1.0000
  H   H251      1.0  0.49881  0.48996  0.31962  1.0000
  H   H252      1.0  0.58345  0.02586  0.22875  1.0000
  H   H253      1.0  0.61569  0.42169  0.35092  1.0000
  H   H254      1.0  0.62657  0.39531  0.37960  1.0000
  H   H255      1.0  0.35170  0.00238  0.40069  1.0000
  N   N22       1.0  0.49650  0.42553  0.37788  1.0000
  C   C257      1.0  0.47850  0.43632  0.36327  1.0000
  Fe  Fe44      1.0  0.60049  0.00465  0.30444  1.0000
  C   C258      1.0  0.64899  0.39431  0.26005  1.0000
  H   H256      1.0  0.33786  0.25260  0.09218  1.0000
  C   C259      1.0  0.57306  0.01842  0.20487  1.0000
  H   H257      1.0  0.36315  0.04786  0.39243  1.0000
  C   C260      1.0  0.35588  0.04173  0.41995  1.0000
  H   H258      1.0  0.32958  0.04596  0.12417  1.0000
  C   C261      1.0  0.33924  0.02509  0.49130  1.0000
  C   C262      1.0  0.34096  0.25775  0.06159  1.0000
  C   C263      1.0  0.34714  0.29004  0.01135  1.0000
  C   C264      1.0  0.34206  0.23847  0.03242  1.0000
  H   H259      1.0  0.33952  0.21823  0.03999  1.0000
  H   H260      1.0  0.43376  0.41976  0.48908  1.0000
  H   H261      1.0  0.34926  0.31025  0.00357  1.0000
  H   H262      1.0  0.65732  0.49218  0.44629  1.0000
  S   S86       1.0  0.38190  0.46353  0.62422  1.0000
  H   H263      1.0  0.33911  0.40608  0.64024  1.0000
  Fe  Fe45      1.0  0.35213  0.47169  0.65799  1.0000
  S   S87       1.0  0.35041  0.00746  0.73785  1.0000
  Fe  Fe46      1.0  0.36460  0.47477  0.56867  1.0000
  N   N23       1.0  0.34766  0.27109  0.98276  1.0000
  S   S88       1.0  0.33543  0.35348  0.95492  1.0000
  C   C265      1.0  0.34256  0.07928  0.78991  1.0000
  S   S89       1.0  0.33413  0.47916  0.60128  1.0000
  H   H264      1.0  0.39527  0.01703  0.50050  1.0000
  Fe  Fe47      1.0  0.37633  0.02313  0.59143  1.0000
  S   S90       1.0  0.38716  0.05889  0.55774  1.0000
  S   S91       1.0  0.34448  0.02315  0.61984  1.0000
  H   H265      1.0  0.37821  0.41896  0.69127  1.0000
  C   C266      1.0  0.35015  0.40264  0.58042  1.0000
  H   H266      1.0  0.34581  0.23047  0.97030  1.0000
  Fe  Fe48      1.0  0.35999  0.00400  0.67214  1.0000
  H   H267      1.0  0.34387  0.09945  0.78140  1.0000
  N   N24       1.0  0.37182  0.39798  0.63839  1.0000
  C   C267      1.0  0.38701  0.39421  0.57342  1.0000
  H   H268      1.0  0.40637  0.44360  0.52693  1.0000
  C   C268      1.0  0.38897  0.39437  0.61483  1.0000
  H   H269      1.0  0.33797  0.00715  0.81981  1.0000
  C   C269      1.0  0.40230  0.99724  0.76730  1.0000
  H   H270      1.0  0.33298  0.01867  0.51947  1.0000
  S   S92       1.0  0.33521  0.12792  0.97259  1.0000
  H   H271      1.0  0.34360  0.26432  0.92066  1.0000
  C   C270      1.0  0.37434  0.39884  0.68167  1.0000
  H   H272      1.0  0.36309  0.45256  0.83847  1.0000
  S   S93       1.0  0.33623  0.44298  0.70077  1.0000
  C   C271      1.0  0.35164  0.44883  0.77830  1.0000
  C   C272      1.0  0.35262  0.40240  0.62170  1.0000
  H   H273      1.0  0.35239  0.06473  0.73237  1.0000
  S   S94       1.0  0.36261  0.45535  0.50769  1.0000
  C   C273      1.0  0.33785  0.43598  0.75269  1.0000
  C   C274      1.0  0.36743  0.39820  0.55624  1.0000
  S   S95       1.0  0.39241  0.00721  0.64623  1.0000
  H   H274      1.0  0.36846  0.27827  0.93524  1.0000
  C   C275      1.0  0.35236  0.44240  0.81908  1.0000
  H   H275      1.0  0.40431  0.39189  0.62799  1.0000
  C   C276      1.0  0.33591  0.07322  0.82866  1.0000
  H   H276      1.0  0.39850  0.01113  0.74309  1.0000
  C   C277      1.0  0.33934  0.02729  0.81123  1.0000
  H   H277      1.0  0.38685  0.38541  0.69183  1.0000
  H   H278      1.0  0.34476  0.29755  0.93448  1.0000
  C   C278      1.0  0.34745  0.05958  0.76198  1.0000
  H   H279      1.0  0.41463  0.00588  0.78640  1.0000
  C   C279      1.0  0.34570  0.03338  0.77234  1.0000
  H   H280      1.0  0.35970  0.39313  0.69698  1.0000
  C   C280      1.0  0.35146  0.27810  0.94128  1.0000
  H   H281      1.0  0.36177  0.46375  0.76674  1.0000
  C   C281      1.0  0.33933  0.42310  0.83500  1.0000
  C   C282      1.0  0.40307  0.43646  0.49732  1.0000
  H   H282      1.0  0.40059  0.39155  0.55465  1.0000
  H   H283      1.0  0.36572  0.39856  0.52416  1.0000
  C   C283      1.0  0.33442  0.04700  0.83914  1.0000
  S   S96       1.0  0.34022  0.41707  0.88725  1.0000
  H   H284      1.0  0.33503  0.40676  0.56721  1.0000
  H   H285      1.0  0.39963  0.10015  0.50576  1.0000
  C   C284      1.0  0.39658  0.05849  0.50813  1.0000
  H   H286      1.0  0.34456  0.06421  0.51238  1.0000
  H   H287      1.0  0.33303  0.47509  0.89997  1.0000
  H   H288      1.0  0.32941  0.04191  0.86874  1.0000
  H   H289      1.0  0.38812  0.99491  0.78592  1.0000
  C   C285      1.0  0.34552  0.24553  0.99292  1.0000
  Fe  Fe49      1.0  0.61534  0.52311  0.32876  1.0000
  S   S97       1.0  0.60284  0.55770  0.36410  1.0000
  C   C286      1.0  0.56416  0.94768  0.22352  1.0000
  S   S98       1.0  0.60273  0.51113  0.26863  1.0000
  C   C287      1.0  0.65098  0.95082  0.15184  1.0000
  C   C288      1.0  0.59378  0.53372  0.43580  1.0000
  S   S99       1.0  0.60841  0.96381  0.28470  1.0000
  S   S100      1.0  0.65504  0.52202  0.19549  1.0000
  C   C289      1.0  0.65871  0.93844  0.08260  1.0000
  Fe  Fe50      1.0  0.62878  0.96229  0.33920  1.0000
  S   S101      1.0  0.63117  0.92985  0.38509  1.0000
  C   C290      1.0  0.33450  0.98106  0.46550  1.0000
  C   C291      1.0  0.61130  0.92339  0.42049  1.0000
  C   C292      1.0  0.59083  0.93236  0.41528  1.0000
  H   H290      1.0  0.58694  0.94406  0.38965  1.0000
  H   H291      1.0  0.51324  0.56652  0.48350  1.0000
  C   C293      1.0  0.58807  0.53410  0.47619  1.0000
  C   C294      1.0  0.64856  0.56026  0.07092  1.0000
  H   H292      1.0  0.65253  0.91941  0.19366  1.0000
  H   H293      1.0  0.66138  0.52555  0.39473  1.0000
  Fe  Fe51      1.0  0.63614  0.98113  0.25341  1.0000
  C   C295      1.0  0.63223  0.54253  0.13118  1.0000
  C   C296      1.0  0.60041  0.90174  0.48182  1.0000
  S   S102      1.0  0.64377  0.97577  0.18669  1.0000
  C   C297      1.0  0.58306  0.58061  0.47368  1.0000
  C   C298      1.0  0.65217  0.51195  0.45207  1.0000
  C   C299      1.0  0.58870  0.58022  0.43322  1.0000
  C   C300      1.0  0.59430  0.55684  0.41417  1.0000
  H   H294      1.0  0.58899  0.59820  0.41672  1.0000
  C   C301      1.0  0.63065  0.55406  0.09316  1.0000
  C   C302      1.0  0.65022  0.57565  0.39881  1.0000
  C   C303      1.0  0.65420  0.92491  0.16288  1.0000
  H   H295      1.0  0.61537  0.55819  0.08089  1.0000
  C   C304      1.0  0.57995  0.93640  0.20067  1.0000
  H   H296      1.0  0.63176  0.90104  0.45828  1.0000
  S   S103      1.0  0.65750  0.97636  0.30669  1.0000
  H   H297      1.0  0.62136  0.65210  0.07080  1.0000
  Fe  Fe52      1.0  0.63666  0.50745  0.25014  1.0000
  H   H298      1.0  0.58802  0.51616  0.49279  1.0000
  C   C305      1.0  0.57517  0.92548  0.44257  1.0000
  C   C306      1.0  0.65435  0.53096  0.42284  1.0000
  H   H299      1.0  0.61828  0.53787  0.14761  1.0000
  H   H300      1.0  0.58215  0.91549  0.20042  1.0000
  H   H301      1.0  0.57865  0.84982  0.49053  1.0000
  C   C307      1.0  0.59325  0.95222  0.17887  1.0000
  H   H302      1.0  0.65075  0.97725  0.10233  1.0000
  H   H303      1.0  0.55402  0.93566  0.24136  1.0000
  H   H304      1.0  0.59803  0.51561  0.42159  1.0000
  S   S104      1.0  0.64886  0.52236  0.30907  1.0000
  H   H305      1.0  0.54992  0.98340  0.24270  1.0000
  H   H306      1.0  0.60593  0.94375  0.16175  1.0000
  H   H307      1.0  0.62913  0.63396  0.02687  1.0000
  C   C308      1.0  0.65183  0.53683  0.14764  1.0000
  C   C309      1.0  0.57982  0.91011  0.47593  1.0000
  S   S105      1.0  0.64541  0.57606  0.02386  1.0000
  H   H308      1.0  0.64548  0.60596  0.11925  1.0000
  H   H309      1.0  0.33798  0.96874  0.43920  1.0000
  N   N25       1.0  0.64755  0.55584  0.42950  1.0000
  C   C310      1.0  0.61600  0.90810  0.45396  1.0000
  H   H310      1.0  0.63353  0.58229  0.47057  1.0000
  H   H311      1.0  0.55931  0.93200  0.43757  1.0000
  H   H312      1.0  0.63725  0.59010  0.39979  1.0000
  C   C311      1.0  0.63911  0.56265  0.46535  1.0000
  H   H313      1.0  0.62087  0.61687  0.06973  1.0000
  H   H314      1.0  0.34244  0.97222  0.49159  1.0000
  C   C312      1.0  0.65326  0.95735  0.11145  1.0000
  C   C313      1.0  0.59063  0.97919  0.18035  1.0000
  H   H315      1.0  0.57917  0.59881  0.48811  1.0000
  N   N26       1.0  0.65114  0.63405  0.07411  1.0000
  C   C314      1.0  0.56192  0.97473  0.22413  1.0000
  H   H316      1.0  0.51018  0.80789  0.49056  1.0000
  C   C315      1.0  0.62949  0.63441  0.05989  1.0000
  C   C316      1.0  0.65974  0.90601  0.13405  1.0000
  C   C317      1.0  0.65683  0.61847  0.10519  1.0000
  N   N27       1.0  0.57497  0.99009  0.20244  1.0000
  H   H317      1.0  0.66092  0.66245  0.03225  1.0000
  H   H318      1.0  0.64958  0.56687  0.36862  1.0000
  H   H319      1.0  0.65195  0.97182  0.42078  1.0000
  H   H320      1.0  0.60150  0.99134  0.16428  1.0000
  C   C318      1.0  0.64322  0.51862  0.48845  1.0000
  H   H321      1.0  0.66028  0.94391  0.05178  1.0000
  H   H322      1.0  0.34624  0.52063  0.49321  1.0000
  C   C319      1.0  0.66204  0.91254  0.09366  1.0000
  H   H323      1.0  0.66226  0.88611  0.14316  1.0000
  Fe  Fe53      1.0  0.52233  0.60797  0.61637  1.0000
  S   S106      1.0  0.54289  0.62122  0.56594  1.0000
  S   S107      1.0  0.48792  0.60255  0.59948  1.0000
  Fe  Fe54      1.0  0.55977  0.60513  0.67430  1.0000
  S   S108      1.0  0.58261  0.61664  0.62741  1.0000
  S   S109      1.0  0.56790  0.59765  0.73947  1.0000
  Fe  Fe55      1.0  0.55858  0.64714  0.61110  1.0000
  S   S110      1.0  0.57235  0.68757  0.60147  1.0000
  Fe  Fe56      1.0  0.56492  0.58993  0.58616  1.0000
  S   S111      1.0  0.57778  0.55707  0.54720  1.0000
  S   S112      1.0  0.53632  0.63664  0.65987  1.0000
  S   S113      1.0  0.54380  0.57571  0.63484  1.0000
  N   N28       1.0  0.50722  0.54952  0.53963  1.0000
  S   S114      1.0  0.42188  0.51591  0.65060  1.0000
  H   H324      1.0  0.51995  0.50468  0.60887  1.0000
  S   S115      1.0  0.35936  0.51406  0.66756  1.0000
  S   S116      1.0  0.37261  0.51711  0.57312  1.0000
  C   C320      1.0  0.56574  0.65204  0.80876  1.0000
  C   C321      1.0  0.51936  0.53478  0.56442  1.0000
  Fe  Fe57      1.0  0.54311  0.83879  0.62161  1.0000
  S   S117      1.0  0.54419  0.86242  0.67821  1.0000
  S   S118      1.0  0.52837  0.79856  0.61803  1.0000
  Fe  Fe58      1.0  0.55931  0.88422  0.57056  1.0000
  S   S119      1.0  0.56220  0.91022  0.62388  1.0000
  C   C322      1.0  0.39976  0.93341  0.71419  1.0000
  Fe  Fe59      1.0  0.57558  0.87542  0.65579  1.0000
  S   S120      1.0  0.60676  0.87530  0.68942  1.0000
  Fe  Fe60      1.0  0.53052  0.89522  0.64154  1.0000
  S   S121      1.0  0.50640  0.92650  0.65829  1.0000
  S   S122      1.0  0.57496  0.85014  0.60039  1.0000
  S   S123      1.0  0.52716  0.87066  0.58713  1.0000
  S   S124      1.0  0.35491  0.96358  0.64728  1.0000
  H   H325      1.0  0.55637  0.63447  0.80168  1.0000
  S   S125      1.0  0.65705  0.60953  0.82315  1.0000
  Fe  Fe61      1.0  0.38634  0.96836  0.61792  1.0000
  S   S126      1.0  0.40943  0.93440  0.61356  1.0000
  C   C323      1.0  0.47955  0.92840  0.64488  1.0000
  C   C324      1.0  0.46839  0.95147  0.65287  1.0000
  C   C325      1.0  0.44709  0.95394  0.64257  1.0000
  C   C326      1.0  0.43657  0.93311  0.62486  1.0000
  C   C327      1.0  0.44770  0.91002  0.61712  1.0000
  C   C328      1.0  0.46909  0.90771  0.62677  1.0000
  H   H326      1.0  0.47632  0.96758  0.66695  1.0000
  H   H327      1.0  0.43873  0.97178  0.64890  1.0000
  H   H328      1.0  0.43970  0.89371  0.60370  1.0000
  H   H329      1.0  0.47740  0.88979  0.62069  1.0000
  C   C329      1.0  0.62298  0.89132  0.82096  1.0000
  C   C330      1.0  0.63865  0.88634  0.79309  1.0000
  C   C331      1.0  0.63340  0.88227  0.75281  1.0000
  C   C332      1.0  0.61245  0.88269  0.73996  1.0000
  C   C333      1.0  0.59680  0.88785  0.76779  1.0000
  C   C334      1.0  0.60207  0.89230  0.80797  1.0000
  N   N29       1.0  0.54055  0.80776  0.51594  1.0000
  H   H330      1.0  0.64564  0.87841  0.73153  1.0000
  H   H331      1.0  0.58064  0.88836  0.75838  1.0000
  H   H332      1.0  0.58984  0.89633  0.82922  1.0000
  C   C335      1.0  0.60456  0.67356  0.73265  1.0000
  H   H333      1.0  0.37798  0.96358  0.72954  1.0000
  H   H334      1.0  0.60415  0.81424  0.88547  1.0000
  H   H335      1.0  0.62609  0.82253  0.74247  1.0000
  C   C336      1.0  0.63191  0.82161  0.77278  1.0000
  N   N30       1.0  0.62596  0.82714  0.84273  1.0000
  C   C337      1.0  0.55989  0.71810  0.60887  1.0000
  C   C338      1.0  0.53824  0.72043  0.61271  1.0000
  C   C339      1.0  0.52892  0.74519  0.61644  1.0000
  C   C340      1.0  0.54111  0.76785  0.61707  1.0000
  C   C341      1.0  0.56282  0.76548  0.61429  1.0000
  C   C342      1.0  0.57212  0.74075  0.60983  1.0000
  H   H336      1.0  0.52862  0.70322  0.61189  1.0000
  H   H337      1.0  0.51211  0.74680  0.61849  1.0000
  H   H338      1.0  0.57240  0.78273  0.61477  1.0000
  H   H339      1.0  0.58889  0.73915  0.60698  1.0000
  C   C343      1.0  0.59301  0.59969  0.76187  1.0000
  C   C344      1.0  0.59493  0.59617  0.80317  1.0000
  C   C345      1.0  0.61434  0.59922  0.82258  1.0000
  C   C346      1.0  0.63212  0.60550  0.80073  1.0000
  C   C347      1.0  0.63026  0.60860  0.75937  1.0000
  C   C348      1.0  0.61084  0.60580  0.74003  1.0000
  H   H340      1.0  0.58127  0.59126  0.82033  1.0000
  H   H341      1.0  0.61553  0.59661  0.85437  1.0000
  H   H342      1.0  0.64393  0.61340  0.74215  1.0000
  H   H343      1.0  0.60963  0.60856  0.70828  1.0000
  C   C349      1.0  0.61166  0.83247  0.87566  1.0000
  H   H344      1.0  0.62006  0.84140  0.90119  1.0000
  C   C350      1.0  0.59133  0.68189  0.70222  1.0000
  H   H345      1.0  0.60231  0.83150  0.79841  1.0000
  H   H346      1.0  0.57796  0.64617  0.83050  1.0000
  C   C351      1.0  0.51780  0.80683  0.52014  1.0000
  C   C352      1.0  0.65299  0.81661  0.78025  1.0000
  C   C353      1.0  0.46934  0.57940  0.61623  1.0000
  C   C354      1.0  0.44940  0.57891  0.59846  1.0000
  C   C355      1.0  0.43455  0.55996  0.60899  1.0000
  C   C356      1.0  0.43944  0.54125  0.63762  1.0000
  C   C357      1.0  0.45928  0.54197  0.65578  1.0000
  C   C358      1.0  0.47416  0.56087  0.64516  1.0000
  H   H347      1.0  0.44545  0.59322  0.57620  1.0000
  H   H348      1.0  0.41936  0.55979  0.59488  1.0000
  H   H349      1.0  0.46321  0.52771  0.67812  1.0000
  H   H350      1.0  0.48937  0.56098  0.65919  1.0000
  N   N31       1.0  0.57477  0.66245  0.77222  1.0000
  C   C359      1.0  0.59597  0.66403  0.76782  1.0000
  H   H351      1.0  0.33668  0.56661  0.51028  1.0000
  C   C360      1.0  0.57416  0.78691  0.51944  1.0000
  S   S127      1.0  0.65769  0.85667  0.95254  1.0000
  H   H352      1.0  0.48153  0.49733  0.60536  1.0000
  C   C361      1.0  0.51657  0.56997  0.51543  1.0000
  C   C362      1.0  0.48889  0.51148  0.58619  1.0000
  H   H353      1.0  0.42515  0.90702  0.70199  1.0000
  C   C363      1.0  0.61853  0.82680  0.80459  1.0000
  H   H354      1.0  0.65235  0.82130  0.88061  1.0000
  C   C364      1.0  0.42047  0.92505  0.71634  1.0000
  C   C365      1.0  0.47669  0.52633  0.56041  1.0000
  H   H355      1.0  0.51268  0.78876  0.53526  1.0000
  Fe  Fe62      1.0  0.34096  0.98304  0.59369  1.0000
  C   C366      1.0  0.57142  0.83176  0.49959  1.0000
  H   H356      1.0  0.53563  0.97811  0.56214  1.0000
  H   H357      1.0  0.60640  0.65723  0.79106  1.0000
  H   H358      1.0  0.38833  0.92191  0.69811  1.0000
  C   C367      1.0  0.64648  0.82155  0.85037  1.0000
  C   C368      1.0  0.48614  0.54561  0.53757  1.0000
  H   H359      1.0  0.45155  0.93447  0.73605  1.0000
  H   H360      1.0  0.54039  0.84755  0.49825  1.0000
  H   H361      1.0  0.54518  0.76815  0.53253  1.0000
  C   C369      1.0  0.56978  0.68055  0.70724  1.0000
  C   C370      1.0  0.56171  0.67044  0.74243  1.0000
  C   C371      1.0  0.51037  0.51571  0.58831  1.0000
  H   H362      1.0  0.59770  0.68912  0.67455  1.0000
  H   H363      1.0  0.65479  0.88563  0.80254  1.0000
  C   C372      1.0  0.55243  0.78610  0.52307  1.0000
  H   H364      1.0  0.48062  0.90558  0.51447  1.0000
  C   C373      1.0  0.50503  0.92959  0.53912  1.0000
  H   H365      1.0  0.54493  0.66870  0.74556  1.0000
  S   S128      1.0  0.62854  0.89556  0.87235  1.0000
  H   H366      1.0  0.64833  0.52055  0.84937  1.0000
  H   H367      1.0  0.55937  0.68690  0.68368  1.0000
  C   C374      1.0  0.58369  0.80995  0.50770  1.0000
  H   H368      1.0  0.53606  0.53802  0.56640  1.0000
  H   H369      1.0  0.44082  0.97640  0.76611  1.0000
  C   C375      1.0  0.47359  0.96489  0.55693  1.0000
  N   N32       1.0  0.40867  0.97215  0.75036  1.0000
  H   H370      1.0  0.55551  0.66681  0.82299  1.0000
  H   H371      1.0  0.53382  0.57082  0.51920  1.0000
  C   C376      1.0  0.53135  0.95790  0.56991  1.0000
  C   C377      1.0  0.39409  0.95713  0.73155  1.0000
  H   H372      1.0  0.62136  0.67411  0.72888  1.0000
  H   H373      1.0  0.54269  0.94478  0.55480  1.0000
  H   H374      1.0  0.49807  0.98747  0.58349  1.0000
  S   S129      1.0  0.55902  0.90055  0.50754  1.0000
  C   C378      1.0  0.43528  0.94053  0.73536  1.0000
  Fe  Fe63      1.0  0.38838  0.50658  0.63074  1.0000
  N   N33       1.0  0.50979  0.95240  0.55799  1.0000
  Fe  Fe64      1.0  0.34292  0.52089  0.60879  1.0000
  H   H375      1.0  0.45987  0.52382  0.55966  1.0000
  Fe  Fe65      1.0  0.65916  0.88743  0.90527  1.0000
  H   H376      1.0  0.60428  0.88994  0.50733  1.0000
  C   C379      1.0  0.42911  0.96428  0.75208  1.0000
  H   H377      1.0  0.58350  0.76985  0.52626  1.0000
  H   H378      1.0  0.60054  0.81098  0.50513  1.0000
  H   H379      1.0  0.59952  0.84686  0.86677  1.0000
  S   S130      1.0  0.65506  0.62865  0.94270  1.0000
  C   C380      1.0  0.54975  0.83035  0.50402  1.0000
  H   H380      1.0  0.64113  0.50400  0.51118  1.0000
  H   H381      1.0  0.47641  0.55803  0.51921  1.0000
  H   H382      1.0  0.45241  0.93727  0.53080  1.0000
  S   S131      1.0  0.37190  0.98452  0.56196  1.0000
  C   C381      1.0  0.49438  0.96983  0.56731  1.0000
  H   H383      1.0  0.53306  0.95523  0.60251  1.0000
  H   H384      1.0  0.62933  0.54947  0.52317  1.0000
  H   H385      1.0  0.51232  0.82319  0.53912  1.0000
  C   C382      1.0  0.46858  0.94168  0.53776  1.0000
  H   H386      1.0  0.46133  0.97856  0.56485  1.0000
  H   H387      1.0  0.51000  0.58917  0.52429  1.0000
  C   C383      1.0  0.48437  0.92386  0.52880  1.0000
  H   H388      1.0  0.51721  0.91562  0.53219  1.0000
  C   C384      1.0  0.66033  0.81639  0.81929  1.0000
  C   C385      1.0  0.32959  0.51630  0.49939  1.0000
  C   C386      1.0  0.63676  0.54416  0.49532  1.0000
  C   C387      1.0  0.58294  0.55756  0.49547  1.0000
  Fe  Fe66      1.0  0.94320  0.33898  0.09185  1.0000
  S   S132      1.0  0.94973  0.34858  0.15546  1.0000
  S   S133      1.0  0.94407  0.29838  0.06487  1.0000
  Fe  Fe67      1.0  0.93391  0.39604  0.07016  1.0000
  S   S134      1.0  0.93919  0.40956  0.13358  1.0000
  S   S135      1.0  0.93088  0.42473  0.01847  1.0000
  Fe  Fe68      1.0  0.96750  0.38318  0.13199  1.0000
  Fe  Fe69      1.0  0.92099  0.37391  0.15201  1.0000
  S   S136      1.0  0.89391  0.36482  0.19440  1.0000
  S   S137      1.0  0.96304  0.37138  0.06839  1.0000
  S   S138      1.0  0.91371  0.36263  0.08842  1.0000
  Fe  Fe70      1.0  0.83444  0.39003  0.39907  1.0000
  S   S139      1.0  0.81003  0.36426  0.37285  1.0000
  S   S140      1.0  0.86202  0.40568  0.36350  1.0000
  Fe  Fe71      1.0  0.81219  0.34129  0.42953  1.0000
  Fe  Fe72      1.0  0.78650  0.39000  0.40416  1.0000
  S   S141      1.0  0.76045  0.40409  0.36180  1.0000
  S   S142      1.0  0.81109  0.41739  0.42747  1.0000
  C   C388      1.0  0.78229  0.23811  0.46036  1.0000
  S   S143      1.0  0.67290  0.46461  0.37514  1.0000
  Fe  Fe73      1.0  0.79829  0.14421  0.45035  1.0000
  Fe  Fe74      1.0  0.78665  0.09264  0.41026  1.0000
  S   S144      1.0  0.81750  0.07448  0.42749  1.0000
  S   S145      1.0  0.76484  0.06894  0.36971  1.0000
  Fe  Fe75      1.0  0.83224  0.11210  0.40961  1.0000
  S   S146      1.0  0.86399  0.11625  0.37928  1.0000
  S   S147      1.0  0.80202  0.12918  0.38791  1.0000
  C   C389      1.0  0.80940  0.26654  0.43472  1.0000
  H   H389      1.0  0.80332  0.38648  0.22753  1.0000
  Fe  Fe76      1.0  0.93185  0.11257  0.07636  1.0000
  S   S148      1.0  0.93200  0.07953  0.11951  1.0000
  H   H390      1.0  0.91888  0.02541  0.01001  1.0000
  Fe  Fe77      1.0  0.94617  0.15153  0.13941  1.0000
  S   S149      1.0  0.94773  0.12070  0.18699  1.0000
  S   S150      1.0  0.95327  0.19271  0.16104  1.0000
  Fe  Fe78      1.0  0.96295  0.09517  0.14055  1.0000
  Fe  Fe79      1.0  0.91694  0.10759  0.16262  1.0000
  S   S151      1.0  0.88885  0.09393  0.19869  1.0000
  S   S152      1.0  0.96379  0.12696  0.09497  1.0000
  S   S153      1.0  0.91439  0.13966  0.11745  1.0000
  C   C390      1.0  0.69408  0.05205  0.36176  1.0000
  C   C391      1.0  0.70827  0.03958  0.33656  1.0000
  C   C392      1.0  0.72986  0.04465  0.34000  1.0000
  C   C393      1.0  0.73762  0.06188  0.36904  1.0000
  C   C394      1.0  0.72348  0.07381  0.39495  1.0000
  C   C395      1.0  0.70185  0.06920  0.39094  1.0000
  H   H391      1.0  0.70260  0.02632  0.31400  1.0000
  H   H392      1.0  0.74062  0.03530  0.31972  1.0000
  H   H393      1.0  0.72919  0.08698  0.41759  1.0000
  H   H394      1.0  0.69104  0.07888  0.41077  1.0000
  C   C396      1.0  0.86961  0.11199  0.32792  1.0000
  C   C397      1.0  0.85658  0.09768  0.30271  1.0000
  C   C398      1.0  0.86247  0.09297  0.26297  1.0000
  C   C399      1.0  0.88124  0.10283  0.24770  1.0000
  C   C400      1.0  0.89403  0.11769  0.27262  1.0000
  C   C401      1.0  0.88835  0.12196  0.31260  1.0000
  H   H395      1.0  0.84216  0.08978  0.31402  1.0000
  H   H396      1.0  0.85245  0.08142  0.24401  1.0000
  H   H397      1.0  0.90853  0.12540  0.26136  1.0000
  H   H398      1.0  0.89854  0.13310  0.33179  1.0000
  Fe  Fe80      1.0  0.81279  0.09239  0.48823  1.0000
  H   H399      1.0  0.94106  0.48402  0.01101  1.0000
  H   H400      1.0  0.79505  0.43856  0.34545  1.0000
  S   S154      1.0  0.92656  0.10752  0.00970  1.0000
  C   C402      1.0  0.72278  0.13334  0.36208  1.0000
  H   H401      1.0  0.90205  0.05779  0.27825  1.0000
  H   H402      1.0  0.89690  0.32097  0.13913  1.0000
  C   C403      1.0  0.81380  0.21906  0.43375  1.0000
  C   C404      1.0  0.82133  0.24424  0.42570  1.0000
  H   H403      1.0  0.82320  0.20219  0.42652  1.0000
  H   H404      1.0  0.83653  0.24643  0.41226  1.0000
  C   C405      1.0  0.73676  0.42228  0.36669  1.0000
  C   C406      1.0  0.72662  0.43121  0.33208  1.0000
  C   C407      1.0  0.70743  0.44481  0.33407  1.0000
  C   C408      1.0  0.69793  0.44941  0.37079  1.0000
  C   C409      1.0  0.70812  0.44064  0.40541  1.0000
  C   C410      1.0  0.72743  0.42728  0.40345  1.0000
  H   H405      1.0  0.73367  0.42757  0.30345  1.0000
  H   H406      1.0  0.69989  0.45148  0.30715  1.0000
  H   H407      1.0  0.67146  0.40479  0.36526  1.0000
  H   H408      1.0  0.73492  0.42051  0.43034  1.0000
  C   C411      1.0  0.94585  0.26926  0.09244  1.0000
  C   C412      1.0  0.95006  0.26934  0.13319  1.0000
  C   C413      1.0  0.95246  0.24570  0.15362  1.0000
  C   C414      1.0  0.95028  0.22179  0.13373  1.0000
  C   C415      1.0  0.94560  0.22171  0.09317  1.0000
  C   C416      1.0  0.94353  0.24536  0.07261  1.0000
  H   H409      1.0  0.95178  0.28760  0.14883  1.0000
  H   H410      1.0  0.95596  0.24591  0.18507  1.0000
  H   H411      1.0  0.94381  0.20343  0.07756  1.0000
  H   H412      1.0  0.94018  0.24512  0.04108  1.0000
  C   C417      1.0  0.88644  0.37568  0.24263  1.0000
  C   C418      1.0  0.87014  0.36271  0.26214  1.0000
  C   C419      1.0  0.86294  0.37111  0.29963  1.0000
  C   C420      1.0  0.87184  0.39283  0.31803  1.0000
  C   C421      1.0  0.88827  0.40569  0.29869  1.0000
  C   C422      1.0  0.89557  0.39716  0.26128  1.0000
  H   H413      1.0  0.86299  0.34602  0.24812  1.0000
  H   H414      1.0  0.85039  0.36093  0.31416  1.0000
  H   H415      1.0  0.89528  0.42250  0.31261  1.0000
  H   H416      1.0  0.90810  0.40738  0.24670  1.0000
  C   C423      1.0  0.91825  0.06002  0.26967  1.0000
  H   H417      1.0  0.70097  0.44401  0.43403  1.0000
  C   C424      1.0  0.94574  0.05269  0.22384  1.0000
  H   H418      1.0  0.81855  0.36773  0.26279  1.0000
  S   S155      1.0  0.82956  0.12923  0.47139  1.0000
  C   C425      1.0  0.67036  0.39109  0.26672  1.0000
  H   H419      1.0  0.89673  0.24192  0.09851  1.0000
  N   N34       1.0  0.82032  0.40851  0.27000  1.0000
  C   C426      1.0  0.83749  0.42412  0.26736  1.0000
  C   C427      1.0  0.80512  0.41369  0.29738  1.0000
  C   C428      1.0  0.83997  0.44523  0.29317  1.0000
  C   C429      1.0  0.80701  0.43480  0.32338  1.0000
  C   C430      1.0  0.82467  0.45045  0.32152  1.0000
  H   H420      1.0  0.79159  0.40120  0.29978  1.0000
  H   H421      1.0  0.85410  0.45672  0.29235  1.0000
  H   H422      1.0  0.91246  0.04158  0.17798  1.0000
  C   C431      1.0  0.87167  0.08312  0.47418  1.0000
  H   H423      1.0  0.95141  0.04439  0.19623  1.0000
  C   C432      1.0  0.73865  0.11327  0.30296  1.0000
  S   S156      1.0  0.78096  0.10844  0.47162  1.0000
  H   H424      1.0  0.86810  0.02077  0.44153  1.0000
  H   H425      1.0  0.89470  0.03726  0.21774  1.0000
  S   S157      1.0  0.78684  0.36491  0.45934  1.0000
  C   C433      1.0  0.67842  0.39452  0.30490  1.0000
  C   C434      1.0  0.91132  0.03461  0.20909  1.0000
  H   H426      1.0  0.89497  0.28896  0.08387  1.0000
  H   H427      1.0  0.70906  0.12137  0.35776  1.0000
  H   H428      1.0  0.89087  0.07797  0.03942  1.0000
  H   H429      1.0  0.90576  0.20799  0.14313  1.0000
  Fe  Fe81      1.0  0.81293  0.39133  0.48127  1.0000
  H   H430      1.0  0.92554  0.08367  0.32089  1.0000
  H   H431      1.0  0.88566  0.21267  0.18003  1.0000
  H   H432      1.0  0.72583  0.09891  0.30599  1.0000
  H   H433      1.0  0.96260  0.08999  0.30087  1.0000
  H   H434      1.0  0.73642  0.12407  0.27481  1.0000
  H   H435      1.0  0.75343  0.10185  0.30144  1.0000
  C   C435      1.0  0.69648  0.00580  0.42644  1.0000
  S   S158      1.0  0.66663  0.04681  0.35867  1.0000
  C   C436      1.0  0.87078  0.06229  0.44745  1.0000
  C   C437      1.0  0.93150  0.07467  0.29400  1.0000
  S   S159      1.0  0.78393  0.18446  0.46225  1.0000
  H   H436      1.0  0.91308  0.21534  0.19284  1.0000
  H   H437      1.0  0.98135  0.27467  0.02812  1.0000
  C   C438      1.0  0.95222  0.07828  0.28273  1.0000
  C   C439      1.0  0.75646  0.14681  0.34175  1.0000
  N   N35       1.0  0.92536  0.04962  0.23477  1.0000
  C   C440      1.0  0.75756  0.16431  0.37360  1.0000
  C   C441      1.0  0.72350  0.15032  0.39462  1.0000
  C   C442      1.0  0.74108  0.16579  0.40044  1.0000
  N   N36       1.0  0.67580  0.99989  0.43053  1.0000
  H   H438      1.0  0.76958  0.14531  0.32156  1.0000
  H   H439      1.0  0.91541  0.01367  0.21033  1.0000
  H   H440      1.0  0.77133  0.17623  0.37814  1.0000
  H   H441      1.0  0.71062  0.15131  0.41538  1.0000
  C   C443      1.0  0.90110  0.21954  0.16969  1.0000
  C   C444      1.0  0.95947  0.06702  0.24765  1.0000
  H   H442      1.0  0.87048  0.06588  0.41571  1.0000
  N   N37       1.0  0.90023  0.24743  0.16104  1.0000
  C   C445      1.0  0.90142  0.26499  0.19159  1.0000
  C   C446      1.0  0.89748  0.25577  0.12283  1.0000
  C   C447      1.0  0.90023  0.29170  0.18416  1.0000
  C   C448      1.0  0.89633  0.28233  0.11434  1.0000
  C   C449      1.0  0.89770  0.30033  0.14526  1.0000
  H   H443      1.0  0.78041  0.28019  0.45938  1.0000
  H   H444      1.0  0.90346  0.25839  0.22190  1.0000
  C   C450      1.0  0.78979  0.26331  0.45217  1.0000
  H   H445      1.0  0.90132  0.30575  0.20824  1.0000
  S   S160      1.0  0.82030  0.29774  0.42504  1.0000
  S   S161      1.0  0.83813  0.36612  0.45453  1.0000
  H   H446      1.0  0.74210  0.17880  0.42586  1.0000
  H   H447      1.0  0.97552  0.06984  0.23840  1.0000
  H   H448      1.0  0.83124  0.38405  0.22260  1.0000
  H   H449      1.0  0.85275  0.27774  0.48606  1.0000
  C   C451      1.0  0.79421  0.21580  0.45123  1.0000
  C   C452      1.0  0.81825  0.38560  0.24434  1.0000
  H   H450      1.0  0.84984  0.41969  0.24638  1.0000
  N   N38       1.0  0.73933  0.13138  0.33664  1.0000
  H   H451      1.0  0.70257  0.02393  0.43798  1.0000
  H   H452      1.0  0.94574  0.05579  0.01963  1.0000
  C   C453      1.0  0.89171  0.07547  0.00756  1.0000
  H   H453      1.0  0.96832  0.04065  0.99720  1.0000
  H   H454      1.0  0.68066  0.38606  0.24236  1.0000
  H   H455      1.0  0.69501  0.39209  0.31053  1.0000
  H   H456      1.0  0.87208  0.10274  0.46256  1.0000
  H   H457      1.0  0.66747  0.03826  0.44912  1.0000
  H   H458      1.0  0.82673  0.46622  0.34259  1.0000
  C   C454      1.0  0.86947  0.03702  0.46195  1.0000
  H   H459      1.0  0.86490  0.05025  0.00444  1.0000
  H   H460      1.0  0.98814  0.24808  0.05947  1.0000
  H   H461      1.0  0.88757  0.40676  0.01127  1.0000
  H   H462      1.0  0.90284  0.47956  0.01323  1.0000
  S   S162      1.0  0.98747  0.06434  0.15739  1.0000
  C   C455      1.0  0.85939  0.29711  0.49346  1.0000
  H   H463      1.0  0.86103  0.30790  0.46510  1.0000
  H   H464      1.0  0.76712  0.23588  0.47391  1.0000
  C   C456      1.0  0.99365  0.26722  0.04861  1.0000
  C   C457      1.0  0.66501  0.40169  0.33579  1.0000
  Fe  Fe82      1.0  0.86380  0.46930  0.83236  1.0000
  S   S163      1.0  0.86208  0.44011  0.88319  1.0000
  C   C458      1.0  0.77827  0.02004  0.78407  1.0000
  S   S164      1.0  0.86577  0.46719  0.67668  1.0000
  C   C459      1.0  0.91776  0.43692  0.94288  1.0000
  C   C460      1.0  0.87699  0.05979  0.98763  1.0000
  Fe  Fe83      1.0  0.86400  0.48017  0.74254  1.0000
  C   C461      1.0  0.87055  0.05409  0.52872  1.0000
  S   S165      1.0  0.81131  0.40410  0.54736  1.0000
  H   H465      1.0  0.85405  0.10715  0.54540  1.0000
  C   C462      1.0  0.90266  0.44136  0.91304  1.0000
  S   S166      1.0  0.88399  0.02570  0.81233  1.0000
  S   S167      1.0  0.83380  0.01431  0.81909  1.0000
  Fe  Fe84      1.0  0.85713  0.01914  0.76933  1.0000
  S   S168      1.0  0.84984  0.04965  0.72069  1.0000
  Fe  Fe85      1.0  0.86126  0.01739  0.86100  1.0000
  S   S169      1.0  0.85951  0.03526  0.92301  1.0000
  H   H466      1.0  0.90693  0.45117  0.88593  1.0000
  H   H467      1.0  0.78763  0.47455  0.65247  1.0000
  H   H468      1.0  0.81467  0.01426  0.71305  1.0000
  S   S170      1.0  0.82029  0.06329  0.53871  1.0000
  H   H469      1.0  0.86973  0.05073  0.56045  1.0000
  C   C463      1.0  0.87787  0.05621  0.94622  1.0000
  H   H470      1.0  0.89630  0.99972  0.96499  1.0000
  C   C464      1.0  0.81220  0.31915  0.55000  1.0000
  C   C465      1.0  0.84175  0.05282  0.66985  1.0000
  C   C466      1.0  0.83814  0.07786  0.65435  1.0000
  C   C467      1.0  0.83138  0.08152  0.61468  1.0000
  C   C468      1.0  0.82807  0.06012  0.58971  1.0000
  C   C469      1.0  0.83170  0.03507  0.60518  1.0000
  C   C470      1.0  0.83851  0.03141  0.64482  1.0000
  H   H471      1.0  0.84053  0.09462  0.67328  1.0000
  H   H472      1.0  0.82859  0.10092  0.60362  1.0000
  H   H473      1.0  0.82928  0.01831  0.58628  1.0000
  H   H474      1.0  0.84133  0.01202  0.65588  1.0000
  H   H475      1.0  0.89430  0.06632  0.89293  1.0000
  H   H476      1.0  0.95853  0.04447  0.91330  1.0000
  C   C471      1.0  0.80263  0.00873  0.73385  1.0000
  H   H477      1.0  0.87505  0.29399  0.50690  1.0000
  C   C472      1.0  0.89349  0.06879  0.92479  1.0000
  H   H478      1.0  0.87068  0.47776  0.97755  1.0000
  C   C473      1.0  0.85096  0.44813  0.64195  1.0000
  C   C474      1.0  0.85754  0.44683  0.60206  1.0000
  C   C475      1.0  0.84587  0.43327  0.57288  1.0000
  C   C476      1.0  0.82728  0.42081  0.58305  1.0000
  C   C477      1.0  0.82077  0.42189  0.62302  1.0000
  C   C478      1.0  0.83252  0.43531  0.65226  1.0000
  C   C479      1.0  0.91039  0.00872  0.95384  1.0000
  H   H479      1.0  0.85119  0.43272  0.54244  1.0000
  H   H480      1.0  0.80649  0.41229  0.63146  1.0000
  H   H481      1.0  0.82720  0.43597  0.68269  1.0000
  C   C480      1.0  0.88206  0.43330  0.91852  1.0000
  C   C481      1.0  0.87692  0.42017  0.95371  1.0000
  H   H482      1.0  0.86106  0.41369  0.95814  1.0000
  N   N39       1.0  0.87151  0.07885  0.51424  1.0000
  H   H483      1.0  0.84625  0.36651  0.57666  1.0000
  N   N40       1.0  0.94018  0.03613  0.96437  1.0000
  H   H484      1.0  0.81194  0.47841  0.59607  1.0000
  H   H485      1.0  0.86900  0.48913  0.92806  1.0000
  C   C482      1.0  0.90726  0.08814  0.98611  1.0000
  C   C483      1.0  0.87059  0.10100  0.54167  1.0000
  C   C484      1.0  0.90985  0.48939  0.98818  1.0000
  H   H486      1.0  0.86922  0.34002  0.53332  1.0000
  C   C485      1.0  0.93271  0.01970  0.89897  1.0000
  H   H487      1.0  0.90520  0.99617  0.89361  1.0000
  H   H488      1.0  0.77547  0.48801  0.71508  1.0000
  C   C486      1.0  0.81978  0.34138  0.56879  1.0000
  H   H489      1.0  0.77098  0.03451  0.80301  1.0000
  N   N41       1.0  0.79265  0.02718  0.75625  1.0000
  H   H490      1.0  0.81212  0.05885  0.77163  1.0000
  H   H491      1.0  0.87695  0.09585  0.57138  1.0000
  H   H492      1.0  0.79772  0.49207  0.74734  1.0000
  C   C487      1.0  0.94512  0.03429  0.92496  1.0000
  H   H493      1.0  0.93357  0.44354  0.93848  1.0000
  C   C488      1.0  0.91242  0.42479  0.97882  1.0000
  H   H494      1.0  0.91991  0.09464  0.92776  1.0000
  C   C489      1.0  0.85334  0.33370  0.53858  1.0000
  C   C490      1.0  0.90800  0.08482  0.94464  1.0000
  S   S171      1.0  0.83811  0.47255  0.78600  1.0000
  S   S172      1.0  0.88981  0.47345  0.78806  1.0000
  H   H495      1.0  0.80952  0.35335  0.58688  1.0000
  C   C491      1.0  0.79846  0.05456  0.75225  1.0000
  C   C492      1.0  0.84048  0.34875  0.56312  1.0000
  C   C493      1.0  0.82552  0.30447  0.52586  1.0000
  H   H496      1.0  0.87176  0.45657  0.59356  1.0000
  H   H497      1.0  0.79600  0.31358  0.55347  1.0000
  H   H498      1.0  0.78537  0.06772  0.76038  1.0000
  H   H499      1.0  0.81940  0.28744  0.51089  1.0000
  H   H500      1.0  0.80291  0.05908  0.72114  1.0000
  H   H501      1.0  0.86786  0.01334  0.51456  1.0000
  H   H502      1.0  0.87970  0.11766  0.53024  1.0000
  N   N42       1.0  0.84583  0.31180  0.52048  1.0000
  C   C494      1.0  0.91522  0.00697  0.91361  1.0000
  C   C495      1.0  0.92315  0.02343  0.97902  1.0000
  C   C496      1.0  0.81386  0.49068  0.62213  1.0000
  H   H503      1.0  0.93638  0.01845  0.86755  1.0000
  C   C497      1.0  0.86942  0.03283  0.50285  1.0000
  C   C498      1.0  0.80021  0.48851  0.65428  1.0000
  C   C499      1.0  0.89197  0.41603  0.98380  1.0000
  C   C500      1.0  0.93158  0.49192  0.98712  1.0000
  C   C501      1.0  0.95360  0.05134  0.99097  1.0000
  H   H504      1.0  0.95726  0.07046  0.97744  1.0000
  C   C502      1.0  0.87512  0.49419  0.95802  1.0000
  C   C503      1.0  0.72180  0.95482  0.00474  1.0000
  C   C504      1.0  0.66974  0.54311  0.12542  1.0000
  H   H505      1.0  0.71242  0.95250  0.37472  1.0000
  H   H506      1.0  0.76588  0.88373  0.01038  1.0000
  C   C505      1.0  0.75230  0.89360  0.02245  1.0000
  N   N43       1.0  0.72873  0.93007  0.02180  1.0000
  H   H507      1.0  0.71660  0.96845  0.02838  1.0000
  H   H508      1.0  0.70858  0.63261  0.10951  1.0000
  S   S173      1.0  0.66965  0.88774  0.05889  1.0000
  H   H509      1.0  0.74450  0.86275  0.06285  1.0000
  H   H510      1.0  0.70267  0.92793  0.06085  1.0000
  H   H511      1.0  0.68213  0.55936  0.07103  1.0000
  C   C506      1.0  0.66547  0.64991  0.05665  1.0000
  C   C507      1.0  0.68627  0.64983  0.06939  1.0000
  C   C508      1.0  0.66825  0.97675  0.41674  1.0000
  C   C509      1.0  0.70994  0.98899  0.40606  1.0000
  H   H512      1.0  0.68500  0.53879  0.13761  1.0000
  C   C510      1.0  0.66816  0.55474  0.08748  1.0000
  C   C511      1.0  0.74625  0.91787  0.00772  1.0000
  H   H513      1.0  0.67514  0.94113  0.38528  1.0000
  C   C512      1.0  0.70225  0.96564  0.39096  1.0000
  C   C513      1.0  0.71688  0.91864  0.05047  1.0000
  H   H514      1.0  0.69764  0.66211  0.05480  1.0000
  C   C514      1.0  0.68134  0.95928  0.39675  1.0000
  C   C515      1.0  0.72255  0.89447  0.06608  1.0000
  C   C516      1.0  0.74033  0.88185  0.05182  1.0000
  H   H515      1.0  0.71273  0.88526  0.08812  1.0000
  C   C517      1.0  0.69237  0.63333  0.10010  1.0000
  C   C518      1.0  0.67756  0.61760  0.11830  1.0000
  H   H516      1.0  0.68633  0.73740  0.01418  1.0000
  H   H517      1.0  0.66536  0.58568  0.40286  1.0000
  H   H518      1.0  0.68210  0.60440  0.14190  1.0000
  H   H519      1.0  0.72614  0.99430  0.40154  1.0000
  H   H520      1.0  0.97522  0.58560  0.68843  1.0000
  S   S174      1.0  0.86238  0.51169  0.84814  1.0000
  S   S175      1.0  0.86367  0.52356  0.75377  1.0000
  Fe  Fe86      1.0  0.88755  0.51624  0.80182  1.0000
  S   S176      1.0  0.91450  0.54222  0.82354  1.0000
  Fe  Fe87      1.0  0.83868  0.51548  0.79935  1.0000
  S   S177      1.0  0.80907  0.54104  0.79684  1.0000
  Fe  Fe88      1.0  0.68705  0.64573  0.95132  1.0000
  Fe  Fe89      1.0  0.70882  0.59352  0.92979  1.0000
  S   S178      1.0  0.67788  0.57360  0.92076  1.0000
  S   S179      1.0  0.73846  0.56808  0.92604  1.0000
  C   C519      1.0  0.67313  0.54451  0.82674  1.0000
  S   S180      1.0  0.69992  0.62894  0.89446  1.0000
  Fe  Fe90      1.0  0.88926  0.98234  0.80994  1.0000
  C   C520      1.0  0.98503  0.63067  0.72485  1.0000
  S   S181      1.0  0.92279  0.96902  0.82457  1.0000
  Fe  Fe91      1.0  0.84150  0.97179  0.81534  1.0000
  S   S182      1.0  0.81732  0.93899  0.81573  1.0000
  S   S183      1.0  0.86390  0.97611  0.76359  1.0000
  S   S184      1.0  0.86724  0.97441  0.86039  1.0000
  H   H521      1.0  0.69287  0.70550  0.89695  1.0000
  S   S185      1.0  0.68899  0.87260  0.87864  1.0000
  Fe  Fe92      1.0  0.68832  0.84278  0.92797  1.0000
  Fe  Fe93      1.0  0.70558  0.89875  0.92235  1.0000
  S   S186      1.0  0.73172  0.92888  0.91331  1.0000
  S   S187      1.0  0.67540  0.91600  0.94591  1.0000
  C   C521      1.0  0.79400  0.93611  0.84441  1.0000
  C   C522      1.0  0.78714  0.95578  0.87011  1.0000
  C   C523      1.0  0.76811  0.95313  0.89080  1.0000
  C   C524      1.0  0.75566  0.93079  0.88635  1.0000
  C   C525      1.0  0.76256  0.91107  0.86080  1.0000
  C   C526      1.0  0.78155  0.91379  0.83992  1.0000
  H   H522      1.0  0.79645  0.97310  0.87391  1.0000
  H   H523      1.0  0.76299  0.96857  0.91040  1.0000
  H   H524      1.0  0.75323  0.89379  0.85691  1.0000
  H   H525      1.0  0.78659  0.89845  0.82006  1.0000
  C   C527      1.0  0.97639  0.91814  0.77516  1.0000
  C   C528      1.0  0.95777  0.92114  0.75324  1.0000
  C   C529      1.0  0.94147  0.93739  0.76695  1.0000
  C   C530      1.0  0.94357  0.95077  0.80295  1.0000
  C   C531      1.0  0.96245  0.94839  0.82424  1.0000
  C   C532      1.0  0.97879  0.93229  0.81041  1.0000
  H   H526      1.0  0.95578  0.91041  0.72582  1.0000
  H   H527      1.0  0.92712  0.93909  0.75013  1.0000
  H   H528      1.0  0.96432  0.95874  0.85201  1.0000
  H   H529      1.0  0.69182  0.57766  0.78080  1.0000
  C   C533      1.0  0.79005  0.54893  0.83384  1.0000
  C   C534      1.0  0.77439  0.56738  0.82501  1.0000
  C   C535      1.0  0.75878  0.57394  0.85299  1.0000
  C   C536      1.0  0.75848  0.56191  0.89021  1.0000
  C   C537      1.0  0.77411  0.54343  0.89896  1.0000
  C   C538      1.0  0.78981  0.53702  0.87112  1.0000
  H   H530      1.0  0.77444  0.57688  0.79643  1.0000
  H   H531      1.0  0.74706  0.58837  0.84582  1.0000
  H   H532      1.0  0.77407  0.53392  0.92755  1.0000
  C   C539      1.0  0.95515  0.61829  0.76164  1.0000
  H   H533      1.0  0.94887  0.58477  0.70545  1.0000
  C   C540      1.0  0.96658  0.54389  0.75302  1.0000
  C   C541      1.0  0.94657  0.53784  0.76777  1.0000
  C   C542      1.0  0.93994  0.54800  0.80421  1.0000
  C   C543      1.0  0.95374  0.56395  0.82588  1.0000
  C   C544      1.0  0.97378  0.56994  0.81118  1.0000
  H   H534      1.0  0.93548  0.52103  0.89691  1.0000
  H   H535      1.0  0.93623  0.52545  0.75080  1.0000
  H   H536      1.0  0.94882  0.57191  0.85412  1.0000
  C   C545      1.0  0.98023  0.56022  0.77433  1.0000
  N   N44       1.0  0.96742  0.61596  0.72862  1.0000
  H   H537      1.0  0.80164  0.52276  0.87848  1.0000
  S   S188      1.0  0.70712  0.86797  0.96995  1.0000
  H   H538      1.0  0.77900  0.95467  0.76940  1.0000
  H   H539      1.0  0.95645  0.60916  0.67000  1.0000
  H   H540      1.0  0.72343  0.54144  0.85471  1.0000
  C   C546      1.0  0.70704  0.53658  0.85278  1.0000
  H   H541      1.0  0.94135  0.60633  0.76501  1.0000
  Fe  Fe94      1.0  0.66836  0.60978  0.88783  1.0000
  C   C547      1.0  0.78266  0.97507  0.76542  1.0000
  C   C548      1.0  0.70215  0.57240  0.80613  1.0000
  H   H542      1.0  0.98404  0.58250  0.82798  1.0000
  H   H543      1.0  0.97580  0.85347  0.87240  1.0000
  C   C549      1.0  0.96063  0.63540  0.79232  1.0000
  C   C550      1.0  0.69938  0.51666  0.87667  1.0000
  C   C551      1.0  0.68793  0.74010  0.98252  1.0000
  C   C552      1.0  0.81943  0.52014  0.69035  1.0000
  H   H544      1.0  0.89738  0.51621  0.90039  1.0000
  H   H545      1.0  0.95115  0.63667  0.81887  1.0000
  H   H546      1.0  0.95424  0.85498  0.78096  1.0000
  H   H547      1.0  0.67667  0.81246  0.82565  1.0000
  C   C553      1.0  0.91507  0.89264  0.81726  1.0000
  H   H548      1.0  0.70315  0.58960  0.82610  1.0000
  C   C554      1.0  0.92848  0.51226  0.92294  1.0000
  H   H549      1.0  0.84216  0.50828  0.60105  1.0000
  N   N45       1.0  0.69396  0.55026  0.82833  1.0000
  C   C555      1.0  0.97857  0.65049  0.78867  1.0000
  H   H550      1.0  0.86743  0.51229  0.96850  1.0000
  C   C556      1.0  0.92466  0.90078  0.85235  1.0000
  C   C557      1.0  0.96162  0.59807  0.69647  1.0000
  C   C558      1.0  0.69251  0.74754  0.90120  1.0000
  C   C559      1.0  0.66493  0.52459  0.85006  1.0000
  C   C560      1.0  0.69157  0.72208  0.91663  1.0000
  H   H551      1.0  0.71795  0.56806  0.79426  1.0000
  H   H552      1.0  0.70863  0.95129  0.98385  1.0000
  H   H553      1.0  0.95777  0.50481  0.95250  1.0000
  C   C561      1.0  0.94092  0.50330  0.95414  1.0000
  H   H554      1.0  0.68757  0.78216  0.98675  1.0000
  C   C562      1.0  0.69111  0.76948  0.92623  1.0000
  C   C563      1.0  0.94580  0.86731  0.80167  1.0000
  C   C564      1.0  0.97625  0.86664  0.84643  1.0000
  N   N46       1.0  0.95512  0.87547  0.83614  1.0000
  H   H555      1.0  0.95237  0.89884  0.88825  1.0000
  S   S189      1.0  0.69306  0.80109  0.90484  1.0000
  S   S190      1.0  0.69863  0.61174  0.98801  1.0000
  C   C565      1.0  0.68862  0.76558  0.96704  1.0000
  H   H556      1.0  0.98386  0.85623  0.82130  1.0000
  C   C566      1.0  0.94479  0.89188  0.86145  1.0000
  H   H557      1.0  0.91685  0.91473  0.87152  1.0000
  H   H558      1.0  0.98635  0.88356  0.85340  1.0000
  C   C567      1.0  0.92564  0.87571  0.79176  1.0000
  H   H559      1.0  0.98319  0.66377  0.81221  1.0000
  H   H560      1.0  0.97141  0.53608  0.72462  1.0000
  Fe  Fe95      1.0  0.66727  0.59382  0.97682  1.0000
  H   H561      1.0  0.69452  0.75024  0.86963  1.0000
  C   C568      1.0  0.83080  0.50751  0.62484  1.0000
  C   C569      1.0  0.68944  0.71816  0.95750  1.0000
  H   H562      1.0  0.91855  0.86985  0.76387  1.0000
  H   H563      1.0  0.89973  0.90011  0.80932  1.0000
  C   C570      1.0  0.83362  0.52239  0.65910  1.0000
  C   C571      1.0  0.90683  0.50937  0.92498  1.0000
  H   H564      1.0  0.82179  0.53164  0.71703  1.0000
  C   C572      1.0  0.99075  0.64829  0.75462  1.0000
  S   S191      1.0  0.99512  0.89459  0.75938  1.0000
  C   C573      1.0  0.67817  0.51067  0.87530  1.0000
  H   H565      1.0  0.84710  0.53494  0.66202  1.0000
  H   H566      1.0  0.99306  0.93039  0.82745  1.0000
  N   N47       1.0  0.89782  0.49757  0.95694  1.0000
  S   S192      1.0  0.68915  0.68650  0.97909  1.0000
  Fe  Fe96      1.0  0.67615  0.88423  0.99142  1.0000
  H   H567      1.0  0.80607  0.96773  0.72106  1.0000
  H   H568      1.0  0.70980  0.50657  0.89697  1.0000
  H   H569      1.0  0.73446  0.96433  0.98767  1.0000
  H   H570      1.0  0.75541  0.92659  0.98427  1.0000
  H   H571      1.0  0.78309  0.51999  0.73118  1.0000
  C   C574      1.0  0.78906  0.50060  0.72181  1.0000
  C   C575      1.0  0.79780  0.98242  0.73809  1.0000
  H   H572      1.0  0.99495  0.62847  0.69901  1.0000
  H   H573      1.0  0.66262  0.55574  0.80811  1.0000
  H   H574      1.0  0.76170  0.98813  0.81119  1.0000
  N   N48       1.0  0.80308  0.50325  0.68777  1.0000
  H   H575      1.0  0.66365  0.81316  0.75584  1.0000
  C   C576      1.0  0.77294  0.99391  0.78886  1.0000
  H   H576      1.0  0.67194  0.49568  0.89440  1.0000
