data_image0
_chemical_formula_structural       C2HC2HCHCHCHC5H2C7SH2SH4CHCHNSHCH2FeSCFeS2FeSFeS3FeS2FeS2Fe2CS2C3H3C2H2CH2C3HC4HCHC7H6CH2CNH2CH2CH3C3H2NHCH2C2H2C2NHC4HC2H3CSCH2C2HNH4SH2NCHFeS2FeS2FeSFeS3H2SCFe2S2FeC3S2H4C2HCHCSC2H2SCH2C6H4C4HFeC6H4SCHC2H2CHC4NHC2H2CHNC3H5CHFeCHNC4H6C4H3C2H5CH2SN2SHNH3C2SFeSFeSC4SC6H4FeCH3S2HCH3SCHNCHFeHC3H2FeCNSCSHSHCSH3C2SC3SH2SH2FeCSHFeCSH2CSCHCHCH2FeSCH2CH3CH4CFeCHNHFeC2SHC2HCH2FeS2HSHFeSFeS3CHCH2SC2SCFeHC2H2C2HCHC4NH2CFeC3HC2H8C5H2CH2SH2FeS2FeS2FeSFeS3HCHCHC9H4C2H2C2HCH2SC2HCHC2H2C2H6NHC2H2CH2C3H2SC3HC3NC2NCH3CHCHSHCHFeS2FeSHFeSFeS3FeS2FeS2FeSFeS2FeSC6H4C6H4C6FeHC6NCHNC5H2SH3CH3FeH2C2HNFeHSH2C3HCH2CH3CSH2CHCH3SCH3C2H2NH2CSH6C2SHCH2C3SH3C2HCHNHC2FeS2FeS2FeSFeS3CH2SC7H4C6HNH2C4NH2CHC2HFeHCH2C5NC4HCSCH2C4H10CH2CHC2H2CH4CH5FeS2FeS2FeSFeCS2FeS2FeS2FeSFeS2FeSC6H4C6H5CNC2H2C4H3CNC6H8CFeH2C2HCH2CHCS3CFeHCHNC2HCH2NHCHCH4C3HC3H3CSHCH2CH4CSC2NC
_chemical_formula_sum              "C384 H384 S128 N32 Fe64"
_cell_length_a       44.8456
_cell_length_b       59.6881
_cell_length_c       29.8766
_cell_angle_alpha    90.1222
_cell_angle_beta     108.956
_cell_angle_gamma    90.0968

_space_group_name_H-M_alt    "P 1"
_space_group_IT_number       1

loop_
  _space_group_symop_operation_xyz
  'x, y, z'

loop_
  _atom_site_type_symbol
  _atom_site_label
  _atom_site_symmetry_multiplicity
  _atom_site_fract_x
  _atom_site_fract_y
  _atom_site_fract_z
  _atom_site_occupancy
  C   C1        1.0  0.29796  0.30936  0.43141  1.0000
  C   C2        1.0  0.16900  0.27473  0.99761  1.0000
  H   H1        1.0  0.26661  0.28875  0.06915  1.0000
  C   C3        1.0  0.29181  0.30309  0.38379  1.0000
  C   C4        1.0  0.07907  0.05108  0.05374  1.0000
  H   H2        1.0  0.06045  0.01847  0.05937  1.0000
  C   C5        1.0  0.07619  0.19806  0.00896  1.0000
  H   H3        1.0  0.11743  0.21797  0.04497  1.0000
  C   C6        1.0  0.37011  0.30060  0.31452  1.0000
  H   H4        1.0  0.20595  0.24372  0.09505  1.0000
  C   C7        1.0  0.07245  0.02866  0.04042  1.0000
  H   H5        1.0  0.36296  0.28351  0.30393  1.0000
  C   C8        1.0  0.30202  0.29314  0.46717  1.0000
  C   C9        1.0  0.29962  0.27032  0.45571  1.0000
  C   C10       1.0  0.29341  0.26401  0.40806  1.0000
  C   C11       1.0  0.28973  0.28027  0.37231  1.0000
  C   C12       1.0  0.38525  0.31333  0.28919  1.0000
  H   H6        1.0  0.29145  0.24642  0.39872  1.0000
  H   H7        1.0  0.28503  0.27513  0.33592  1.0000
  C   C13       1.0  0.17872  0.25573  0.02582  1.0000
  C   C14       1.0  0.24571  0.25912  0.00121  1.0000
  C   C15       1.0  0.09397  0.06446  0.02914  1.0000
  C   C16       1.0  0.19834  0.25835  0.07297  1.0000
  C   C17       1.0  0.20828  0.27978  0.09185  1.0000
  C   C18       1.0  0.19823  0.29881  0.06387  1.0000
  C   C19       1.0  0.26585  0.29594  0.03448  1.0000
  S   S1        1.0  0.16719  0.22839  0.00386  1.0000
  H   H8        1.0  0.38990  0.30628  0.25858  1.0000
  H   H9        1.0  0.22335  0.28158  0.12823  1.0000
  S   S2        1.0  0.28843  0.31343  0.20047  1.0000
  H   H10       1.0  0.09891  0.08195  0.03882  1.0000
  H   H11       1.0  0.35123  0.30039  0.37188  1.0000
  H   H12       1.0  0.07208  0.05818  0.08229  1.0000
  H   H13       1.0  0.08621  0.14236  0.00981  1.0000
  C   C20       1.0  0.36352  0.31028  0.35293  1.0000
  H   H14       1.0  0.08427  0.18383  0.03225  1.0000
  C   C21       1.0  0.09504  0.21731  0.01642  1.0000
  H   H15       1.0  0.23663  0.24773  0.49338  1.0000
  N   N1        1.0  0.08036  0.01985  0.00344  1.0000
  S   S3        1.0  0.04111  0.10714  0.99997  1.0000
  H   H16       1.0  0.25504  0.31282  0.03270  1.0000
  C   C22       1.0  0.17856  0.29619  0.01671  1.0000
  H   H17       1.0  0.25669  0.25168  0.03573  1.0000
  H   H18       1.0  0.29037  0.29780  0.03384  1.0000
  Fe  Fe1       1.0  0.14322  0.21895  0.92664  1.0000
  S   S4        1.0  0.17031  0.19767  0.89104  1.0000
  C   C23       1.0  0.24980  0.21973  0.54141  1.0000
  Fe  Fe2       1.0  0.08189  0.21578  0.84048  1.0000
  S   S5        1.0  0.10535  0.19539  0.79838  1.0000
  S   S6        1.0  0.02908  0.22177  0.82228  1.0000
  Fe  Fe3       1.0  0.12635  0.17632  0.86646  1.0000
  S   S7        1.0  0.11958  0.13871  0.86837  1.0000
  Fe  Fe4       1.0  0.14709  0.21886  0.82685  1.0000
  S   S8        1.0  0.17352  0.23943  0.78685  1.0000
  S   S9        1.0  0.10142  0.19587  0.90688  1.0000
  S   S10       1.0  0.12154  0.24107  0.86413  1.0000
  Fe  Fe5       1.0  0.37757  0.25173  0.67024  1.0000
  S   S11       1.0  0.35803  0.27943  0.61759  1.0000
  S   S12       1.0  0.43130  0.25039  0.69546  1.0000
  Fe  Fe6       1.0  0.31176  0.23899  0.67302  1.0000
  S   S13       1.0  0.28744  0.26508  0.61993  1.0000
  S   S14       1.0  0.28584  0.21502  0.70720  1.0000
  Fe  Fe7       1.0  0.31995  0.25527  0.57946  1.0000
  Fe  Fe8       1.0  0.32732  0.28712  0.66156  1.0000
  C   C24       1.0  0.48640  0.31625  0.83852  1.0000
  S   S15       1.0  0.34133  0.22672  0.62920  1.0000
  S   S16       1.0  0.34977  0.26186  0.71762  1.0000
  C   C25       1.0  0.08406  0.13354  0.97727  1.0000
  C   C26       1.0  0.34829  0.30144  0.86308  1.0000
  C   C27       1.0  0.45794  0.23095  0.73244  1.0000
  H   H19       1.0  0.05332  0.16622  0.82007  1.0000
  H   H20       1.0  0.30663  0.29831  0.50354  1.0000
  H   H21       1.0  0.04902  0.99638  0.95875  1.0000
  C   C28       1.0  0.47143  0.19425  0.76880  1.0000
  C   C29       1.0  0.44869  0.20954  0.74180  1.0000
  H   H22       1.0  0.30836  0.25900  0.79221  1.0000
  H   H23       1.0  0.09966  0.02627  0.94817  1.0000
  C   C30       1.0  0.48985  0.23710  0.75142  1.0000
  H   H24       1.0  0.42420  0.20458  0.72737  1.0000
  H   H25       1.0  0.04700  0.08864  0.91271  1.0000
  C   C31       1.0  0.03897  0.21467  0.94171  1.0000
  C   C32       1.0  0.22894  0.24529  0.96349  1.0000
  C   C33       1.0  0.21420  0.25469  0.91911  1.0000
  H   H26       1.0  0.34921  0.26542  0.87079  1.0000
  C   C34       1.0  0.09944  0.12921  0.90681  1.0000
  C   C35       1.0  0.08069  0.10983  0.89522  1.0000
  C   C36       1.0  0.06225  0.10309  0.92300  1.0000
  C   C37       1.0  0.10144  0.14083  0.94841  1.0000
  H   H27       1.0  0.07984  0.10033  0.86398  1.0000
  C   C38       1.0  0.02152  0.09348  0.77688  1.0000
  H   H28       1.0  0.11707  0.15507  0.95907  1.0000
  C   C39       1.0  0.21629  0.27771  0.91291  1.0000
  C   C40       1.0  0.25524  0.22231  0.73030  1.0000
  C   C41       1.0  0.24326  0.20589  0.75365  1.0000
  C   C42       1.0  0.21839  0.21079  0.77138  1.0000
  C   C43       1.0  0.20509  0.23222  0.76571  1.0000
  C   C44       1.0  0.21710  0.24864  0.74231  1.0000
  C   C45       1.0  0.24198  0.24374  0.72464  1.0000
  H   H29       1.0  0.25325  0.18922  0.75808  1.0000
  H   H30       1.0  0.20942  0.19797  0.78919  1.0000
  H   H31       1.0  0.20688  0.26523  0.73754  1.0000
  H   H32       1.0  0.25063  0.25646  0.70622  1.0000
  H   H33       1.0  0.50475  0.18410  0.70040  1.0000
  H   H34       1.0  0.05929  0.12947  0.78645  1.0000
  C   C46       1.0  0.23294  0.23923  0.52330  1.0000
  H   H35       1.0  0.26647  0.21335  0.52507  1.0000
  H   H36       1.0  0.17067  0.31083  0.99481  1.0000
  C   C47       1.0  0.05740  0.23410  0.94787  1.0000
  N   N2        1.0  0.33550  0.31926  0.83461  1.0000
  H   H37       1.0  0.20102  0.24419  0.88956  1.0000
  H   H38       1.0  0.15396  0.27293  0.96123  1.0000
  C   C48       1.0  0.08562  0.23539  0.98554  1.0000
  H   H39       1.0  0.28925  0.19377  0.61727  1.0000
  H   H40       1.0  0.05030  0.24770  0.92255  1.0000
  C   C49       1.0  0.03899  0.13235  0.79790  1.0000
  H   H41       1.0  0.28520  0.29171  0.74125  1.0000
  H   H42       1.0  0.48157  0.28345  0.86551  1.0000
  H   H43       1.0  0.20472  0.28505  0.87840  1.0000
  C   C50       1.0  0.33873  0.27953  0.84836  1.0000
  C   C51       1.0  0.47455  0.29446  0.83502  1.0000
  C   C52       1.0  0.26434  0.18903  0.59850  1.0000
  H   H44       1.0  0.01753  0.21363  0.91151  1.0000
  H   H45       1.0  0.23469  0.30898  0.94642  1.0000
  N   N3        1.0  0.01743  0.11569  0.79509  1.0000
  H   H46       1.0  0.46423  0.17755  0.77496  1.0000
  C   C53       1.0  0.21239  0.24811  0.54513  1.0000
  H   H47       1.0  0.22675  0.22746  0.96892  1.0000
  H   H48       1.0  0.19978  0.26351  0.53205  1.0000
  C   C54       1.0  0.06377  0.11504  0.96404  1.0000
  C   C55       1.0  0.31575  0.27594  0.80443  1.0000
  H   H49       1.0  0.03334  0.19411  0.74369  1.0000
  H   H50       1.0  0.26346  0.17712  0.56950  1.0000
  C   C56       1.0  0.07186  0.99666  0.98822  1.0000
  C   C57       1.0  0.44444  0.30143  0.75335  1.0000
  N   N4        1.0  0.24587  0.20917  0.57974  1.0000
  H   H51       1.0  0.22334  0.20982  0.63267  1.0000
  C   C58       1.0  0.20885  0.23741  0.58461  1.0000
  C   C59       1.0  0.30259  0.29424  0.77594  1.0000
  C   C60       1.0  0.09438  0.03302  0.97848  1.0000
  C   C61       1.0  0.02972  0.17630  0.96331  1.0000
  H   H52       1.0  0.42794  0.29551  0.72016  1.0000
  C   C62       1.0  0.23320  0.29108  0.95143  1.0000
  C   C63       1.0  0.50346  0.20032  0.78706  1.0000
  H   H53       1.0  0.25550  0.18021  0.62448  1.0000
  H   H54       1.0  0.49726  0.25366  0.74465  1.0000
  H   H55       1.0  0.36880  0.30734  0.75556  1.0000
  C   C64       1.0  0.22585  0.21782  0.60150  1.0000
  S   S17       1.0  0.01464  0.04914  0.93556  1.0000
  C   C65       1.0  0.45352  0.28695  0.79218  1.0000
  H   H56       1.0  0.19348  0.24438  0.60261  1.0000
  H   H57       1.0  0.36612  0.30413  0.89736  1.0000
  C   C66       1.0  0.31255  0.31592  0.79187  1.0000
  C   C67       1.0  0.03591  0.15319  0.81729  1.0000
  H   H58       1.0  0.44439  0.26995  0.78895  1.0000
  N   N5        1.0  0.04838  0.19702  0.97223  1.0000
  H   H59       1.0  0.04117  0.09316  0.76190  1.0000
  H   H60       1.0  0.03662  0.16566  0.93775  1.0000
  H   H61       1.0  0.02646  0.08095  0.80585  1.0000
  H   H62       1.0  0.10070  0.25006  0.99008  1.0000
  S   S18       1.0  0.30340  0.24923  0.49941  1.0000
  H   H63       1.0  0.09030  0.98858  0.97638  1.0000
  H   H64       1.0  0.11228  0.06603  0.97094  1.0000
  N   N6        1.0  0.24741  0.28174  0.99497  1.0000
  C   C68       1.0  0.10155  0.05548  0.99109  1.0000
  H   H65       1.0  0.03358  0.16648  0.99635  1.0000
  Fe  Fe9       1.0  0.25302  0.58931  0.16324  1.0000
  S   S19       1.0  0.29691  0.60672  0.20884  1.0000
  S   S20       1.0  0.21138  0.61183  0.12684  1.0000
  Fe  Fe10      1.0  0.28530  0.54311  0.17672  1.0000
  S   S21       1.0  0.33159  0.55762  0.22216  1.0000
  S   S22       1.0  0.28366  0.50778  0.14628  1.0000
  Fe  Fe11      1.0  0.30272  0.57745  0.25791  1.0000
  S   S23       1.0  0.32306  0.57877  0.33883  1.0000
  Fe  Fe12      1.0  0.32164  0.58560  0.16968  1.0000
  S   S24       1.0  0.35458  0.60242  0.13697  1.0000
  S   S25       1.0  0.25658  0.56108  0.21542  1.0000
  S   S26       1.0  0.27752  0.57012  0.12147  1.0000
  H   H66       1.0  0.30708  0.53275  0.08478  1.0000
  H   H67       1.0  0.32808  0.54412  0.41429  1.0000
  S   S27       1.0  0.45831  0.54623  0.08517  1.0000
  C   C69       1.0  0.27137  0.57472  0.41273  1.0000
  Fe  Fe13      1.0  0.24828  0.33469  0.15534  1.0000
  Fe  Fe14      1.0  0.27346  0.37792  0.21168  1.0000
  S   S28       1.0  0.31555  0.35983  0.25901  1.0000
  S   S29       1.0  0.26287  0.41340  0.23076  1.0000
  Fe  Fe15      1.0  0.31799  0.34284  0.19318  1.0000
  C   C70       1.0  0.34688  0.52383  0.06328  1.0000
  C   C71       1.0  0.38625  0.34473  0.34067  1.0000
  C   C72       1.0  0.30326  0.54121  0.41272  1.0000
  S   S30       1.0  0.27861  0.36317  0.14538  1.0000
  S   S31       1.0  0.23974  0.35113  0.21814  1.0000
  H   H68       1.0  0.34191  0.35321  0.38913  1.0000
  H   H69       1.0  0.28501  0.65030  0.38421  1.0000
  H   H70       1.0  0.38556  0.58349  0.32689  1.0000
  H   H71       1.0  0.42922  0.61261  0.18641  1.0000
  C   C73       1.0  0.36306  0.34249  0.40419  1.0000
  C   C74       1.0  0.39542  0.62699  0.23741  1.0000
  H   H72       1.0  0.38276  0.35285  0.42696  1.0000
  C   C75       1.0  0.30066  0.63615  0.39593  1.0000
  H   H73       1.0  0.42337  0.57696  0.28340  1.0000
  C   C76       1.0  0.34099  0.33610  0.08451  1.0000
  S   S32       1.0  0.36528  0.33905  0.18231  1.0000
  C   C77       1.0  0.39348  0.33551  0.30237  1.0000
  C   C78       1.0  0.19481  0.38399  0.11859  1.0000
  H   H74       1.0  0.28835  0.62133  0.32597  1.0000
  H   H75       1.0  0.39167  0.36223  0.34954  1.0000
  S   S33       1.0  0.47330  0.34481  0.02017  1.0000
  C   C79       1.0  0.40061  0.33941  0.07337  1.0000
  H   H76       1.0  0.18882  0.36696  0.12525  1.0000
  H   H77       1.0  0.29536  0.56734  0.03567  1.0000
  C   C80       1.0  0.28076  0.48175  0.17316  1.0000
  C   C81       1.0  0.27202  0.48035  0.21392  1.0000
  C   C82       1.0  0.26783  0.45923  0.23209  1.0000
  C   C83       1.0  0.27261  0.43933  0.21005  1.0000
  C   C84       1.0  0.28220  0.44072  0.17005  1.0000
  C   C85       1.0  0.28594  0.46184  0.15148  1.0000
  H   H78       1.0  0.26789  0.49552  0.23087  1.0000
  H   H79       1.0  0.26039  0.45832  0.26305  1.0000
  H   H80       1.0  0.28599  0.42554  0.15280  1.0000
  H   H81       1.0  0.29281  0.46276  0.12000  1.0000
  C   C86       1.0  0.32231  0.60122  0.37771  1.0000
  C   C87       1.0  0.34057  0.59953  0.42578  1.0000
  C   C88       1.0  0.33849  0.61581  0.45891  1.0000
  C   C89       1.0  0.30261  0.61979  0.36279  1.0000
  H   H82       1.0  0.35604  0.58532  0.43774  1.0000
  Fe  Fe16      1.0  0.28241  0.33218  0.26317  1.0000
  C   C90       1.0  0.38178  0.58594  0.12068  1.0000
  C   C91       1.0  0.39649  0.59497  0.08994  1.0000
  C   C92       1.0  0.41991  0.58287  0.07868  1.0000
  C   C93       1.0  0.42911  0.56182  0.09876  1.0000
  C   C94       1.0  0.41462  0.55289  0.12996  1.0000
  C   C95       1.0  0.39063  0.56477  0.14036  1.0000
  H   H83       1.0  0.38995  0.61147  0.07509  1.0000
  H   H84       1.0  0.43133  0.59006  0.05531  1.0000
  H   H85       1.0  0.42173  0.53661  0.14565  1.0000
  H   H86       1.0  0.37953  0.55777  0.16438  1.0000
  S   S34       1.0  0.20985  0.32614  0.08593  1.0000
  C   C96       1.0  0.20026  0.61558  0.06471  1.0000
  H   H87       1.0  0.18286  0.58194  0.04807  1.0000
  C   C97       1.0  0.34410  0.33500  0.03910  1.0000
  C   C98       1.0  0.43641  0.60424  0.22153  1.0000
  H   H88       1.0  0.13986  0.61640  0.08130  1.0000
  H   H89       1.0  0.28882  0.54040  0.37462  1.0000
  C   C99       1.0  0.49791  0.45550  0.01965  1.0000
  H   H90       1.0  0.35242  0.50897  0.08530  1.0000
  C   C100      1.0  0.12086  0.62532  0.05362  1.0000
  C   C101      1.0  0.37059  0.61545  0.29416  1.0000
  C   C102      1.0  0.20767  0.38821  0.08278  1.0000
  C   C103      1.0  0.31486  0.55661  0.03562  1.0000
  N   N7        1.0  0.29311  0.55938  0.43753  1.0000
  H   H91       1.0  0.42369  0.34069  0.06948  1.0000
  C   C104      1.0  0.38846  0.59588  0.30205  1.0000
  C   C105      1.0  0.18413  0.59851  0.03419  1.0000
  H   H92       1.0  0.29953  0.32695  0.44078  1.0000
  H   H93       1.0  0.11685  0.61577  0.02016  1.0000
  C   C106      1.0  0.39756  0.34016  0.11872  1.0000
  H   H94       1.0  0.09903  0.62510  0.06339  1.0000
  N   N8        1.0  0.19833  0.42317  0.13840  1.0000
  C   C107      1.0  0.21077  0.42750  0.10309  1.0000
  C   C108      1.0  0.21591  0.41007  0.07506  1.0000
  C   C109      1.0  0.19254  0.44154  0.16718  1.0000
  H   H95       1.0  0.21755  0.44443  0.09721  1.0000
  H   H96       1.0  0.35382  0.61835  0.31281  1.0000
  H   H97       1.0  0.16692  0.44510  0.15675  1.0000
  H   H98       1.0  0.20155  0.43701  0.20535  1.0000
  H   H99       1.0  0.20514  0.45712  0.16331  1.0000
  C   C110      1.0  0.19041  0.40175  0.14641  1.0000
  H   H100      1.0  0.22655  0.41347  0.04795  1.0000
  Fe  Fe17      1.0  0.46753  0.55333  0.01651  1.0000
  C   C111      1.0  0.37394  0.33668  0.03341  1.0000
  H   H101      1.0  0.21175  0.37444  0.06168  1.0000
  N   N9        1.0  0.41286  0.60773  0.24531  1.0000
  C   C112      1.0  0.36781  0.33856  0.12451  1.0000
  C   C113      1.0  0.37391  0.63108  0.26146  1.0000
  C   C114      1.0  0.20112  0.63711  0.04619  1.0000
  C   C115      1.0  0.31820  0.63410  0.44429  1.0000
  H   H102      1.0  0.49296  0.45641  0.05274  1.0000
  H   H103      1.0  0.39739  0.63902  0.21134  1.0000
  H   H104      1.0  0.35950  0.64607  0.25420  1.0000
  H   H105      1.0  0.30141  0.52478  0.42902  1.0000
  H   H106      1.0  0.40434  0.34571  0.28178  1.0000
  H   H107      1.0  0.18126  0.39826  0.17511  1.0000
  C   C116      1.0  0.30672  0.56142  0.48551  1.0000
  C   C117      1.0  0.32147  0.53727  0.06321  1.0000
  C   C118      1.0  0.40966  0.59227  0.27722  1.0000
  C   C119      1.0  0.27658  0.59493  0.48492  1.0000
  H   H108      1.0  0.43902  0.58614  0.21477  1.0000
  H   H109      1.0  0.45957  0.61105  0.24361  1.0000
  H   H110      1.0  0.41840  0.34208  0.14945  1.0000
  C   C120      1.0  0.26280  0.59272  0.43604  1.0000
  C   C121      1.0  0.36533  0.52992  0.03540  1.0000
  H   H111      1.0  0.26160  0.57371  0.37444  1.0000
  H   H112      1.0  0.31798  0.33491  0.08867  1.0000
  H   H113      1.0  0.24665  0.60542  0.41613  1.0000
  H   H114      1.0  0.35230  0.61409  0.49590  1.0000
  H   H115      1.0  0.38547  0.51966  0.03621  1.0000
  C   C122      1.0  0.33376  0.56221  0.00821  1.0000
  H   H116      1.0  0.21337  0.65047  0.06949  1.0000
  H   H117      1.0  0.16116  0.65090  0.11948  1.0000
  S   S35       1.0  0.28827  0.32457  0.34098  1.0000
  N   N10       1.0  0.37163  0.33208  0.36558  1.0000
  N   N11       1.0  0.13005  0.64850  0.04833  1.0000
  S   S36       1.0  0.49498  0.40998  0.02940  1.0000
  H   H118      1.0  0.32338  0.33299  0.00831  1.0000
  N   N12       1.0  0.35867  0.54894  0.00851  1.0000
  H   H119      1.0  0.40296  0.55167  0.99768  1.0000
  H   H120      1.0  0.49861  0.49144  0.01152  1.0000
  H   H121      1.0  0.35712  0.32971  0.42702  1.0000
  C   C123      1.0  0.50068  0.43450  0.00016  1.0000
  C   C124      1.0  0.18456  0.64182  0.99827  1.0000
  S   S37       1.0  0.38292  0.58265  0.65715  1.0000
  Fe  Fe18      1.0  0.43137  0.55774  0.91171  1.0000
  S   S38       1.0  0.38189  0.56275  0.86324  1.0000
  Fe  Fe19      1.0  0.44724  0.36154  0.88838  1.0000
  S   S39       1.0  0.43132  0.37492  0.81441  1.0000
  C   C125      1.0  0.39900  0.36012  0.77726  1.0000
  C   C126      1.0  0.37689  0.37131  0.74010  1.0000
  C   C127      1.0  0.50803  0.47436  0.95400  1.0000
  C   C128      1.0  0.46201  0.62956  0.72480  1.0000
  S   S40       1.0  0.27013  0.64642  0.68267  1.0000
  C   C129      1.0  0.38067  0.57478  0.71232  1.0000
  C   C130      1.0  0.40448  0.56165  0.74275  1.0000
  C   C131      1.0  0.40446  0.55734  0.78885  1.0000
  C   C132      1.0  0.38041  0.56586  0.80424  1.0000
  C   C133      1.0  0.35567  0.57791  0.77286  1.0000
  C   C134      1.0  0.35604  0.58266  0.72715  1.0000
  H   H122      1.0  0.42287  0.54722  0.81222  1.0000
  H   H123      1.0  0.33656  0.58403  0.78414  1.0000
  H   H124      1.0  0.33717  0.59236  0.70329  1.0000
  H   H125      1.0  0.33296  0.34796  0.87518  1.0000
  Fe  Fe20      1.0  0.49422  0.58182  0.95264  1.0000
  C   C135      1.0  0.42271  0.44322  0.93911  1.0000
  H   H126      1.0  0.41285  0.32834  0.81162  1.0000
  H   H127      1.0  0.37935  0.38910  0.73527  1.0000
  H   H128      1.0  0.50967  0.41738  0.94238  1.0000
  S   S41       1.0  0.51108  0.49901  0.92309  1.0000
  S   S42       1.0  0.44608  0.52815  0.95924  1.0000
  H   H129      1.0  0.43488  0.42781  0.95668  1.0000
  C   C136      1.0  0.34560  0.34209  0.85095  1.0000
  H   H130      1.0  0.32218  0.63166  0.77975  1.0000
  H   H131      1.0  0.48581  0.34733  0.80239  1.0000
  H   H132      1.0  0.42334  0.55533  0.73110  1.0000
  S   S43       1.0  0.14015  0.63099  0.91130  1.0000
  C   C137      1.0  0.44935  0.45900  0.81879  1.0000
  H   H133      1.0  0.49161  0.65232  0.70278  1.0000
  N   N13       1.0  0.43194  0.44870  0.89761  1.0000
  C   C138      1.0  0.35123  0.35959  0.70950  1.0000
  H   H134      1.0  0.42262  0.60602  0.87488  1.0000
  Fe  Fe21      1.0  0.36175  0.61675  0.64088  1.0000
  H   H135      1.0  0.44780  0.49347  0.83979  1.0000
  C   C139      1.0  0.49084  0.63979  0.72857  1.0000
  C   C140      1.0  0.50106  0.47536  0.99631  1.0000
  C   C141      1.0  0.43644  0.43185  0.86935  1.0000
  H   H136      1.0  0.43380  0.41449  0.87783  1.0000
  H   H137      1.0  0.39685  0.44058  0.92847  1.0000
  Fe  Fe22      1.0  0.47856  0.37811  0.98758  1.0000
  C   C142      1.0  0.38060  0.62496  0.83947  1.0000
  N   N14       1.0  0.36849  0.64408  0.81522  1.0000
  S   S44       1.0  0.43870  0.32720  0.91137  1.0000
  C   C143      1.0  0.33420  0.64722  0.79726  1.0000
  S   S45       1.0  0.31184  0.62384  0.59807  1.0000
  H   H138      1.0  0.37130  0.34261  0.87064  1.0000
  S   S46       1.0  0.44899  0.58279  0.96987  1.0000
  H   H139      1.0  0.10153  0.65036  0.97562  1.0000
  C   C144      1.0  0.29860  0.57914  0.50996  1.0000
  S   S47       1.0  0.38361  0.64207  0.60595  1.0000
  H   H140      1.0  0.33380  0.36836  0.68125  1.0000
  H   H141      1.0  0.43181  0.48398  0.90900  1.0000
  H   H142      1.0  0.42982  0.45669  0.96632  1.0000
  C   C145      1.0  0.39573  0.33711  0.78328  1.0000
  C   C146      1.0  0.41319  0.62140  0.85645  1.0000
  S   S48       1.0  0.47502  0.55850  0.89107  1.0000
  C   C147      1.0  0.50727  0.43348  0.95751  1.0000
  C   C148      1.0  0.43501  0.47061  0.88644  1.0000
  C   C149      1.0  0.16740  0.60324  0.98648  1.0000
  S   S49       1.0  0.37726  0.33483  0.97612  1.0000
  H   H143      1.0  0.43852  0.60524  0.75486  1.0000
  H   H144      1.0  0.15377  0.59014  0.96382  1.0000
  S   S50       1.0  0.31593  0.32224  0.67666  1.0000
  H   H145      1.0  0.34136  0.35392  0.82082  1.0000
  H   H146      1.0  0.45703  0.46304  0.78887  1.0000
  Fe  Fe23      1.0  0.49169  0.53074  0.94436  1.0000
  C   C150      1.0  0.44393  0.47609  0.84709  1.0000
  S   S51       1.0  0.50880  0.61692  0.93883  1.0000
  H   H147      1.0  0.44073  0.63426  0.69659  1.0000
  Fe  Fe24      1.0  0.42424  0.34441  0.96792  1.0000
  C   C151      1.0  0.16662  0.62506  0.96864  1.0000
  S   S52       1.0  0.42840  0.37860  0.94002  1.0000
  H   H148      1.0  0.44955  0.42319  0.80815  1.0000
  H   H149      1.0  0.48758  0.59538  0.82049  1.0000
  C   C152      1.0  0.46076  0.61339  0.75777  1.0000
  S   S53       1.0  0.36042  0.63925  0.69966  1.0000
  C   C153      1.0  0.44569  0.33778  0.71619  1.0000
  H   H150      1.0  0.31002  0.58092  0.54788  1.0000
  C   C154      1.0  0.34845  0.33649  0.71467  1.0000
  H   H151      1.0  0.44808  0.35569  0.72721  1.0000
  C   C155      1.0  0.44536  0.43671  0.82972  1.0000
  H   H152      1.0  0.36506  0.61219  0.84539  1.0000
  H   H153      1.0  0.30245  0.32999  0.76905  1.0000
  Fe  Fe25      1.0  0.48836  0.32997  0.96121  1.0000
  S   S54       1.0  0.49800  0.36333  0.93353  1.0000
  C   C156      1.0  0.43343  0.63775  0.84930  1.0000
  H   H154      1.0  0.42033  0.33503  0.69584  1.0000
  H   H155      1.0  0.37509  0.57234  0.96734  1.0000
  C   C157      1.0  0.48824  0.60780  0.79432  1.0000
  H   H156      1.0  0.45874  0.63524  0.86239  1.0000
  H   H157      1.0  0.22139  0.63837  0.72313  1.0000
  H   H158      1.0  0.50265  0.32227  0.87177  1.0000
  C   C158      1.0  0.37093  0.32517  0.75124  1.0000
  H   H159      1.0  0.27094  0.60930  0.50300  1.0000
  H   H160      1.0  0.46006  0.33456  0.69282  1.0000
  H   H161      1.0  0.32523  0.65180  0.82659  1.0000
  H   H162      1.0  0.32852  0.57733  0.98705  1.0000
  C   C159      1.0  0.47684  0.33030  0.79905  1.0000
  Fe  Fe26      1.0  0.31186  0.64908  0.65435  1.0000
  C   C160      1.0  0.37760  0.55447  0.97831  1.0000
  H   H163      1.0  0.37034  0.54382  0.94602  1.0000
  N   N15       1.0  0.45575  0.32290  0.75734  1.0000
  H   H164      1.0  0.32450  0.54959  0.50508  1.0000
  Fe  Fe27      1.0  0.33310  0.65076  0.56568  1.0000
  C   C161      1.0  0.12518  0.68145  0.00053  1.0000
  C   C162      1.0  0.15913  0.68179  0.08176  1.0000
  S   S55       1.0  0.31312  0.65423  0.48522  1.0000
  H   H165      1.0  0.15287  0.70998  0.03423  1.0000
  C   C163      1.0  0.14632  0.69277  0.03858  1.0000
  C   C164      1.0  0.11722  0.65921  0.00597  1.0000
  H   H166      1.0  0.17598  0.69031  0.11140  1.0000
  C   C165      1.0  0.15050  0.65954  0.08617  1.0000
  H   H167      1.0  0.08518  0.76070  0.00013  1.0000
  H   H168      1.0  0.06885  0.98632  0.01744  1.0000
  Fe  Fe28      1.0  0.09581  0.69400  0.79268  1.0000
  S   S56       1.0  0.12785  0.72368  0.81776  1.0000
  S   S57       1.0  0.05695  0.69960  0.72249  1.0000
  H   H169      1.0  0.43635  0.67009  0.81884  1.0000
  S   S58       1.0  0.16962  0.69304  0.90631  1.0000
  H   H170      1.0  0.02628  0.73711  0.83833  1.0000
  Fe  Fe29      1.0  0.12621  0.71466  0.88979  1.0000
  S   S59       1.0  0.11748  0.73666  0.94629  1.0000
  Fe  Fe30      1.0  0.16776  0.69887  0.83081  1.0000
  S   S60       1.0  0.21073  0.70734  0.80857  1.0000
  S   S61       1.0  0.09193  0.68630  0.86400  1.0000
  S   S62       1.0  0.13582  0.66972  0.80132  1.0000
  C   C166      1.0  0.04286  0.79223  0.90609  1.0000
  H   H171      1.0  0.11137  0.65962  0.63908  1.0000
  C   C167      1.0  0.05358  0.78386  0.95222  1.0000
  H   H172      1.0  0.01927  0.68653  0.78183  1.0000
  H   H173      1.0  0.19790  0.66135  0.77258  1.0000
  S   S63       1.0  0.41750  0.68429  0.71878  1.0000
  C   C168      1.0  0.21704  0.66803  0.76205  1.0000
  C   C169      1.0  0.15903  0.72306  0.70357  1.0000
  S   S64       1.0  0.32954  0.67707  0.61903  1.0000
  C   C170      1.0  0.18371  0.72063  0.68513  1.0000
  Fe  Fe31      1.0  0.13551  0.66517  0.87623  1.0000
  H   H174      1.0  0.11909  0.70728  0.71480  1.0000
  C   C171      1.0  0.45557  0.69129  0.71717  1.0000
  C   C172      1.0  0.47969  0.69584  0.75998  1.0000
  H   H175      1.0  0.20662  0.69828  0.64982  1.0000
  H   H176      1.0  0.37879  0.67548  0.78900  1.0000
  C   C173      1.0  0.16522  0.68330  0.65937  1.0000
  C   C174      1.0  0.46230  0.69259  0.67470  1.0000
  H   H177      1.0  0.47467  0.69514  0.79297  1.0000
  C   C175      1.0  0.42092  0.65735  0.82522  1.0000
  H   H178      1.0  0.44390  0.68933  0.64147  1.0000
  C   C176      1.0  0.38822  0.66033  0.80853  1.0000
  C   C177      1.0  0.08877  0.75803  0.93008  1.0000
  C   C178      1.0  0.07785  0.76633  0.88388  1.0000
  C   C179      1.0  0.05513  0.78346  0.87205  1.0000
  N   N16       1.0  0.14100  0.68585  0.67741  1.0000
  H   H179      1.0  0.08722  0.75972  0.85743  1.0000
  H   H180      1.0  0.02296  0.88594  0.84160  1.0000
  C   C180      1.0  0.51028  0.70159  0.76046  1.0000
  Fe  Fe32      1.0  0.37877  0.66569  0.66200  1.0000
  C   C181      1.0  0.22831  0.68966  0.77613  1.0000
  C   C182      1.0  0.25343  0.69795  0.76232  1.0000
  C   C183      1.0  0.26681  0.68496  0.73416  1.0000
  H   H181      1.0  0.04701  0.78988  0.83630  1.0000
  C   C184      1.0  0.23041  0.65505  0.73393  1.0000
  C   C185      1.0  0.25524  0.66342  0.71961  1.0000
  H   H182      1.0  0.26232  0.71467  0.77299  1.0000
  H   H183      1.0  0.28575  0.69172  0.72324  1.0000
  H   H184      1.0  0.15720  0.73813  0.72288  1.0000
  H   H185      1.0  0.16857  0.66751  0.64361  1.0000
  H   H186      1.0  0.49770  0.70002  0.64209  1.0000
  H   H187      1.0  0.20114  0.73383  0.68999  1.0000
  H   H188      1.0  0.09818  0.67234  0.68365  1.0000
  H   H189      1.0  0.01916  0.86304  0.87918  1.0000
  C   C186      1.0  0.18679  0.70068  0.66263  1.0000
  C   C187      1.0  0.07667  0.76693  0.96422  1.0000
  C   C188      1.0  0.13778  0.70539  0.69944  1.0000
  C   C189      1.0  0.49282  0.69867  0.67516  1.0000
  C   C190      1.0  0.11953  0.66702  0.67517  1.0000
  H   H190      1.0  0.04439  0.79057  0.97877  1.0000
  H   H191      1.0  0.01830  0.74465  0.89126  1.0000
  C   C191      1.0  0.01676  0.70352  0.71728  1.0000
  H   H192      1.0  0.11541  0.68982  0.96683  1.0000
  H   H193      1.0  0.18443  0.65866  0.98499  1.0000
  S   S65       1.0  0.01361  0.81317  0.88875  1.0000
  H   H194      1.0  0.32731  0.66058  0.76996  1.0000
  H   H195      1.0  0.13182  0.65398  0.70109  1.0000
  Fe  Fe33      1.0  0.76138  0.07658  0.15595  1.0000
  S   S66       1.0  0.79997  0.10057  0.19568  1.0000
  S   S67       1.0  0.71640  0.08523  0.09609  1.0000
  Fe  Fe34      1.0  0.79551  0.03485  0.20716  1.0000
  S   S68       1.0  0.83613  0.05623  0.24854  1.0000
  S   S69       1.0  0.80499  0.99898  0.23441  1.0000
  Fe  Fe35      1.0  0.80136  0.08046  0.26062  1.0000
  S   S70       1.0  0.81719  0.08676  0.34073  1.0000
  Fe  Fe36      1.0  0.83147  0.07415  0.18130  1.0000
  S   S71       1.0  0.87734  0.08026  0.16734  1.0000
  S   S72       1.0  0.76043  0.05821  0.22183  1.0000
  S   S73       1.0  0.79337  0.05115  0.13841  1.0000
  H   H196      1.0  0.70717  0.02001  0.26415  1.0000
  C   C192      1.0  0.69176  0.15320  0.02039  1.0000
  H   H197      1.0  0.57444  0.25605  0.02838  1.0000
  C   C193      1.0  0.89252  0.14298  0.49370  1.0000
  H   H198      1.0  0.88336  0.02793  0.05835  1.0000
  C   C194      1.0  0.86874  0.15153  0.45483  1.0000
  C   C195      1.0  0.71881  0.04590  0.31762  1.0000
  C   C196      1.0  0.77073  0.13396  0.00193  1.0000
  C   C197      1.0  0.80788  0.10510  0.38128  1.0000
  C   C198      1.0  0.82202  0.10119  0.43004  1.0000
  C   C199      1.0  0.81616  0.11538  0.46401  1.0000
  C   C200      1.0  0.79631  0.13391  0.44966  1.0000
  C   C201      1.0  0.78193  0.13774  0.40087  1.0000
  C   C202      1.0  0.78755  0.12338  0.36680  1.0000
  H   H199      1.0  0.83786  0.08715  0.44174  1.0000
  H   H200      1.0  0.73369  0.16553  0.07357  1.0000
  H   H201      1.0  0.76652  0.15202  0.38933  1.0000
  H   H202      1.0  0.77649  0.12663  0.32945  1.0000
  C   C203      1.0  0.87949  0.07924  0.10952  1.0000
  C   C204      1.0  0.85263  0.07609  0.06997  1.0000
  H   H203      1.0  0.80422  0.11696  0.06101  1.0000
  H   H204      1.0  0.84124  0.99917  0.02828  1.0000
  C   C205      1.0  0.91201  0.07922  0.05812  1.0000
  C   C206      1.0  0.90912  0.08083  0.10342  1.0000
  H   H205      1.0  0.82982  0.07449  0.07457  1.0000
  C   C207      1.0  0.76468  0.09589  0.02465  1.0000
  H   H206      1.0  0.93496  0.08064  0.05391  1.0000
  H   H207      1.0  0.92999  0.08326  0.13390  1.0000
  S   S74       1.0  0.79058  0.15344  0.49122  1.0000
  C   C208      1.0  0.72634  0.13053  0.08460  1.0000
  C   C209      1.0  0.70696  0.11182  0.06866  1.0000
  H   H208      1.0  0.82553  0.02256  0.38994  1.0000
  C   C210      1.0  0.78222  0.11568  0.03184  1.0000
  H   H209      1.0  0.74722  0.12914  0.11536  1.0000
  C   C211      1.0  0.88521  0.07632  0.01845  1.0000
  C   C212      1.0  0.75666  0.01995  0.30528  1.0000
  H   H210      1.0  0.86901  0.01370  0.23111  1.0000
  H   H211      1.0  0.82527  0.03480  0.33459  1.0000
  C   C213      1.0  0.81299  0.02285  0.35120  1.0000
  C   C214      1.0  0.63175  0.21855  0.02942  1.0000
  H   H212      1.0  0.81458  0.00582  0.33694  1.0000
  H   H213      1.0  0.83341  0.17695  0.43044  1.0000
  H   H214      1.0  0.79238  0.05576  0.39336  1.0000
  H   H215      1.0  0.76189  0.00624  0.28512  1.0000
  H   H216      1.0  0.90384  0.03635  0.14406  1.0000
  H   H217      1.0  0.58773  0.21562  0.04362  1.0000
  N   N17       1.0  0.78019  0.02993  0.34106  1.0000
  H   H218      1.0  0.89119  0.03638  0.21855  1.0000
  C   C215      1.0  0.67985  0.11396  0.02862  1.0000
  C   C216      1.0  0.74294  0.05591  0.35416  1.0000
  H   H219      1.0  0.69500  0.05244  0.30786  1.0000
  H   H220      1.0  0.73820  0.07038  0.37288  1.0000
  C   C217      1.0  0.71863  0.15113  0.06074  1.0000
  H   H221      1.0  0.68560  0.27471  0.02339  1.0000
  H   H222      1.0  0.66467  0.09958  0.01613  1.0000
  C   C218      1.0  0.61694  0.26347  0.01214  1.0000
  C   C219      1.0  0.85300  0.17107  0.46011  1.0000
  C   C220      1.0  0.60374  0.22678  0.03394  1.0000
  H   H223      1.0  0.77250  0.08189  0.04868  1.0000
  H   H224      1.0  0.78421  0.14941  0.00817  1.0000
  S   S75       1.0  0.98093  0.06025  0.01536  1.0000
  C   C221      1.0  0.67239  0.13450  0.00431  1.0000
  C   C222      1.0  0.87392  0.01913  0.08264  1.0000
  C   C223      1.0  0.85046  0.99711  0.14578  1.0000
  H   H225      1.0  0.86158  0.14258  0.42131  1.0000
  C   C224      1.0  0.88535  0.02389  0.13113  1.0000
  C   C225      1.0  0.72561  0.02770  0.29317  1.0000
  C   C226      1.0  0.77362  0.04756  0.36563  1.0000
  N   N18       1.0  0.64387  0.25511  0.00641  1.0000
  C   C227      1.0  0.88609  0.01815  0.21259  1.0000
  C   C228      1.0  0.85025  0.00305  0.06580  1.0000
  N   N19       1.0  0.87324  0.01319  0.16185  1.0000
  C   C229      1.0  0.85545  0.07489  0.02445  1.0000
  H   H226      1.0  0.90817  0.00858  0.22864  1.0000
  H   H227      1.0  0.63776  0.20093  0.03547  1.0000
  H   H228      1.0  0.90425  0.12748  0.49044  1.0000
  C   C230      1.0  0.59631  0.24941  0.02549  1.0000
  H   H229      1.0  0.67309  0.22641  0.01124  1.0000
  C   C231      1.0  0.65166  0.23305  0.01555  1.0000
  H   H230      1.0  0.61079  0.28099  0.00526  1.0000
  S   S76       1.0  0.00282  0.99756  0.01053  1.0000
  H   H231      1.0  0.83875  0.21296  0.47635  1.0000
  C   C232      1.0  0.83846  0.99188  0.09754  1.0000
  H   H232      1.0  0.84146  0.98819  0.17028  1.0000
  Fe  Fe37      1.0  0.58372  0.19020  0.84150  1.0000
  S   S77       1.0  0.60039  0.21440  0.79775  1.0000
  S   S78       1.0  0.53204  0.17998  0.81607  1.0000
  Fe  Fe38      1.0  0.64905  0.18800  0.91871  1.0000
  S   S79       1.0  0.66939  0.21295  0.87987  1.0000
  H   H233      1.0  0.91867  0.14756  0.56785  1.0000
  Fe  Fe39      1.0  0.62370  0.23165  0.86707  1.0000
  S   S80       1.0  0.61899  0.26905  0.87621  1.0000
  Fe  Fe40      1.0  0.64407  0.19305  0.81458  1.0000
  S   S81       1.0  0.66050  0.17916  0.75519  1.0000
  S   S82       1.0  0.60537  0.20824  0.91041  1.0000
  S   S83       1.0  0.62561  0.16713  0.85387  1.0000
  Fe  Fe41      1.0  0.87521  0.15767  0.65332  1.0000
  S   S84       1.0  0.85502  0.12876  0.60397  1.0000
  S   S85       1.0  0.92730  0.16421  0.66426  1.0000
  Fe  Fe42      1.0  0.81163  0.16686  0.66915  1.0000
  S   S86       1.0  0.78665  0.13904  0.62049  1.0000
  S   S87       1.0  0.79244  0.18830  0.71719  1.0000
  Fe  Fe43      1.0  0.83059  0.11946  0.65584  1.0000
  S   S88       1.0  0.82832  0.08465  0.68252  1.0000
  Fe  Fe44      1.0  0.81296  0.15046  0.57159  1.0000
  S   S89       1.0  0.85421  0.14622  0.70797  1.0000
  S   S90       1.0  0.83451  0.18044  0.61735  1.0000
  Fe  Fe45      1.0  0.96799  0.05660  0.88155  1.0000
  S   S91       1.0  0.96653  0.05892  0.80622  1.0000
  C   C233      1.0  0.86666  0.07641  0.71492  1.0000
  C   C234      1.0  0.89239  0.08800  0.70961  1.0000
  C   C235      1.0  0.92310  0.08197  0.73645  1.0000
  C   C236      1.0  0.92812  0.06498  0.77022  1.0000
  C   C237      1.0  0.90242  0.05351  0.77610  1.0000
  C   C238      1.0  0.87168  0.05888  0.74761  1.0000
  H   H234      1.0  0.88871  0.10150  0.68443  1.0000
  H   H235      1.0  0.94279  0.09081  0.73143  1.0000
  H   H236      1.0  0.90629  0.04023  0.80194  1.0000
  H   H237      1.0  0.85184  0.04967  0.75136  1.0000
  C   C239      1.0  0.69755  0.18190  0.74582  1.0000
  C   C240      1.0  0.70242  0.17036  0.70765  1.0000
  C   C241      1.0  0.73121  0.17216  0.69832  1.0000
  C   C242      1.0  0.75554  0.18560  0.72709  1.0000
  C   C243      1.0  0.75070  0.19713  0.76530  1.0000
  C   C244      1.0  0.72192  0.19525  0.77477  1.0000
  H   H238      1.0  0.68372  0.16005  0.68491  1.0000
  H   H239      1.0  0.73446  0.16332  0.66860  1.0000
  H   H240      1.0  0.76928  0.20767  0.78762  1.0000
  H   H241      1.0  0.71848  0.20435  0.80405  1.0000
  C   C245      1.0  0.52712  0.18745  0.69502  1.0000
  C   C246      1.0  0.73633  0.09443  0.98738  1.0000
  C   C247      1.0  0.56303  0.30686  0.92980  1.0000
  C   C248      1.0  0.58583  0.30019  0.90924  1.0000
  C   C249      1.0  0.58766  0.27776  0.89595  1.0000
  C   C250      1.0  0.56569  0.26231  0.90152  1.0000
  Fe  Fe46      1.0  0.00488  0.07968  0.97203  1.0000
  H   H242      1.0  0.56593  0.24525  0.88982  1.0000
  C   C251      1.0  0.54221  0.29101  0.93763  1.0000
  C   C252      1.0  0.99238  0.11933  0.81078  1.0000
  C   C253      1.0  0.98640  0.18108  0.70948  1.0000
  C   C254      1.0  0.95483  0.18060  0.70842  1.0000
  C   C255      1.0  0.94623  0.19316  0.74189  1.0000
  C   C256      1.0  0.96905  0.20610  0.77588  1.0000
  N   N20       1.0  0.74249  0.13255  0.96611  1.0000
  C   C257      1.0  0.00068  0.20643  0.77706  1.0000
  H   H243      1.0  0.92197  0.19307  0.74128  1.0000
  N   N21       1.0  0.84733  0.10730  0.81928  1.0000
  C   C258      1.0  0.84625  0.13006  0.82412  1.0000
  C   C259      1.0  0.82266  0.09614  0.78783  1.0000
  C   C260      1.0  0.81978  0.14219  0.79744  1.0000
  C   C261      1.0  0.79603  0.10776  0.76017  1.0000
  C   C262      1.0  0.79466  0.13091  0.76507  1.0000
  H   H244      1.0  0.99329  0.17151  0.68364  1.0000
  H   H245      1.0  0.86610  0.13901  0.84815  1.0000
  S   S92       1.0  0.68379  0.17948  0.99136  1.0000
  H   H246      1.0  0.81909  0.16030  0.80053  1.0000
  H   H247      1.0  0.77721  0.09893  0.73374  1.0000
  H   H248      1.0  0.77451  0.14015  0.74297  1.0000
  C   C263      1.0  0.58432  0.19671  0.68198  1.0000
  H   H249      1.0  0.96798  0.14306  0.84092  1.0000
  H   H250      1.0  0.59760  0.16377  0.70997  1.0000
  H   H251      1.0  0.60259  0.31232  0.90473  1.0000
  Fe  Fe47      1.0  0.98616  0.03028  0.97266  1.0000
  H   H252      1.0  0.52733  0.25647  0.92859  1.0000
  H   H253      1.0  0.74055  0.15169  0.90533  1.0000
  C   C264      1.0  0.72558  0.11299  0.95810  1.0000
  C   C265      1.0  0.84337  0.20193  0.50775  1.0000
  H   H254      1.0  0.54900  0.13621  0.70506  1.0000
  N   N22       1.0  0.55064  0.17179  0.70687  1.0000
  Fe  Fe48      1.0  0.93616  0.06626  0.95526  1.0000
  H   H255      1.0  0.97549  0.10608  0.80905  1.0000
  S   S93       1.0  0.95965  0.08831  0.91564  1.0000
  H   H256      1.0  0.53682  0.22706  0.79314  1.0000
  H   H257      1.0  0.82389  0.07823  0.78264  1.0000
  C   C266      1.0  0.87599  0.09506  0.84530  1.0000
  C   C267      1.0  0.54615  0.15032  0.72758  1.0000
  C   C268      1.0  0.56070  0.21295  0.67070  1.0000
  H   H258      1.0  0.88777  0.10279  0.88051  1.0000
  C   C269      1.0  0.51242  0.22198  0.77888  1.0000
  H   H259      1.0  0.65151  0.13589  0.97353  1.0000
  H   H260      1.0  0.96213  0.21584  0.80145  1.0000
  C   C270      1.0  0.88450  0.17378  0.54095  1.0000
  H   H261      1.0  0.70310  0.11190  0.92998  1.0000
  H   H262      1.0  0.00729  0.17343  0.84682  1.0000
  H   H263      1.0  0.89061  0.18216  0.57500  1.0000
  C   C271      1.0  0.66526  0.26993  0.99213  1.0000
  S   S94       1.0  0.88826  0.07463  0.96115  1.0000
  H   H264      1.0  0.87055  0.07744  0.85206  1.0000
  H   H265      1.0  0.72213  0.07932  0.98261  1.0000
  C   C272      1.0  0.57885  0.17611  0.70022  1.0000
  H   H266      1.0  0.60714  0.20022  0.67809  1.0000
  C   C273      1.0  0.54349  0.26881  0.92301  1.0000
  H   H267      1.0  0.56369  0.14872  0.76361  1.0000
  H   H268      1.0  0.56495  0.22921  0.65772  1.0000
  H   H269      1.0  0.89255  0.09489  0.82456  1.0000
  S   S95       1.0  0.93997  0.03511  0.91492  1.0000
  C   C274      1.0  0.73083  0.15187  0.93511  1.0000
  H   H270      1.0  0.70462  0.15182  0.92052  1.0000
  H   H271      1.0  0.65302  0.28536  0.97474  1.0000
  H   H272      1.0  0.82041  0.19673  0.51128  1.0000
  C   C275      1.0  0.90056  0.15419  0.53705  1.0000
  C   C276      1.0  0.53185  0.20831  0.67712  1.0000
  H   H273      1.0  0.85639  0.21195  0.53953  1.0000
  H   H274      1.0  0.82744  0.11220  0.50131  1.0000
  N   N23       1.0  0.86112  0.18201  0.50269  1.0000
  H   H275      1.0  0.52245  0.14904  0.73178  1.0000
  H   H276      1.0  0.67388  0.26146  0.96545  1.0000
  C   C277      1.0  0.98820  0.14016  0.82938  1.0000
  S   S96       1.0  0.51606  0.29759  0.96894  1.0000
  H   H277      1.0  0.99963  0.08829  0.74851  1.0000
  H   H278      1.0  0.83464  0.07258  0.99386  1.0000
  H   H279      1.0  0.51341  0.22089  0.66924  1.0000
  H   H280      1.0  0.00409  0.17996  0.94879  1.0000
  H   H281      1.0  0.96277  0.98799  0.91426  1.0000
  H   H282      1.0  0.73741  0.16786  0.95512  1.0000
  C   C278      1.0  0.00920  0.19389  0.74354  1.0000
  C   C279      1.0  0.01022  0.15713  0.83275  1.0000
  S   S97       1.0  0.51491  0.55413  0.00521  1.0000
  H   H283      1.0  0.61601  0.65066  0.00847  1.0000
  C   C280      1.0  0.54231  0.62394  0.92322  1.0000
  H   H284      1.0  0.56823  0.63580  0.78798  1.0000
  H   H285      1.0  0.53789  0.61401  0.82556  1.0000
  C   C281      1.0  0.56771  0.60930  0.93031  1.0000
  C   C282      1.0  0.59469  0.61625  0.91965  1.0000
  C   C283      1.0  0.59624  0.63772  0.90132  1.0000
  S   S98       1.0  0.63127  0.64652  0.89152  1.0000
  H   H286      1.0  0.56688  0.59282  0.94496  1.0000
  H   H287      1.0  0.61456  0.60501  0.92612  1.0000
  H   H288      1.0  0.56238  0.32401  0.94125  1.0000
  C   C284      1.0  0.54367  0.64525  0.90421  1.0000
  C   C285      1.0  0.54725  0.64605  0.76900  1.0000
  H   H289      1.0  0.54905  0.65038  0.73375  1.0000
  C   C286      1.0  0.57038  0.65204  0.89298  1.0000
  H   H290      1.0  0.66535  0.65149  0.99554  1.0000
  N   N24       1.0  0.51769  0.63417  0.76431  1.0000
  H   H291      1.0  0.51689  0.45247  0.90227  1.0000
  C   C287      1.0  0.51667  0.61844  0.79706  1.0000
  C   C288      1.0  0.51143  0.45336  0.93493  1.0000
  Fe  Fe49      1.0  0.78813  0.86969  0.16465  1.0000
  S   S99       1.0  0.82167  0.86381  0.23785  1.0000
  S   S100      1.0  0.76951  0.90367  0.13304  1.0000
  Fe  Fe50      1.0  0.78478  0.81971  0.13800  1.0000
  S   S101      1.0  0.81814  0.81023  0.20973  1.0000
  S   S102      1.0  0.77348  0.79084  0.08482  1.0000
  Fe  Fe51      1.0  0.79135  0.83405  0.24003  1.0000
  S   S103      1.0  0.77773  0.82732  0.30611  1.0000
  Fe  Fe52      1.0  0.84600  0.84034  0.20217  1.0000
  S   S104      1.0  0.89860  0.83616  0.23030  1.0000
  S   S105      1.0  0.75528  0.84150  0.16872  1.0000
  S   S106      1.0  0.81509  0.84823  0.12861  1.0000
  C   C289      1.0  0.73791  0.78178  0.17830  1.0000
  H   H292      1.0  0.73496  0.78619  0.28893  1.0000
  H   H293      1.0  0.82148  0.95422  0.26685  1.0000
  S   S107      1.0  0.98698  0.83672  0.10208  1.0000
  C   C290      1.0  0.73699  0.76428  0.01252  1.0000
  C   C291      1.0  0.79711  0.80886  0.35311  1.0000
  C   C292      1.0  0.78967  0.80979  0.39534  1.0000
  C   C293      1.0  0.80476  0.79562  0.43375  1.0000
  C   C294      1.0  0.82714  0.78007  0.43003  1.0000
  C   C295      1.0  0.83399  0.77877  0.38731  1.0000
  C   C296      1.0  0.81939  0.79326  0.34927  1.0000
  H   H294      1.0  0.77234  0.82172  0.39862  1.0000
  H   H295      1.0  0.86430  0.82735  0.44786  1.0000
  H   H296      1.0  0.85124  0.76678  0.38405  1.0000
  H   H297      1.0  0.82538  0.79232  0.31704  1.0000
  C   C297      1.0  0.92210  0.83834  0.19317  1.0000
  C   C298      1.0  0.95352  0.83151  0.21153  1.0000
  C   C299      1.0  0.97302  0.83170  0.18327  1.0000
  C   C300      1.0  0.96146  0.83876  0.13618  1.0000
  C   C301      1.0  0.93014  0.84621  0.11772  1.0000
  C   C302      1.0  0.91038  0.84594  0.14624  1.0000
  H   H298      1.0  0.96284  0.82579  0.24775  1.0000
  N   N25       1.0  0.86818  0.83888  0.38234  1.0000
  H   H299      1.0  0.92111  0.85195  0.08154  1.0000
  H   H300      1.0  0.88622  0.85151  0.13191  1.0000
  C   C303      1.0  0.79468  0.97278  0.20506  1.0000
  C   C304      1.0  0.76823  0.94980  0.13615  1.0000
  C   C305      1.0  0.77997  0.93008  0.16150  1.0000
  C   C306      1.0  0.79934  0.93186  0.20867  1.0000
  N   N26       1.0  0.86220  0.80628  0.04674  1.0000
  H   H301      1.0  0.75314  0.94858  0.09967  1.0000
  H   H302      1.0  0.80856  0.91687  0.22856  1.0000
  C   C307      1.0  0.87578  0.82529  0.42125  1.0000
  H   H303      1.0  0.68494  0.80102  0.21868  1.0000
  C   C308      1.0  0.73711  0.78249  0.04252  1.0000
  C   C309      1.0  0.70855  0.79307  0.03867  1.0000
  H   H304      1.0  0.87708  0.84710  0.31817  1.0000
  Fe  Fe53      1.0  0.97086  0.84130  0.02305  1.0000
  H   H305      1.0  0.70825  0.80729  0.06099  1.0000
  C   C310      1.0  0.84561  0.85717  0.37776  1.0000
  H   H306      1.0  0.82832  0.85313  0.39613  1.0000
  H   H307      1.0  0.88611  0.78960  0.16109  1.0000
  C   C311      1.0  0.90436  0.81888  0.35270  1.0000
  C   C312      1.0  0.74163  0.77997  0.25933  1.0000
  C   C313      1.0  0.80656  0.95309  0.23030  1.0000
  C   C314      1.0  0.88722  0.79305  0.12602  1.0000
  C   C315      1.0  0.99415  0.95191  0.00529  1.0000
  N   N27       1.0  0.72875  0.78910  0.21530  1.0000
  C   C316      1.0  0.88253  0.83609  0.34865  1.0000
  C   C317      1.0  0.91568  0.79092  0.11685  1.0000
  C   C318      1.0  0.77562  0.97107  0.15771  1.0000
  C   C319      1.0  0.89751  0.80789  0.42643  1.0000
  H   H308      1.0  0.92833  0.79103  0.39502  1.0000
  C   C320      1.0  0.91174  0.80463  0.39175  1.0000
  S   S108      1.0  0.84837  0.76271  0.47807  1.0000
  C   C321      1.0  0.86056  0.80084  0.09035  1.0000
  H   H309      1.0  0.83869  0.80291  0.09803  1.0000
  H   H310      1.0  0.75893  0.75600  0.01509  1.0000
  C   C322      1.0  0.70530  0.80697  0.20848  1.0000
  C   C323      1.0  0.76055  0.76491  0.18498  1.0000
  C   C324      1.0  0.76439  0.76311  0.26731  1.0000
  C   C325      1.0  0.77393  0.75561  0.22984  1.0000
  H   H311      1.0  0.93688  0.78583  0.14474  1.0000
  H   H312      1.0  0.71610  0.82170  0.23083  1.0000
  H   H313      1.0  0.69627  0.81271  0.17109  1.0000
  H   H314      1.0  0.79187  0.74276  0.23565  1.0000
  H   H315      1.0  0.76797  0.75939  0.15558  1.0000
  H   H316      1.0  0.72809  0.78913  0.14340  1.0000
  H   H317      1.0  0.85828  0.87289  0.39260  1.0000
  H   H318      1.0  0.91534  0.81663  0.32549  1.0000
  H   H319      1.0  0.83147  0.85992  0.34007  1.0000
  H   H320      1.0  0.00880  0.95175  0.04207  1.0000
  C   C326      1.0  0.83442  0.81554  0.01072  1.0000
  H   H321      1.0  0.77496  0.75629  0.30259  1.0000
  H   H322      1.0  0.89181  0.80972  0.00383  1.0000
  C   C327      1.0  0.91719  0.79663  0.07239  1.0000
  H   H323      1.0  0.93957  0.79603  0.06567  1.0000
  C   C328      1.0  0.68021  0.78529  0.00541  1.0000
  C   C329      1.0  0.89014  0.80455  0.03769  1.0000
  H   H324      1.0  0.90247  0.79661  0.45648  1.0000
  H   H325      1.0  0.82026  0.97917  0.08507  1.0000
  C   C330      1.0  0.66763  0.67002  0.99938  1.0000
  H   H326      1.0  0.98726  0.91596  0.00149  1.0000
  H   H327      1.0  0.79915  0.79678  0.46629  1.0000
  H   H328      1.0  0.99719  0.82610  0.19789  1.0000
  H   H329      1.0  0.81232  0.80802  0.01341  1.0000
  C   C331      1.0  0.61307  0.66839  0.00025  1.0000
  H   H330      1.0  0.83366  0.83397  0.01553  1.0000
  H   H331      1.0  0.68455  0.67424  0.03468  1.0000
  H   H332      1.0  0.76628  0.98606  0.13783  1.0000
  H   H333      1.0  0.56471  0.66843  0.99932  1.0000
  H   H334      1.0  0.65823  0.79356  0.00264  1.0000
  Fe  Fe54      1.0  0.59897  0.71172  0.78170  1.0000
  S   S109      1.0  0.63357  0.68400  0.78470  1.0000
  S   S110      1.0  0.55491  0.71097  0.71679  1.0000
  Fe  Fe55      1.0  0.63987  0.73116  0.87765  1.0000
  S   S111      1.0  0.67566  0.70400  0.88744  1.0000
  S   S112      1.0  0.64381  0.75760  0.93459  1.0000
  Fe  Fe56      1.0  0.67137  0.71034  0.81109  1.0000
  S   S113      1.0  0.71889  0.71612  0.79957  1.0000
  Fe  Fe57      1.0  0.63421  0.68066  0.85984  1.0000
  C   C332      1.0  0.68014  0.76712  0.97525  1.0000
  S   S114      1.0  0.63677  0.73860  0.80232  1.0000
  S   S115      1.0  0.59845  0.70732  0.85589  1.0000
  Fe  Fe58      1.0  0.80433  0.74005  0.61189  1.0000
  S   S116      1.0  0.80664  0.77383  0.57951  1.0000
  S   S117      1.0  0.75847  0.72420  0.61365  1.0000
  Fe  Fe59      1.0  0.87644  0.73376  0.64484  1.0000
  S   S118      1.0  0.88439  0.76723  0.61632  1.0000
  S   S119      1.0  0.91096  0.71067  0.69705  1.0000
  Fe  Fe60      1.0  0.84748  0.77985  0.64587  1.0000
  S   S120      1.0  0.85356  0.81277  0.68492  1.0000
  Fe  Fe61      1.0  0.84297  0.75854  0.55147  1.0000
  S   S121      1.0  0.84269  0.74724  0.67935  1.0000
  S   S122      1.0  0.83740  0.72387  0.57849  1.0000
  Fe  Fe62      1.0  0.91908  0.82889  0.93470  1.0000
  S   S123      1.0  0.87406  0.80966  0.90356  1.0000
  C   C333      1.0  0.85540  0.81210  0.74459  1.0000
  C   C334      1.0  0.85030  0.79228  0.76597  1.0000
  C   C335      1.0  0.85461  0.79176  0.81458  1.0000
  C   C336      1.0  0.86438  0.81106  0.84202  1.0000
  C   C337      1.0  0.86823  0.83112  0.82042  1.0000
  C   C338      1.0  0.86345  0.83166  0.77171  1.0000
  H   H335      1.0  0.84312  0.77730  0.74547  1.0000
  H   H336      1.0  0.85137  0.77626  0.83116  1.0000
  H   H337      1.0  0.87490  0.84625  0.84134  1.0000
  H   H338      1.0  0.86638  0.84723  0.75523  1.0000
  C   C339      1.0  0.72824  0.71940  0.74672  1.0000
  C   C340      1.0  0.75779  0.72846  0.74972  1.0000
  C   C341      1.0  0.76714  0.73036  0.70923  1.0000
  C   C342      1.0  0.74703  0.72316  0.66516  1.0000
  C   C343      1.0  0.71725  0.71444  0.66201  1.0000
  C   C344      1.0  0.70779  0.71266  0.70254  1.0000
  H   H339      1.0  0.77372  0.73382  0.78373  1.0000
  H   H340      1.0  0.79003  0.73718  0.71236  1.0000
  H   H341      1.0  0.70147  0.70883  0.62808  1.0000
  H   H342      1.0  0.68498  0.70563  0.69974  1.0000
  H   H343      1.0  0.90461  0.88000  0.75176  1.0000
  C   C345      1.0  0.96280  0.93172  0.93494  1.0000
  N   N28       1.0  0.81547  0.68145  0.69214  1.0000
  C   C346      1.0  0.92673  0.87092  0.76362  1.0000
  C   C347      1.0  0.94817  0.76626  0.75116  1.0000
  H   H344      1.0  0.91240  0.78999  0.75267  1.0000
  H   H345      1.0  0.96110  0.82303  0.74311  1.0000
  C   C348      1.0  0.97163  0.69729  0.74404  1.0000
  C   C349      1.0  0.95157  0.70822  0.70387  1.0000
  C   C350      1.0  0.96432  0.71710  0.67075  1.0000
  C   C351      1.0  0.92977  0.85040  0.74306  1.0000
  H   H346      1.0  0.96197  0.69032  0.76981  1.0000
  H   H347      1.0  0.94916  0.72549  0.63963  1.0000
  H   H348      1.0  0.86016  0.69407  0.73543  1.0000
  C   C352      1.0  0.96816  0.97240  0.93347  1.0000
  N   N29       1.0  0.72036  0.77804  0.73402  1.0000
  C   C353      1.0  0.74544  0.78999  0.76259  1.0000
  C   C354      1.0  0.71795  0.77368  0.68797  1.0000
  C   C355      1.0  0.76928  0.79753  0.74549  1.0000
  C   C356      1.0  0.74155  0.78075  0.66985  1.0000
  C   C357      1.0  0.76737  0.79274  0.69889  1.0000
  C   C358      1.0  0.69535  0.77076  0.75250  1.0000
  H   H349      1.0  0.74721  0.79365  0.79897  1.0000
  H   H350      1.0  0.69817  0.76412  0.66529  1.0000
  H   H351      1.0  0.78916  0.80698  0.76830  1.0000
  H   H352      1.0  0.74011  0.77653  0.63381  1.0000
  H   H353      1.0  0.78593  0.79825  0.68536  1.0000
  H   H354      1.0  0.70547  0.76512  0.78989  1.0000
  H   H355      1.0  0.67861  0.78469  0.75065  1.0000
  H   H356      1.0  0.68205  0.75618  0.73239  1.0000
  C   C359      1.0  0.95837  0.83895  0.75887  1.0000
  Fe  Fe63      1.0  0.98761  0.82816  0.93543  1.0000
  H   H357      1.0  0.84495  0.69560  0.80800  1.0000
  H   H358      1.0  0.79098  0.68366  0.80480  1.0000
  C   C360      1.0  0.94182  0.78082  0.82290  1.0000
  C   C361      1.0  0.78587  0.67476  0.69015  1.0000
  H   H359      1.0  0.82706  0.66236  0.64021  1.0000
  C   C362      1.0  0.96702  0.76742  0.84918  1.0000
  H   H360      1.0  0.76882  0.66961  0.65672  1.0000
  H   H361      1.0  0.94069  0.76520  0.71283  1.0000
  C   C363      1.0  0.95231  0.87956  0.80023  1.0000
  H   H362      1.0  0.94969  0.89551  0.81599  1.0000
  C   C364      1.0  0.97361  0.75344  0.77855  1.0000
  S   S124      1.0  0.94709  0.90678  0.90440  1.0000
  S   S125      1.0  0.96191  0.81020  0.97780  1.0000
  S   S126      1.0  0.94366  0.84451  0.88878  1.0000
  C   C365      1.0  0.98711  0.97237  0.98098  1.0000
  Fe  Fe64      1.0  0.95466  0.87302  0.94055  1.0000
  H   H363      1.0  0.98608  0.74294  0.76093  1.0000
  C   C366      1.0  0.70875  0.75669  0.97892  1.0000
  H   H364      1.0  0.94132  0.95235  0.87385  1.0000
  N   N30       1.0  0.97994  0.86785  0.81656  1.0000
  C   C367      1.0  0.99669  0.71448  0.67718  1.0000
  C   C368      1.0  0.95609  0.95215  0.91057  1.0000
  H   H365      1.0  0.52846  0.70531  0.79358  1.0000
  C   C369      1.0  0.82451  0.68014  0.64929  1.0000
  H   H366      1.0  0.84730  0.68880  0.65387  1.0000
  H   H367      1.0  0.80624  0.68823  0.61919  1.0000
  N   N31       1.0  0.98248  0.75392  0.82686  1.0000
  H   H368      1.0  0.75300  0.67049  0.72880  1.0000
  C   C370      1.0  0.82830  0.68949  0.77513  1.0000
  H   H369      1.0  0.90995  0.84338  0.71499  1.0000
  C   C371      1.0  0.79817  0.68262  0.77346  1.0000
  H   H370      1.0  0.70914  0.74276  0.95593  1.0000
  H   H371      1.0  0.55685  0.70883  0.97788  1.0000
  H   H372      1.0  0.99697  0.72170  0.85515  1.0000
  H   H373      1.0  0.57115  0.66856  0.87897  1.0000
  C   C372      1.0  0.93220  0.78002  0.77356  1.0000
  C   C373      1.0  0.60430  0.71337  0.97686  1.0000
  C   C374      1.0  0.00415  0.69521  0.75109  1.0000
  H   H374      1.0  0.67724  0.67573  0.97140  1.0000
  C   C375      1.0  0.98345  0.84809  0.79556  1.0000
  C   C376      1.0  0.77681  0.67516  0.73076  1.0000
  C   C377      1.0  0.83668  0.68869  0.73390  1.0000
  H   H375      1.0  0.65225  0.71265  0.97736  1.0000
  H   H376      1.0  0.00563  0.83910  0.80772  1.0000
  H   H377      1.0  0.92979  0.79167  0.84075  1.0000
  C   C378      1.0  0.57951  0.70097  0.98294  1.0000
  S   S127      1.0  0.92581  0.85861  0.98280  1.0000
  H   H378      1.0  0.60114  0.73096  0.96718  1.0000
  C   C379      1.0  0.63316  0.70287  0.98244  1.0000
  H   H379      1.0  0.00620  0.72086  0.65073  1.0000
  H   H380      1.0  0.97439  0.76817  0.88754  1.0000
  C   C380      1.0  0.51696  0.70319  0.71799  1.0000
  H   H381      1.0  0.54826  0.66190  0.78896  1.0000
  H   H382      1.0  0.52405  0.65666  0.89847  1.0000
  H   H383      1.0  0.99807  0.88839  0.87831  1.0000
  H   H384      1.0  0.83502  0.81205  0.97439  1.0000
  C   C381      1.0  0.58394  0.67837  0.99511  1.0000
  S   S128      1.0  0.00073  0.85797  0.98430  1.0000
  C   C382      1.0  0.00716  0.73860  0.85434  1.0000
  C   C383      1.0  0.00637  0.87680  0.85566  1.0000
  N   N32       1.0  0.63707  0.68058  0.99329  1.0000
  C   C384      1.0  0.98195  0.93162  0.98240  1.0000
