data_image0
_chemical_formula_structural       SFeHCH2CSCHCH3NC3H2FeC2H3C2H3C3NC2H4CHC2HNSHC2HCSCFeHFeHSCH2CHCS2C2HC2H2SHCH2C2SHFeCS3HCH4Fe2C2HCSCFeHCSHFeH2C3FeHSH3NHNHC3SCHSH2CHFeC2HCFeCHS2C2S2CSH2C2H4CHC3SC2FeH3C2HC5HCSCSH2CHC2HCHCHCHC2HC2HCHCHN2H3NHCHCFeHC4SH7CHS3C2FeCH2C2HSCFeHFeSFeNCSH2CSH2FeSHCHS2H2FeS2HCFeCHSC4HCSHFeH2SC5H2CHC2HCS2H2C3FeC2HCHFeHSHC2NH3CH2CHC4H3C2FeNSCHCH2CH2FeHSHCHSFeHCHS2CHCH2SHCHS3HC3FeC2H3CH4FeSHC4H2CNHNH3SH3CH2SHCH3CH3C2HCFeHSH2CFeC3FeC4HNC2H2NC2SHC2HC3SCSCHC3HCSH3CHSHCNCNH2CH2SFeC2HC3SCSHCHSCHNC4H2C2HCSH2SFeC2H2CSFeCSCS2FeHCHC2S2HCFeHSH2CHSH2C2H2CHC2HFeCH2C2SH2CHCSHFeNH2CSHC3HFeC3HCSC4H3C3H3CHCH2C2SHNCH2CSFeCH2CH3C2H3NHSH2FeHCS4FeHC2H2C3FeC2H3FeCHSCSH2C2H2SHC3HFeHSCHCHC2H2SCSCHS2HFeHCHFeC2H2NH2C2S2H2CHCHC2NSC2HNH2SH2SHCH2SFeCH3C2H2C2FeCSCHS2HC2HCHC5H2FeH2C2NSC4HC2H3CH4FeC2FeHCHS2HCHCHCNFeSHFeHS2C3H2SHCHCHCHCS2C2H2C3HC3NSC2FeC2HCSCHCFeS2CHCSFeSCHCFeHFeC2HSC2FeHCH2SCS2H3C2Fe2HCHC3H4FeH2FeCH2CHCHCS2H2CNC5H2SC2H2NSH2NCHC2SCH2C3HNCFeHCHCH4SCH2SHCHFeHSHCHCHSHC2SCH2CH2C2H2CSCHSCFeHFe2C2H2C2H3NH2SCH4C4SHC2H3C2SNH3CNC2HC5H3SC2SC3H2SC2H4CFeSHC3SHCHS2CSH2CFe2HNSFeCHCH2CFeCHCHCSC4H3C4H2SH2C3HC3H4C3FeCSCHC4H3C3HCHCH2NHNHCHFeSC2H2S3HSFeC2SCH2C3HC2H6SHC2H2SHC2HNSC2H4C3FeCFeC2HCH2CH2C2H2CHNHCHNCSHC
_chemical_formula_sum              "S160 Fe80 H480 C480 N40"
_cell_length_a       22.6408
_cell_length_b       48.032
_cell_length_c       19.6867
_cell_angle_alpha    84.0785
_cell_angle_beta     109.731
_cell_angle_gamma    89.5499

_space_group_name_H-M_alt    "P 1"
_space_group_IT_number       1

loop_
  _space_group_symop_operation_xyz
  'x, y, z'

loop_
  _atom_site_type_symbol
  _atom_site_label
  _atom_site_symmetry_multiplicity
  _atom_site_fract_x
  _atom_site_fract_y
  _atom_site_fract_z
  _atom_site_occupancy
  S   S1        1.0  0.10504  0.11627  0.07560  1.0000
  Fe  Fe1       1.0  0.22574  0.28656  0.00631  1.0000
  H   H1        1.0  0.79120  0.23191  0.99756  1.0000
  C   C1        1.0  0.41121  0.13064  0.99646  1.0000
  H   H2        1.0  0.30693  0.05261  0.98964  1.0000
  H   H3        1.0  0.36644  0.09533  0.03114  1.0000
  C   C2        1.0  0.16570  0.13425  0.05679  1.0000
  S   S2        1.0  0.37192  0.05172  0.14586  1.0000
  C   C3        1.0  0.59901  0.20804  0.06426  1.0000
  H   H4        1.0  0.75539  0.25363  0.18442  1.0000
  C   C4        1.0  0.60008  0.16614  0.14444  1.0000
  H   H5        1.0  0.98386  0.27905  0.98005  1.0000
  H   H6        1.0  0.12954  0.27446  0.09291  1.0000
  H   H7        1.0  0.01860  0.14991  0.14360  1.0000
  N   N1        1.0  0.46427  0.14036  0.98563  1.0000
  C   C5        1.0  0.22762  0.12827  0.10255  1.0000
  C   C6        1.0  0.51560  0.12266  0.99912  1.0000
  C   C7        1.0  0.99058  0.15880  0.08896  1.0000
  H   H8        1.0  0.10686  0.17430  0.12845  1.0000
  H   H9        1.0  0.47172  0.18225  0.01020  1.0000
  Fe  Fe2       1.0  0.27616  0.23123  0.98255  1.0000
  C   C8        1.0  0.27625  0.14388  0.09172  1.0000
  C   C9        1.0  0.68555  0.27309  0.02795  1.0000
  H   H10       1.0  0.55825  0.13033  0.99184  1.0000
  H   H11       1.0  0.06722  0.20768  0.12327  1.0000
  H   H12       1.0  0.32383  0.13925  0.12801  1.0000
  C   C10       1.0  0.91931  0.18095  0.94900  1.0000
  C   C11       1.0  0.55534  0.21012  0.16009  1.0000
  H   H13       1.0  0.70747  0.23003  0.96668  1.0000
  H   H14       1.0  0.23786  0.11163  0.14672  1.0000
  H   H15       1.0  0.19034  0.18888  0.94628  1.0000
  C   C12       1.0  0.07410  0.19108  0.09108  1.0000
  C   C13       1.0  0.67935  0.29879  0.05294  1.0000
  C   C14       1.0  0.61548  0.17960  0.08674  1.0000
  N   N2        1.0  0.74356  0.26201  0.03547  1.0000
  C   C15       1.0  0.05053  0.29708  0.10213  1.0000
  C   C16       1.0  0.74911  0.23406  0.01392  1.0000
  H   H16       1.0  0.45948  0.06268  0.05688  1.0000
  H   H17       1.0  0.37060  0.14466  0.98582  1.0000
  H   H18       1.0  0.04196  0.06893  0.16547  1.0000
  H   H19       1.0  0.09689  0.19990  0.05219  1.0000
  C   C17       1.0  0.51449  0.09441  0.02418  1.0000
  H   H20       1.0  0.10462  0.16014  0.96296  1.0000
  C   C18       1.0  0.93168  0.14828  0.05500  1.0000
  C   C19       1.0  0.89594  0.15945  0.98456  1.0000
  H   H21       1.0  0.63881  0.16789  0.05819  1.0000
  N   N3        1.0  0.01343  0.17966  0.05335  1.0000
  S   S3        1.0  0.32200  0.18929  0.03346  1.0000
  H   H22       1.0  0.84273  0.26706  0.07518  1.0000
  C   C20       1.0  0.20084  0.17197  0.98985  1.0000
  C   C21       1.0  0.24698  0.20311  0.18091  1.0000
  H   H23       1.0  0.55580  0.08067  0.03563  1.0000
  C   C22       1.0  0.10990  0.29477  0.09491  1.0000
  S   S4        1.0  0.94799  0.08504  0.97440  1.0000
  C   C23       1.0  0.56930  0.22343  0.10106  1.0000
  Fe  Fe3       1.0  0.53817  0.28305  0.15886  1.0000
  H   H24       1.0  0.02467  0.27850  0.10616  1.0000
  Fe  Fe4       1.0  0.04018  0.10139  0.97486  1.0000
  H   H25       1.0  0.72868  0.06755  0.94010  1.0000
  S   S5        1.0  0.18595  0.24405  0.99629  1.0000
  C   C24       1.0  0.97846  0.19095  0.98453  1.0000
  H   H26       1.0  0.60910  0.21792  0.01797  1.0000
  H   H27       1.0  0.64358  0.26209  0.00237  1.0000
  C   C25       1.0  0.40838  0.10256  0.02132  1.0000
  H   H28       1.0  0.85025  0.15142  0.95740  1.0000
  C   C26       1.0  0.26272  0.16646  0.03722  1.0000
  S   S6        1.0  0.31995  0.27259  0.00493  1.0000
  S   S7        1.0  0.55033  0.25920  0.07262  1.0000
  C   C27       1.0  0.46663  0.17024  0.96333  1.0000
  C   C28       1.0  0.15242  0.15556  0.99889  1.0000
  H   H29       1.0  0.75300  0.21794  0.06006  1.0000
  C   C29       1.0  0.79642  0.27599  0.06770  1.0000
  C   C30       1.0  0.46056  0.08437  0.03573  1.0000
  H   H30       1.0  0.50648  0.17468  0.94343  1.0000
  H   H31       1.0  0.91407  0.13147  0.08296  1.0000
  S   S8        1.0  0.61976  0.13043  0.17047  1.0000
  H   H32       1.0  0.21925  0.18469  0.17219  1.0000
  C   C31       1.0  0.56976  0.18134  0.18110  1.0000
  H   H33       1.0  0.17180  0.23049  0.18271  1.0000
  H   H34       1.0  0.99624  0.20775  0.95679  1.0000
  C   C32       1.0  0.41384  0.22086  0.21284  1.0000
  C   C33       1.0  0.77604  0.26155  0.23626  1.0000
  S   S9        1.0  0.88690  0.23944  0.23560  1.0000
  H   H35       1.0  0.34878  0.26757  0.21149  1.0000
  Fe  Fe5       1.0  0.12006  0.25909  0.35302  1.0000
  C   C34       1.0  0.25055  0.29096  0.34883  1.0000
  S   S10       1.0  0.57625  0.26816  0.27719  1.0000
  S   S11       1.0  0.06829  0.23679  0.25689  1.0000
  S   S12       1.0  0.54532  0.06559  0.24230  1.0000
  H   H36       1.0  0.22479  0.12206  0.26438  1.0000
  C   C35       1.0  0.34543  0.26110  0.39740  1.0000
  H   H37       1.0  0.68933  0.28107  0.23269  1.0000
  H   H38       1.0  0.84825  0.28869  0.42448  1.0000
  H   H39       1.0  0.23739  0.27207  0.20197  1.0000
  H   H40       1.0  0.23916  0.19912  0.36063  1.0000
  Fe  Fe6       1.0  0.10678  0.19795  0.33337  1.0000
  Fe  Fe7       1.0  0.49163  0.29071  0.28354  1.0000
  C   C36       1.0  0.70151  0.21069  0.35021  1.0000
  C   C37       1.0  0.86556  0.26561  0.34403  1.0000
  H   H41       1.0  0.93805  0.29922  0.23812  1.0000
  C   C38       1.0  0.32050  0.24934  0.20339  1.0000
  S   S13       1.0  0.17210  0.29804  0.34067  1.0000
  C   C39       1.0  0.22412  0.16045  0.31208  1.0000
  Fe  Fe8       1.0  0.47222  0.12483  0.31036  1.0000
  H   H42       1.0  0.31527  0.08044  0.23086  1.0000
  C   C40       1.0  0.35422  0.15901  0.33924  1.0000
  S   S14       1.0  0.44922  0.26795  0.35954  1.0000
  H   H43       1.0  0.85072  0.19797  0.36067  1.0000
  Fe  Fe9       1.0  0.55390  0.07174  0.35659  1.0000
  H   H44       1.0  0.44001  0.21725  0.27226  1.0000
  H   H45       1.0  0.70118  0.20557  0.21679  1.0000
  C   C41       1.0  0.31786  0.13783  0.30459  1.0000
  C   C42       1.0  0.32568  0.18071  0.36086  1.0000
  C   C43       1.0  0.82796  0.28113  0.37187  1.0000
  Fe  Fe10      1.0  0.98975  0.23502  0.30259  1.0000
  H   H46       1.0  0.65361  0.20930  0.31395  1.0000
  S   S15       1.0  0.16353  0.22019  0.42728  1.0000
  H   H47       1.0  0.72342  0.17039  0.26177  1.0000
  H   H48       1.0  0.33968  0.12131  0.28684  1.0000
  H   H49       1.0  0.91406  0.26082  0.37612  1.0000
  N   N4        1.0  0.75098  0.20278  0.33033  1.0000
  H   H50       1.0  0.37059  0.24251  0.43078  1.0000
  N   N5        1.0  0.34652  0.22393  0.20037  1.0000
  H   H51       1.0  0.67280  0.22772  0.43230  1.0000
  C   C44       1.0  0.28356  0.26723  0.39255  1.0000
  C   C45       1.0  0.30713  0.05842  0.23817  1.0000
  C   C46       1.0  0.71197  0.22105  0.41703  1.0000
  S   S16       1.0  0.57651  0.11692  0.34707  1.0000
  C   C47       1.0  0.84012  0.25664  0.27502  1.0000
  H   H52       1.0  0.78099  0.19301  0.24290  1.0000
  S   S17       1.0  0.45123  0.08005  0.33104  1.0000
  H   H53       1.0  0.66894  0.05466  0.35162  1.0000
  H   H54       1.0  0.26107  0.06302  0.31585  1.0000
  C   C48       1.0  0.73871  0.19233  0.25967  1.0000
  H   H55       1.0  0.35379  0.19724  0.38694  1.0000
  Fe  Fe11      1.0  0.55875  0.11179  0.23027  1.0000
  C   C49       1.0  0.81139  0.20402  0.37659  1.0000
  C   C50       1.0  0.25289  0.13843  0.29146  1.0000
  H   H56       1.0  0.26179  0.25359  0.42309  1.0000
  C   C51       1.0  0.37442  0.27846  0.35781  1.0000
  Fe  Fe12      1.0  0.44407  0.07798  0.21540  1.0000
  C   C52       1.0  0.25739  0.25203  0.19757  1.0000
  H   H57       1.0  0.55786  0.17099  0.22593  1.0000
  S   S18       1.0  0.02359  0.19402  0.37036  1.0000
  S   S19       1.0  0.14255  0.16136  0.29376  1.0000
  C   C53       1.0  0.73843  0.27697  0.26395  1.0000
  C   C54       1.0  0.76470  0.28737  0.33095  1.0000
  S   S20       1.0  0.43456  0.15978  0.35218  1.0000
  S   S21       1.0  0.03769  0.26139  0.39089  1.0000
  C   C55       1.0  0.26071  0.18160  0.34665  1.0000
  S   S22       1.0  0.45609  0.12384  0.19220  1.0000
  H   H58       1.0  0.53229  0.22184  0.18856  1.0000
  H   H59       1.0  0.33211  0.18074  0.18993  1.0000
  C   C56       1.0  0.31083  0.20096  0.19018  1.0000
  C   C57       1.0  0.22052  0.22871  0.18645  1.0000
  H   H60       1.0  0.43050  0.23986  0.18922  1.0000
  H   H61       1.0  0.42441  0.20284  0.18687  1.0000
  H   H62       1.0  0.31062  0.05384  0.45703  1.0000
  H   H63       1.0  0.60623  0.05747  0.60065  1.0000
  C   C58       1.0  0.63326  0.13625  0.57186  1.0000
  H   H64       1.0  0.57442  0.27243  0.44689  1.0000
  C   C59       1.0  0.59496  0.28967  0.47675  1.0000
  C   C60       1.0  0.01204  0.15723  0.66299  1.0000
  C   C61       1.0  0.82352  0.21433  0.44375  1.0000
  S   S23       1.0  0.44672  0.16390  0.56199  1.0000
  C   C62       1.0  0.28903  0.20695  0.61485  1.0000
  C   C63       1.0  0.34375  0.20981  0.59718  1.0000
  Fe  Fe13      1.0  0.07642  0.22034  0.45630  1.0000
  H   H65       1.0  0.93683  0.13429  0.59644  1.0000
  H   H66       1.0  0.40565  0.11636  0.46557  1.0000
  H   H67       1.0  0.32027  0.14079  0.48284  1.0000
  C   C64       1.0  0.67545  0.11887  0.62940  1.0000
  C   C65       1.0  0.52276  0.19743  0.51122  1.0000
  H   H68       1.0  0.78200  0.23145  0.51525  1.0000
  C   C66       1.0  0.57016  0.09664  0.53619  1.0000
  C   C67       1.0  0.40072  0.21273  0.65204  1.0000
  C   C68       1.0  0.22895  0.12394  0.46209  1.0000
  C   C69       1.0  0.38901  0.09576  0.48155  1.0000
  C   C70       1.0  0.19380  0.10016  0.44784  1.0000
  H   H69       1.0  0.77987  0.29723  0.57532  1.0000
  C   C71       1.0  0.61379  0.07970  0.59359  1.0000
  S   S24       1.0  0.68890  0.23281  0.59822  1.0000
  C   C72       1.0  0.97463  0.23739  0.59558  1.0000
  S   S25       1.0  0.07131  0.21173  0.56780  1.0000
  H   H70       1.0  0.68840  0.27874  0.48173  1.0000
  H   H71       1.0  0.89508  0.25816  0.60903  1.0000
  C   C73       1.0  0.29321  0.12216  0.47272  1.0000
  H   H72       1.0  0.20624  0.14383  0.46262  1.0000
  C   C74       1.0  0.95052  0.14823  0.63855  1.0000
  C   C75       1.0  0.55976  0.18317  0.64066  1.0000
  H   H73       1.0  0.64165  0.15826  0.56353  1.0000
  C   C76       1.0  0.93751  0.26087  0.59586  1.0000
  H   H74       1.0  0.40011  0.08030  0.44900  1.0000
  C   C77       1.0  0.57754  0.21198  0.51839  1.0000
  H   H75       1.0  0.87153  0.21632  0.47894  1.0000
  C   C78       1.0  0.02919  0.24090  0.57786  1.0000
  H   H76       1.0  0.20278  0.18896  0.67021  1.0000
  C   C79       1.0  0.57976  0.12515  0.52571  1.0000
  C   C80       1.0  0.51421  0.18278  0.57216  1.0000
  H   H77       1.0  0.24496  0.20435  0.57241  1.0000
  C   C81       1.0  0.77339  0.22302  0.46380  1.0000
  C   C82       1.0  0.04709  0.26788  0.56163  1.0000
  H   H78       1.0  0.58351  0.22315  0.47090  1.0000
  C   C83       1.0  0.62274  0.21275  0.58706  1.0000
  H   H79       1.0  0.04504  0.15059  0.63807  1.0000
  C   C84       1.0  0.01041  0.29137  0.56269  1.0000
  H   H80       1.0  0.54587  0.13863  0.48187  1.0000
  N   N6        1.0  0.32150  0.09738  0.46907  1.0000
  N   N7        1.0  0.29102  0.20708  0.68503  1.0000
  H   H81       1.0  0.08891  0.27057  0.54731  1.0000
  H   H82       1.0  0.52971  0.08758  0.49946  1.0000
  H   H83       1.0  0.34251  0.20923  0.54167  1.0000
  N   N8        1.0  0.66559  0.09091  0.63936  1.0000
  H   H84       1.0  0.48696  0.19761  0.45830  1.0000
  C   C85       1.0  0.22343  0.07481  0.44605  1.0000
  H   H85       1.0  0.96014  0.21660  0.60709  1.0000
  C   C86       1.0  0.28780  0.07376  0.45741  1.0000
  Fe  Fe14      1.0  0.44910  0.13736  0.66295  1.0000
  H   H86       1.0  0.86018  0.14948  0.65307  1.0000
  C   C87       1.0  0.90770  0.15671  0.67022  1.0000
  C   C88       1.0  0.61354  0.19847  0.64812  1.0000
  C   C89       1.0  0.95555  0.28786  0.57961  1.0000
  C   C90       1.0  0.65949  0.29330  0.49685  1.0000
  S   S26       1.0  0.35381  0.12308  0.65444  1.0000
  H   H87       1.0  0.14590  0.10218  0.65655  1.0000
  H   H88       1.0  0.44377  0.21458  0.63945  1.0000
  H   H89       1.0  0.41483  0.08933  0.53988  1.0000
  H   H90       1.0  0.71606  0.12792  0.66602  1.0000
  H   H91       1.0  0.71632  0.05205  0.68562  1.0000
  H   H92       1.0  0.14369  0.10145  0.43786  1.0000
  H   H93       1.0  0.19706  0.05600  0.43584  1.0000
  C   C91       1.0  0.24886  0.05378  0.87695  1.0000
  H   H94       1.0  0.44689  0.21383  0.76649  1.0000
  S   S27       1.0  0.74383  0.29314  0.72791  1.0000
  S   S28       1.0  0.49485  0.09433  0.69075  1.0000
  S   S29       1.0  0.42015  0.08391  0.80901  1.0000
  C   C92       1.0  0.24696  0.13194  0.79774  1.0000
  C   C93       1.0  0.01969  0.26373  0.90231  1.0000
  Fe  Fe15      1.0  0.38226  0.12816  0.77234  1.0000
  C   C94       1.0  0.91125  0.26236  0.89557  1.0000
  H   H95       1.0  0.00426  0.19486  0.79413  1.0000
  H   H96       1.0  0.13014  0.11367  0.86358  1.0000
  C   C95       1.0  0.70898  0.07305  0.70127  1.0000
  C   C96       1.0  0.92667  0.17418  0.72529  1.0000
  H   H97       1.0  0.69538  0.15386  0.76756  1.0000
  S   S30       1.0  0.56975  0.23152  0.86322  1.0000
  C   C97       1.0  0.00456  0.25189  0.83703  1.0000
  Fe  Fe16      1.0  0.15508  0.25717  0.87647  1.0000
  H   H98       1.0  0.24178  0.19797  0.75973  1.0000
  Fe  Fe17      1.0  0.02081  0.08844  0.82208  1.0000
  S   S31       1.0  0.00149  0.12698  0.86712  1.0000
  Fe  Fe18      1.0  0.63052  0.25312  0.80831  1.0000
  N   N9        1.0  0.03085  0.17350  0.71892  1.0000
  C   C98       1.0  0.39320  0.28517  0.82632  1.0000
  S   S32       1.0  0.85308  0.27212  0.92883  1.0000
  H   H99       1.0  0.93037  0.23695  0.74905  1.0000
  H   H100      1.0  0.27615  0.06906  0.85742  1.0000
  C   C99       1.0  0.34668  0.21016  0.73910  1.0000
  S   S33       1.0  0.24199  0.24084  0.86186  1.0000
  H   H101      1.0  0.89162  0.18980  0.89430  1.0000
  H   H102      1.0  0.68967  0.07063  0.74643  1.0000
  Fe  Fe19      1.0  0.76157  0.27205  0.84037  1.0000
  S   S34       1.0  0.82429  0.13492  0.80925  1.0000
  H   H103      1.0  0.75590  0.08220  0.72161  1.0000
  C   C100      1.0  0.13113  0.10659  0.75744  1.0000
  H   H104      1.0  0.64831  0.19883  0.70120  1.0000
  S   S35       1.0  0.67688  0.29108  0.85402  1.0000
  S   S36       1.0  0.71812  0.23204  0.80645  1.0000
  H   H105      1.0  0.47628  0.22761  0.93064  1.0000
  H   H106      1.0  0.12709  0.16979  0.72677  1.0000
  Fe  Fe20      1.0  0.91115  0.10718  0.86104  1.0000
  S   S37       1.0  0.06258  0.24649  0.79949  1.0000
  S   S38       1.0  0.05987  0.09001  0.73200  1.0000
  H   H107      1.0  0.60617  0.13408  0.79895  1.0000
  C   C101      1.0  0.40240  0.21261  0.72346  1.0000
  Fe  Fe21      1.0  0.40103  0.08059  0.69098  1.0000
  C   C102      1.0  0.89579  0.25036  0.83033  1.0000
  H   H108      1.0  0.23232  0.13641  0.89866  1.0000
  S   S39       1.0  0.31975  0.14732  0.82333  1.0000
  C   C103      1.0  0.16455  0.10971  0.70932  1.0000
  C   C104      1.0  0.15539  0.11627  0.82573  1.0000
  C   C105      1.0  0.65219  0.12376  0.82267  1.0000
  C   C106      1.0  0.40866  0.26147  0.87747  1.0000
  H   H109      1.0  0.37894  0.25555  0.90878  1.0000
  C   C107      1.0  0.77153  0.09713  0.88297  1.0000
  S   S40       1.0  0.59861  0.08536  0.89351  1.0000
  H   H110      1.0  0.42258  0.17783  0.91884  1.0000
  Fe  Fe22      1.0  0.27717  0.28351  0.88425  1.0000
  H   H111      1.0  0.55340  0.17192  0.68799  1.0000
  H   H112      1.0  0.81696  0.08630  0.90491  1.0000
  S   S41       1.0  0.06946  0.06474  0.93064  1.0000
  C   C108      1.0  0.66170  0.09963  0.87204  1.0000
  C   C109      1.0  0.50330  0.25292  0.85041  1.0000
  C   C110      1.0  0.72145  0.08640  0.90252  1.0000
  C   C111      1.0  0.22252  0.12226  0.72962  1.0000
  C   C112      1.0  0.23253  0.20484  0.70125  1.0000
  H   H113      1.0  0.89386  0.18068  0.75070  1.0000
  H   H114      1.0  0.09696  0.20477  0.72448  1.0000
  C   C113      1.0  0.09557  0.18249  0.74526  1.0000
  H   H115      1.0  0.84773  0.24572  0.80164  1.0000
  C   C114      1.0  0.43230  0.29258  0.78623  1.0000
  C   C115      1.0  0.98897  0.18223  0.74947  1.0000
  H   H116      1.0  0.51798  0.28244  0.76813  1.0000
  C   C116      1.0  0.46377  0.24548  0.88972  1.0000
  S   S42       1.0  0.92752  0.07025  0.80807  1.0000
  S   S43       1.0  0.47423  0.14657  0.77876  1.0000
  H   H117      1.0  0.34846  0.21017  0.79490  1.0000
  H   H118      1.0  0.11425  0.18031  0.80560  1.0000
  C   C117      1.0  0.48768  0.27653  0.79868  1.0000
  C   C118      1.0  0.94259  0.24519  0.80089  1.0000
  C   C119      1.0  0.76224  0.12153  0.83460  1.0000
  Fe  Fe23      1.0  0.51026  0.10168  0.80584  1.0000
  C   C120      1.0  0.70268  0.13494  0.80482  1.0000
  C   C121      1.0  0.21320  0.12915  0.84564  1.0000
  H   H119      1.0  0.06663  0.27021  0.92873  1.0000
  C   C122      1.0  0.97300  0.26879  0.93157  1.0000
  H   H120      1.0  0.24766  0.12474  0.69194  1.0000
  Fe  Fe24      1.0  0.69162  0.25461  0.69412  1.0000
  H   H121      1.0  0.20588  0.22538  0.68656  1.0000
  S   S44       1.0  0.59938  0.27235  0.69280  1.0000
  H   H122      1.0  0.77190  0.53155  0.03277  1.0000
  C   C123      1.0  0.86716  0.49805  0.96276  1.0000
  C   C124      1.0  0.35834  0.44229  0.15876  1.0000
  N   N10       1.0  0.92769  0.52035  0.06646  1.0000
  H   H123      1.0  0.99097  0.44741  0.94414  1.0000
  H   H124      1.0  0.95867  0.35506  0.96289  1.0000
  H   H125      1.0  0.62908  0.40596  0.11522  1.0000
  C   C125      1.0  0.41863  0.40046  0.15750  1.0000
  H   H126      1.0  0.48083  0.51942  0.13167  1.0000
  H   H127      1.0  0.14792  0.44115  0.04769  1.0000
  C   C126      1.0  0.26974  0.37943  0.12985  1.0000
  H   H128      1.0  0.46031  0.30348  0.98056  1.0000
  C   C127      1.0  0.27554  0.37383  0.00937  1.0000
  C   C128      1.0  0.14375  0.31875  0.09105  1.0000
  C   C129      1.0  0.38651  0.42578  0.12231  1.0000
  C   C130      1.0  0.70034  0.46737  0.18318  1.0000
  H   H129      1.0  0.77052  0.44728  0.15149  1.0000
  H   H130      1.0  0.46837  0.33604  0.02128  1.0000
  H   H131      1.0  0.30367  0.36198  0.15327  1.0000
  C   C131      1.0  0.02347  0.32346  0.10117  1.0000
  C   C132      1.0  0.87361  0.53017  0.07412  1.0000
  Fe  Fe25      1.0  0.91611  0.37142  0.09471  1.0000
  N   N11       1.0  0.24977  0.38776  0.05676  1.0000
  S   S45       1.0  0.45536  0.38019  0.11308  1.0000
  C   C133      1.0  0.81177  0.50777  0.97042  1.0000
  H   H132      1.0  0.96786  0.49646  0.00571  1.0000
  C   C134      1.0  0.81483  0.52406  0.02620  1.0000
  H   H133      1.0  0.02848  0.51728  0.10655  1.0000
  H   H134      1.0  0.14319  0.36360  0.08992  1.0000
  C   C135      1.0  0.44589  0.32615  0.97082  1.0000
  H   H135      1.0  0.40104  0.50919  0.10488  1.0000
  H   H136      1.0  0.67743  0.47870  0.13003  1.0000
  Fe  Fe26      1.0  0.83055  0.42163  0.01592  1.0000
  H   H137      1.0  0.19075  0.41617  0.96929  1.0000
  S   S46       1.0  0.94565  0.32652  0.09909  1.0000
  H   H138      1.0  0.30681  0.38805  0.99084  1.0000
  C   C136      1.0  0.20674  0.40968  0.02727  1.0000
  H   H139      1.0  0.46330  0.48566  0.16719  1.0000
  S   S47       1.0  0.05189  0.45219  0.10996  1.0000
  Fe  Fe27      1.0  0.96537  0.42936  0.10364  1.0000
  H   H140      1.0  0.99227  0.51893  0.17408  1.0000
  C   C137      1.0  0.24619  0.39309  0.17537  1.0000
  H   H141      1.0  0.16631  0.47919  0.17448  1.0000
  S   S48       1.0  0.92101  0.40521  0.00971  1.0000
  S   S49       1.0  0.87553  0.44904  0.10327  1.0000
  C   C138      1.0  0.73289  0.31329  0.08529  1.0000
  H   H142      1.0  0.38326  0.43257  0.06697  1.0000
  C   C139      1.0  0.98841  0.52704  0.11769  1.0000
  H   H143      1.0  0.72892  0.33313  0.10546  1.0000
  H   H144      1.0  0.33283  0.46166  0.13130  1.0000
  S   S50       1.0  0.82031  0.38524  0.09179  1.0000
  H   H145      1.0  0.30336  0.35429  0.03797  1.0000
  C   C140      1.0  0.92509  0.50455  0.01155  1.0000
  H   H146      1.0  0.39413  0.32726  0.95778  1.0000
  S   S51       1.0  0.71379  0.54582  0.15299  1.0000
  S   S52       1.0  0.58768  0.32327  0.16916  1.0000
  S   S53       1.0  0.21881  0.31634  0.08403  1.0000
  H   H147      1.0  0.03732  0.36786  0.09798  1.0000
  C   C141      1.0  0.05754  0.34740  0.09808  1.0000
  C   C142      1.0  0.11775  0.34499  0.09361  1.0000
  C   C143      1.0  0.18243  0.42389  0.07126  1.0000
  Fe  Fe28      1.0  0.87303  0.41132  0.17889  1.0000
  C   C144      1.0  0.44616  0.50792  0.15105  1.0000
  C   C145      1.0  0.20255  0.41554  0.14582  1.0000
  H   H148      1.0  0.99346  0.55008  0.11428  1.0000
  H   H149      1.0  0.55403  0.42705  0.16378  1.0000
  H   H150      1.0  0.87579  0.54259  0.11795  1.0000
  C   C146      1.0  0.63438  0.40117  0.17205  1.0000
  H   H151      1.0  0.18438  0.42642  0.18071  1.0000
  H   H152      1.0  0.63333  0.30704  0.04827  1.0000
  H   H153      1.0  0.83380  0.31267  0.11871  1.0000
  H   H154      1.0  0.23666  0.36784  0.96172  1.0000
  Fe  Fe29      1.0  0.50095  0.34057  0.18293  1.0000
  S   S54       1.0  0.44812  0.30125  0.16278  1.0000
  H   H155      1.0  0.90012  0.32951  0.94365  1.0000
  C   C147      1.0  0.79179  0.30188  0.09261  1.0000
  C   C148      1.0  0.67614  0.46978  0.23900  1.0000
  C   C149      1.0  0.01255  0.32678  0.28374  1.0000
  C   C150      1.0  0.93186  0.35001  0.34377  1.0000
  H   H156      1.0  0.73194  0.36612  0.32914  1.0000
  H   H157      1.0  0.69127  0.51665  0.41562  1.0000
  C   C151      1.0  0.75946  0.43791  0.32030  1.0000
  N   N12       1.0  0.89097  0.49632  0.40921  1.0000
  H   H158      1.0  0.00588  0.45257  0.23010  1.0000
  N   N13       1.0  0.43823  0.51974  0.21328  1.0000
  H   H159      1.0  0.52912  0.53664  0.24673  1.0000
  H   H160      1.0  0.12611  0.35266  0.38653  1.0000
  H   H161      1.0  0.90048  0.35942  0.36711  1.0000
  S   S55       1.0  0.84856  0.41260  0.27962  1.0000
  H   H162      1.0  0.33451  0.52048  0.30246  1.0000
  H   H163      1.0  0.00580  0.37766  0.38607  1.0000
  H   H164      1.0  0.04453  0.47607  0.34204  1.0000
  C   C152      1.0  0.12770  0.49028  0.32236  1.0000
  H   H165      1.0  0.79900  0.49019  0.41036  1.0000
  H   H166      1.0  0.41932  0.54716  0.38283  1.0000
  S   S56       1.0  0.50121  0.46823  0.40169  1.0000
  H   H167      1.0  0.44432  0.37171  0.25501  1.0000
  C   C153      1.0  0.64803  0.39052  0.31772  1.0000
  H   H168      1.0  0.53812  0.40651  0.33311  1.0000
  H   H169      1.0  0.36467  0.31629  0.28495  1.0000
  H   H170      1.0  0.08839  0.38404  0.32950  1.0000
  C   C154      1.0  0.68486  0.38404  0.21869  1.0000
  H   H171      1.0  0.25498  0.32756  0.27763  1.0000
  H   H172      1.0  0.68776  0.45740  0.35127  1.0000
  H   H173      1.0  0.58553  0.43681  0.33964  1.0000
  C   C155      1.0  0.55825  0.42206  0.30222  1.0000
  C   C156      1.0  0.14038  0.47779  0.21182  1.0000
  H   H174      1.0  0.86453  0.32144  0.28859  1.0000
  C   C157      1.0  0.37702  0.52475  0.29025  1.0000
  Fe  Fe30      1.0  0.63412  0.53447  0.19233  1.0000
  H   H175      1.0  0.34628  0.50455  0.19319  1.0000
  S   S57       1.0  0.60910  0.49121  0.22279  1.0000
  H   H176      1.0  0.58548  0.51217  0.42332  1.0000
  H   H177      1.0  0.65413  0.38649  0.37488  1.0000
  C   C158      1.0  0.47913  0.54426  0.31862  1.0000
  Fe  Fe31      1.0  0.61934  0.30967  0.28843  1.0000
  C   C159      1.0  0.91184  0.32849  0.30021  1.0000
  C   C160      1.0  0.69174  0.37863  0.29195  1.0000
  C   C161      1.0  0.99178  0.36007  0.35487  1.0000
  Fe  Fe32      1.0  0.40439  0.45455  0.39055  1.0000
  C   C162      1.0  0.08347  0.46443  0.19477  1.0000
  C   C163      1.0  0.48580  0.53365  0.25791  1.0000
  C   C164      1.0  0.07227  0.47577  0.30712  1.0000
  C   C165      1.0  0.70573  0.45514  0.30763  1.0000
  H   H178      1.0  0.88839  0.45442  0.38206  1.0000
  N   N14       1.0  0.59960  0.40786  0.27205  1.0000
  C   C166      1.0  0.38432  0.51536  0.22865  1.0000
  C   C167      1.0  0.34240  0.30280  0.31569  1.0000
  H   H179      1.0  0.78239  0.42664  0.37354  1.0000
  H   H180      1.0  0.71975  0.37565  0.19883  1.0000
  N   N15       1.0  0.03075  0.34887  0.32363  1.0000
  C   C168      1.0  0.36434  0.43391  0.23112  1.0000
  C   C169      1.0  0.42174  0.39156  0.22843  1.0000
  S   S58       1.0  0.14592  0.51345  0.38854  1.0000
  H   H181      1.0  0.11052  0.35552  0.28982  1.0000
  C   C170      1.0  0.95275  0.31633  0.27125  1.0000
  C   C171      1.0  0.39588  0.40852  0.26576  1.0000
  H   H182      1.0  0.26230  0.38658  0.23330  1.0000
  C   C172      1.0  0.78297  0.43504  0.26404  1.0000
  C   C173      1.0  0.42458  0.53950  0.33518  1.0000
  C   C174      1.0  0.91748  0.47082  0.40755  1.0000
  S   S59       1.0  0.71897  0.30873  0.36250  1.0000
  C   C175      1.0  0.28048  0.30917  0.31173  1.0000
  S   S60       1.0  0.53834  0.33139  0.30500  1.0000
  C   C176      1.0  0.09202  0.36079  0.33282  1.0000
  H   H183      1.0  0.80897  0.52399  0.36825  1.0000
  C   C177      1.0  0.82289  0.50136  0.37537  1.0000
  C   C178      1.0  0.59208  0.41310  0.19991  1.0000
  C   C179      1.0  0.75329  0.44972  0.19544  1.0000
  H   H184      1.0  0.80612  0.49398  0.32076  1.0000
  C   C180      1.0  0.05014  0.46272  0.24327  1.0000
  S   S61       1.0  0.33339  0.45512  0.27894  1.0000
  H   H185      1.0  0.04343  0.31765  0.25932  1.0000
  H   H186      1.0  0.39917  0.40159  0.32092  1.0000
  H   H187      1.0  0.20598  0.50148  0.28785  1.0000
  C   C181      1.0  0.16279  0.49044  0.27599  1.0000
  H   H188      1.0  0.51888  0.43430  0.25940  1.0000
  S   S62       1.0  0.96791  0.39439  0.18816  1.0000
  H   H189      1.0  0.20853  0.41586  0.42780  1.0000
  C   C182      1.0  0.28534  0.34349  0.63141  1.0000
  N   N16       1.0  0.68613  0.31461  0.53602  1.0000
  C   C183      1.0  0.75396  0.31788  0.55573  1.0000
  N   N17       1.0  0.29310  0.34257  0.56565  1.0000
  H   H190      1.0  0.83542  0.39694  0.54088  1.0000
  H   H191      1.0  0.31999  0.35277  0.67482  1.0000
  C   C184      1.0  0.58456  0.33042  0.53418  1.0000
  H   H192      1.0  0.75134  0.47924  0.51649  1.0000
  H   H193      1.0  0.77194  0.33168  0.59945  1.0000
  S   S63       1.0  0.90928  0.31709  0.58066  1.0000
  Fe  Fe33      1.0  0.43342  0.44309  0.55245  1.0000
  C   C185      1.0  0.35981  0.53333  0.56650  1.0000
  C   C186      1.0  0.19660  0.31881  0.52268  1.0000
  H   H194      1.0  0.50699  0.30575  0.47953  1.0000
  C   C187      1.0  0.23173  0.54016  0.53849  1.0000
  C   C188      1.0  0.18952  0.40717  0.52780  1.0000
  C   C189      1.0  0.27527  0.41430  0.63753  1.0000
  S   S64       1.0  0.43633  0.41556  0.46834  1.0000
  C   C190      1.0  0.75043  0.44322  0.68451  1.0000
  S   S65       1.0  0.87440  0.45364  0.55395  1.0000
  H   H195      1.0  0.34836  0.49045  0.60162  1.0000
  C   C191      1.0  0.32484  0.51091  0.58053  1.0000
  H   H196      1.0  0.55597  0.34545  0.54852  1.0000
  S   S66       1.0  0.07072  0.35619  0.64496  1.0000
  C   C192      1.0  0.98225  0.46531  0.44008  1.0000
  H   H197      1.0  0.18141  0.54290  0.52629  1.0000
  N   N18       1.0  0.26172  0.51456  0.56684  1.0000
  C   C193      1.0  0.64952  0.33317  0.55445  1.0000
  C   C194      1.0  0.60256  0.53704  0.51248  1.0000
  C   C195      1.0  0.34914  0.35377  0.55327  1.0000
  C   C196      1.0  0.18758  0.32033  0.58887  1.0000
  H   H198      1.0  0.33593  0.36640  0.49927  1.0000
  H   H199      1.0  0.37358  0.36792  0.59432  1.0000
  C   C197      1.0  0.21318  0.40700  0.60334  1.0000
  C   C198      1.0  0.76945  0.49327  0.66556  1.0000
  H   H200      1.0  0.02356  0.31214  0.54841  1.0000
  C   C199      1.0  0.24987  0.33019  0.51181  1.0000
  S   S67       1.0  0.95032  0.38498  0.67318  1.0000
  H   H201      1.0  0.16243  0.30899  0.47993  1.0000
  H   H202      1.0  0.25637  0.32908  0.45998  1.0000
  S   S68       1.0  0.60962  0.40118  0.48982  1.0000
  Fe  Fe34      1.0  0.05754  0.39218  0.55820  1.0000
  C   C200      1.0  0.31309  0.42213  0.59595  1.0000
  C   C201      1.0  0.79447  0.41056  0.53057  1.0000
  H   H203      1.0  0.21099  0.47908  0.52958  1.0000
  H   H204      1.0  0.73129  0.37684  0.51505  1.0000
  C   C202      1.0  0.28864  0.42306  0.52035  1.0000
  S   S69       1.0  0.52685  0.53394  0.51713  1.0000
  Fe  Fe35      1.0  0.94734  0.41862  0.58474  1.0000
  C   C203      1.0  0.99233  0.51182  0.47748  1.0000
  S   S70       1.0  0.95997  0.52091  0.65112  1.0000
  C   C204      1.0  0.67909  0.52668  0.45623  1.0000
  S   S71       1.0  0.05037  0.42552  0.62677  1.0000
  S   S72       1.0  0.11386  0.39645  0.48436  1.0000
  Fe  Fe36      1.0  0.49358  0.49096  0.49256  1.0000
  H   H205      1.0  0.64626  0.45903  0.49278  1.0000
  C   C205      1.0  0.22554  0.49049  0.57864  1.0000
  H   H206      1.0  0.67009  0.35036  0.58484  1.0000
  C   C206      1.0  0.80018  0.43946  0.53137  1.0000
  C   C207      1.0  0.68211  0.41645  0.50384  1.0000
  S   S73       1.0  0.39312  0.48101  0.47284  1.0000
  S   S74       1.0  0.53347  0.45507  0.57904  1.0000
  H   H207      1.0  0.38249  0.33632  0.55564  1.0000
  C   C208      1.0  0.61906  0.52404  0.46074  1.0000
  Fe  Fe37      1.0  0.53270  0.43136  0.48661  1.0000
  H   H208      1.0  0.79765  0.50319  0.63380  1.0000
  S   S75       1.0  0.95371  0.38890  0.50706  1.0000
  H   H209      1.0  0.25391  0.47577  0.62602  1.0000
  H   H210      1.0  0.18286  0.49726  0.58960  1.0000
  C   C209      1.0  0.23206  0.33277  0.64356  1.0000
  H   H211      1.0  0.76515  0.32701  0.50752  1.0000
  S   S76       1.0  0.39146  0.42989  0.63846  1.0000
  H   H212      1.0  0.70029  0.44786  0.65940  1.0000
  H   H213      1.0  0.14633  0.31185  0.59802  1.0000
  C   C210      1.0  0.68743  0.44546  0.50315  1.0000
  C   C211      1.0  0.22711  0.41534  0.48636  1.0000
  H   H214      1.0  0.02107  0.52787  0.50558  1.0000
  H   H215      1.0  0.31713  0.42947  0.48773  1.0000
  C   C212      1.0  0.01988  0.48606  0.47467  1.0000
  H   H216      1.0  0.07026  0.48210  0.49931  1.0000
  C   C213      1.0  0.74659  0.45693  0.51636  1.0000
  C   C214      1.0  0.73545  0.39913  0.51625  1.0000
  H   H217      1.0  0.18412  0.40070  0.63551  1.0000
  Fe  Fe38      1.0  0.96552  0.35555  0.59906  1.0000
  C   C215      1.0  0.92729  0.51658  0.44451  1.0000
  H   H218      1.0  0.40984  0.53026  0.57669  1.0000
  H   H219      1.0  0.71968  0.49472  0.62870  1.0000
  C   C216      1.0  0.55723  0.30836  0.49546  1.0000
  C   C217      1.0  0.72405  0.54113  0.50583  1.0000
  S   S77       1.0  0.79992  0.54243  0.50144  1.0000
  H   H220      1.0  0.90585  0.53649  0.44750  1.0000
  H   H221      1.0  0.00311  0.44508  0.43832  1.0000
  C   C218      1.0  0.00442  0.34045  0.86810  1.0000
  H   H222      1.0  0.03668  0.35078  0.91138  1.0000
  C   C219      1.0  0.53469  0.34512  0.84419  1.0000
  S   S78       1.0  0.32682  0.30621  0.81574  1.0000
  H   H223      1.0  0.09955  0.44734  0.76374  1.0000
  Fe  Fe39      1.0  0.05448  0.38928  0.71014  1.0000
  N   N19       1.0  0.94341  0.33711  0.86403  1.0000
  H   H224      1.0  0.07450  0.33314  0.81946  1.0000
  H   H225      1.0  0.00371  0.30738  0.72354  1.0000
  C   C220      1.0  0.92028  0.34708  0.91849  1.0000
  S   S79       1.0  0.61490  0.35276  0.70502  1.0000
  H   H226      1.0  0.88816  0.47476  0.72846  1.0000
  C   C221      1.0  0.01264  0.47157  0.85790  1.0000
  C   C222      1.0  0.44525  0.37748  0.81370  1.0000
  C   C223      1.0  0.49877  0.36829  0.80096  1.0000
  H   H227      1.0  0.29393  0.41373  0.69603  1.0000
  Fe  Fe40      1.0  0.95642  0.53116  0.75845  1.0000
  C   C224      1.0  0.04487  0.47169  0.80867  1.0000
  C   C225      1.0  0.66255  0.42376  0.79894  1.0000
  C   C226      1.0  0.71619  0.41544  0.85890  1.0000
  H   H228      1.0  0.85517  0.32122  0.80713  1.0000
  C   C227      1.0  0.04643  0.42279  0.89982  1.0000
  S   S80       1.0  0.75381  0.44040  0.91597  1.0000
  C   C228      1.0  0.85515  0.45821  0.72358  1.0000
  C   C229      1.0  0.42829  0.36324  0.86965  1.0000
  C   C230      1.0  0.83630  0.40907  0.73984  1.0000
  C   C231      1.0  0.07559  0.44717  0.80282  1.0000
  H   H229      1.0  0.59013  0.41083  0.70620  1.0000
  H   H230      1.0  0.51227  0.37904  0.75745  1.0000
  H   H231      1.0  0.42044  0.31091  0.74657  1.0000
  C   C232      1.0  0.51630  0.33133  0.89956  1.0000
  C   C233      1.0  0.90303  0.32427  0.80911  1.0000
  C   C234      1.0  0.92385  0.31357  0.75744  1.0000
  H   H232      1.0  0.86537  0.48497  0.92030  1.0000
  H   H233      1.0  0.73893  0.39876  0.69864  1.0000
  H   H234      1.0  0.76662  0.50218  0.93396  1.0000
  C   C235      1.0  0.07498  0.42255  0.84690  1.0000
  H   H235      1.0  0.88361  0.36407  0.89334  1.0000
  C   C236      1.0  0.77201  0.41533  0.70717  1.0000
  H   H236      1.0  0.72694  0.34659  0.83459  1.0000
  H   H237      1.0  0.22549  0.33398  0.69532  1.0000
  C   C237      1.0  0.73928  0.38753  0.87201  1.0000
  C   C238      1.0  0.02647  0.33028  0.81671  1.0000
  S   S81       1.0  0.10366  0.39111  0.82964  1.0000
  H   H238      1.0  0.64458  0.44531  0.78862  1.0000
  N   N20       1.0  0.46338  0.34033  0.91121  1.0000
  C   C239      1.0  0.98623  0.31639  0.76181  1.0000
  H   H239      1.0  0.04570  0.49060  0.77442  1.0000
  H   H240      1.0  0.92843  0.42612  0.77307  1.0000
  C   C240      1.0  0.65453  0.37642  0.76515  1.0000
  S   S82       1.0  0.96527  0.50082  0.85604  1.0000
  Fe  Fe41      1.0  0.65424  0.30874  0.73848  1.0000
  C   C241      1.0  0.63174  0.40428  0.75234  1.0000
  H   H241      1.0  0.41723  0.39555  0.78040  1.0000
  H   H242      1.0  0.57595  0.33770  0.83400  1.0000
  C   C242      1.0  0.70858  0.36801  0.82486  1.0000
  H   H243      1.0  0.78082  0.38105  0.91828  1.0000
  H   H244      1.0  0.54325  0.31280  0.93146  1.0000
  H   H245      1.0  0.85364  0.38754  0.75727  1.0000
  C   C243      1.0  0.87823  0.43064  0.74866  1.0000
  C   C244      1.0  0.01499  0.44737  0.90510  1.0000
  H   H246      1.0  0.38651  0.37040  0.87915  1.0000
  H   H247      1.0  0.77358  0.50514  0.71228  1.0000
  H   H248      1.0  0.04635  0.40384  0.93466  1.0000
  N   N21       1.0  0.79203  0.46416  0.69156  1.0000
  H   H249      1.0  0.89252  0.30232  0.71568  1.0000
  S   S83       1.0  0.18667  0.30099  0.88722  1.0000
  H   H250      1.0  0.81361  0.74949  0.96048  1.0000
  H   H251      1.0  0.20164  0.72662  0.15298  1.0000
  Fe  Fe42      1.0  0.09045  0.72583  0.01435  1.0000
  H   H252      1.0  0.88580  0.63730  0.12108  1.0000
  C   C245      1.0  0.12970  0.60545  0.01530  1.0000
  S   S84       1.0  0.09102  0.76502  0.06704  1.0000
  S   S85       1.0  0.27239  0.56656  0.13728  1.0000
  S   S86       1.0  0.56506  0.56529  0.11157  1.0000
  S   S87       1.0  0.40571  0.78215  0.04554  1.0000
  Fe  Fe43      1.0  0.60919  0.74879  0.02522  1.0000
  H   H253      1.0  0.57352  0.68751  0.95651  1.0000
  C   C246      1.0  0.72305  0.70417  0.01184  1.0000
  C   C247      1.0  0.85186  0.69898  0.08946  1.0000
  H   H254      1.0  0.45948  0.67201  0.98792  1.0000
  H   H255      1.0  0.14894  0.59613  0.07122  1.0000
  C   C248      1.0  0.46961  0.65698  0.03770  1.0000
  C   C249      1.0  0.08799  0.62888  0.99621  1.0000
  C   C250      1.0  0.23746  0.72686  0.00765  1.0000
  Fe  Fe44      1.0  0.95900  0.71393  0.01069  1.0000
  C   C251      1.0  0.74635  0.71306  0.08104  1.0000
  C   C252      1.0  0.14717  0.59424  0.96195  1.0000
  H   H256      1.0  0.82834  0.71502  0.17585  1.0000
  H   H257      1.0  0.62702  0.78749  0.17188  1.0000
  H   H258      1.0  0.18021  0.57626  0.97670  1.0000
  Fe  Fe45      1.0  0.04627  0.74029  0.13666  1.0000
  C   C253      1.0  0.81044  0.70917  0.12125  1.0000
  H   H259      1.0  0.90181  0.69718  0.11931  1.0000
  S   S88       1.0  0.56856  0.79172  0.02182  1.0000
  C   C254      1.0  0.34228  0.76026  0.03184  1.0000
  S   S89       1.0  0.05341  0.70000  0.09092  1.0000
  H   H260      1.0  0.99882  0.66790  0.94781  1.0000
  H   H261      1.0  0.83365  0.62937  0.99877  1.0000
  C   C255      1.0  0.89852  0.61938  0.16197  1.0000
  C   C256      1.0  0.56275  0.67390  0.12714  1.0000
  H   H262      1.0  0.38806  0.72505  0.00757  1.0000
  H   H263      1.0  0.42502  0.64776  0.03863  1.0000
  S   S90       1.0  0.63120  0.58885  0.96086  1.0000
  H   H264      1.0  0.36356  0.57426  0.06682  1.0000
  C   C257      1.0  0.23427  0.75424  0.02433  1.0000
  C   C258      1.0  0.43674  0.59710  0.13656  1.0000
  C   C259      1.0  0.82880  0.69176  0.01848  1.0000
  H   H265      1.0  0.19100  0.76323  0.02482  1.0000
  Fe  Fe46      1.0  0.64674  0.57984  0.07986  1.0000
  H   H266      1.0  0.73391  0.77461  0.99955  1.0000
  S   S91       1.0  0.94792  0.75216  0.06312  1.0000
  C   C260      1.0  0.28673  0.77069  0.03773  1.0000
  H   H267      1.0  0.63695  0.64356  0.01049  1.0000
  C   C261      1.0  0.34554  0.73304  0.01336  1.0000
  H   H268      1.0  0.50093  0.63950  0.03494  1.0000
  C   C262      1.0  0.95650  0.60501  0.17904  1.0000
  C   C263      1.0  0.73625  0.79165  0.95781  1.0000
  H   H269      1.0  0.83505  0.76591  0.15796  1.0000
  H   H270      1.0  0.23090  0.67625  0.17034  1.0000
  S   S92       1.0  0.17138  0.70620  0.99120  1.0000
  C   C264      1.0  0.91383  0.60997  0.94024  1.0000
  S   S93       1.0  0.69724  0.73156  0.11472  1.0000
  C   C265      1.0  0.59816  0.64398  0.95992  1.0000
  H   H271      1.0  0.93171  0.62641  0.97715  1.0000
  S   S94       1.0  0.88094  0.68489  0.97349  1.0000
  S   S95       1.0  0.51785  0.72860  0.00963  1.0000
  H   H272      1.0  0.07590  0.63785  0.03849  1.0000
  Fe  Fe47      1.0  0.99331  0.77335  0.98851  1.0000
  H   H273      1.0  0.67349  0.70611  0.98168  1.0000
  C   C266      1.0  0.76420  0.69334  0.98063  1.0000
  H   H274      1.0  0.29588  0.69511  0.98834  1.0000
  Fe  Fe48      1.0  0.47594  0.77167  0.99430  1.0000
  C   C267      1.0  0.29337  0.71618  0.00235  1.0000
  C   C268      1.0  0.46225  0.68346  0.13489  1.0000
  H   H275      1.0  0.41170  0.68190  0.11453  1.0000
  H   H276      1.0  0.46474  0.59735  0.10204  1.0000
  N   N22       1.0  0.49902  0.67129  0.10237  1.0000
  H   H277      1.0  0.28345  0.79201  0.04992  1.0000
  H   H278      1.0  0.59169  0.66516  0.09990  1.0000
  C   C269      1.0  0.37882  0.58456  0.11583  1.0000
  C   C270      1.0  0.34134  0.58485  0.15928  1.0000
  S   S96       1.0  0.00977  0.61629  0.13667  1.0000
  S   S97       1.0  0.67382  0.61214  0.15834  1.0000
  H   H279      1.0  0.92861  0.58913  0.97210  1.0000
  H   H280      1.0  0.24178  0.77421  0.17043  1.0000
  C   C271      1.0  0.81062  0.62268  0.94563  1.0000
  H   H281      1.0  0.71815  0.63345  0.94591  1.0000
  C   C272      1.0  0.15885  0.66878  0.31329  1.0000
  H   H282      1.0  0.46009  0.70806  0.22000  1.0000
  C   C273      1.0  0.93437  0.57469  0.27287  1.0000
  C   C274      1.0  0.26117  0.69024  0.20521  1.0000
  N   N23       1.0  0.28274  0.73677  0.23874  1.0000
  S   S98       1.0  0.08673  0.74770  0.25335  1.0000
  C   C275      1.0  0.97792  0.61465  0.41234  1.0000
  C   C276      1.0  0.55435  0.70027  0.22156  1.0000
  H   H283      1.0  0.00591  0.77442  0.33567  1.0000
  N   N24       1.0  0.85515  0.78945  0.31979  1.0000
  H   H284      1.0  0.07340  0.68940  0.24017  1.0000
  H   H285      1.0  0.77316  0.79133  0.34960  1.0000
  S   S99       1.0  0.53412  0.62109  0.23270  1.0000
  H   H286      1.0  0.39659  0.69036  0.34891  1.0000
  H   H287      1.0  0.22804  0.76940  0.25628  1.0000
  S   S100      1.0  0.26759  0.64195  0.40402  1.0000
  H   H288      1.0  0.80451  0.73198  0.39897  1.0000
  C   C277      1.0  0.13642  0.71865  0.29949  1.0000
  H   H289      1.0  0.62170  0.59605  0.38225  1.0000
  H   H290      1.0  0.32820  0.65754  0.27025  1.0000
  S   S101      1.0  0.19236  0.61811  0.21409  1.0000
  Fe  Fe49      1.0  0.22221  0.60857  0.33506  1.0000
  C   C278      1.0  0.23475  0.69818  0.38708  1.0000
  H   H291      1.0  0.94855  0.55750  0.31597  1.0000
  H   H292      1.0  0.58685  0.62934  0.38450  1.0000
  H   H293      1.0  0.14376  0.64858  0.29778  1.0000
  C   C279      1.0  0.82500  0.78220  0.25163  1.0000
  C   C280      1.0  0.33668  0.72680  0.29332  1.0000
  H   H294      1.0  0.36652  0.74090  0.32830  1.0000
  H   H295      1.0  0.43485  0.62082  0.29268  1.0000
  C   C281      1.0  0.95591  0.64002  0.36862  1.0000
  C   C282      1.0  0.97367  0.58227  0.23323  1.0000
  Fe  Fe50      1.0  0.59751  0.59479  0.19646  1.0000
  C   C283      1.0  0.19435  0.72171  0.35334  1.0000
  S   S102      1.0  0.83059  0.58110  0.31024  1.0000
  C   C284      1.0  0.11872  0.69213  0.28002  1.0000
  H   H296      1.0  0.01760  0.57057  0.24530  1.0000
  S   S103      1.0  0.65992  0.56259  0.28021  1.0000
  S   S104      1.0  0.13364  0.55582  0.20646  1.0000
  H   H297      1.0  0.94290  0.79373  0.40267  1.0000
  C   C285      1.0  0.26315  0.76651  0.22910  1.0000
  C   C286      1.0  0.85929  0.77163  0.21195  1.0000
  H   H298      1.0  0.57572  0.71180  0.26776  1.0000
  C   C287      1.0  0.53580  0.77978  0.27840  1.0000
  H   H299      1.0  0.54471  0.75750  0.19244  1.0000
  C   C288      1.0  0.97227  0.68716  0.31957  1.0000
  C   C289      1.0  0.95501  0.77655  0.31151  1.0000
  C   C290      1.0  0.62608  0.61394  0.41491  1.0000
  C   C291      1.0  0.41880  0.61113  0.24274  1.0000
  C   C292      1.0  0.73732  0.61176  0.42527  1.0000
  H   H300      1.0  0.33138  0.59923  0.25522  1.0000
  H   H301      1.0  0.30382  0.77960  0.25224  1.0000
  Fe  Fe51      1.0  0.10284  0.59908  0.21385  1.0000
  H   H302      1.0  0.30901  0.77707  0.39806  1.0000
  H   H303      1.0  0.20860  0.74222  0.36807  1.0000
  C   C293      1.0  0.21708  0.67164  0.36647  1.0000
  C   C294      1.0  0.92466  0.76853  0.24259  1.0000
  N   N25       1.0  0.99601  0.66110  0.36756  1.0000
  S   S105      1.0  0.12907  0.59329  0.33522  1.0000
  C   C295      1.0  0.91925  0.78729  0.34932  1.0000
  C   C296      1.0  0.45778  0.60944  0.20125  1.0000
  C   C297      1.0  0.36041  0.59881  0.22168  1.0000
  C   C298      1.0  0.35414  0.69821  0.30512  1.0000
  H   H304      1.0  0.96678  0.68383  0.26279  1.0000
  C   C299      1.0  0.60535  0.79225  0.21068  1.0000
  C   C300      1.0  0.05841  0.65740  0.40832  1.0000
  H   H305      1.0  0.27980  0.70069  0.42792  1.0000
  H   H306      1.0  0.73238  0.59060  0.41024  1.0000
  H   H307      1.0  0.09050  0.67384  0.40694  1.0000
  C   C301      1.0  0.87705  0.58940  0.25698  1.0000
  H   H308      1.0  0.77411  0.78471  0.22760  1.0000
  H   H309      1.0  0.00459  0.70451  0.33607  1.0000
  H   H310      1.0  0.90668  0.64262  0.33507  1.0000
  H   H311      1.0  0.94614  0.59795  0.41329  1.0000
  Fe  Fe52      1.0  0.22598  0.57412  0.21733  1.0000
  C   C302      1.0  0.55967  0.77498  0.22348  1.0000
  C   C303      1.0  0.24490  0.71886  0.19539  1.0000
  Fe  Fe53      1.0  0.73346  0.57690  0.23450  1.0000
  H   H312      1.0  0.95196  0.76003  0.21310  1.0000
  C   C304      1.0  0.31596  0.67984  0.26079  1.0000
  H   H313      1.0  0.92625  0.69416  0.32224  1.0000
  S   S106      1.0  0.26526  0.56596  0.33916  1.0000
  S   S107      1.0  0.49071  0.75475  0.30718  1.0000
  H   H314      1.0  0.51624  0.55582  0.35308  1.0000
  C   C305      1.0  0.59138  0.68838  0.18711  1.0000
  H   H315      1.0  0.81410  0.62290  0.18857  1.0000
  C   C306      1.0  0.85831  0.61135  0.20051  1.0000
  H   H316      1.0  0.64177  0.69078  0.20577  1.0000
  C   C307      1.0  0.48932  0.69810  0.19490  1.0000
  N   N26       1.0  0.68682  0.62686  0.42797  1.0000
  Fe  Fe54      1.0  0.53834  0.74673  0.42779  1.0000
  S   S108      1.0  0.19662  0.79005  0.42824  1.0000
  H   H317      1.0  0.84435  0.79925  0.41856  1.0000
  Fe  Fe55      1.0  0.16887  0.55148  0.32836  1.0000
  H   H318      1.0  0.42001  0.77027  0.47935  1.0000
  S   S109      1.0  0.20628  0.75475  0.61527  1.0000
  S   S110      1.0  0.47699  0.77268  0.63403  1.0000
  C   C308      1.0  0.70799  0.55407  0.55801  1.0000
  C   C309      1.0  0.20322  0.59262  0.64673  1.0000
  C   C310      1.0  0.73264  0.66848  0.67634  1.0000
  H   H319      1.0  0.28086  0.61955  0.65863  1.0000
  H   H320      1.0  0.32804  0.73075  0.59257  1.0000
  S   S111      1.0  0.93935  0.72441  0.45276  1.0000
  H   H321      1.0  0.63422  0.56260  0.60063  1.0000
  C   C311      1.0  0.75223  0.66554  0.46600  1.0000
  H   H322      1.0  0.10420  0.66054  0.63370  1.0000
  C   C312      1.0  0.69361  0.65345  0.44769  1.0000
  H   H323      1.0  0.73100  0.75333  0.45013  1.0000
  C   C313      1.0  0.88668  0.73739  0.49105  1.0000
  H   H324      1.0  0.62042  0.60619  0.46738  1.0000
  C   C314      1.0  0.80295  0.75987  0.55080  1.0000
  S   S112      1.0  0.75193  0.77464  0.58875  1.0000
  S   S113      1.0  0.93344  0.58853  0.59666  1.0000
  C   C315      1.0  0.79455  0.62379  0.64473  1.0000
  C   C316      1.0  0.13950  0.59110  0.63789  1.0000
  H   H325      1.0  0.35595  0.57697  0.52572  1.0000
  H   H326      1.0  0.84992  0.65925  0.47887  1.0000
  C   C317      1.0  0.27612  0.79006  0.48100  1.0000
  C   C318      1.0  0.82208  0.73892  0.45250  1.0000
  C   C319      1.0  0.36046  0.71960  0.64412  1.0000
  H   H327      1.0  0.88494  0.76456  0.64337  1.0000
  C   C320      1.0  0.40019  0.65546  0.57302  1.0000
  C   C321      1.0  0.46131  0.69601  0.65840  1.0000
  C   C322      1.0  0.49638  0.67400  0.64709  1.0000
  N   N27       1.0  0.39716  0.69733  0.62901  1.0000
  S   S114      1.0  0.11753  0.72161  0.48433  1.0000
  C   C323      1.0  0.08207  0.63225  0.45209  1.0000
  C   C324      1.0  0.13195  0.64162  0.63772  1.0000
  Fe  Fe56      1.0  0.15013  0.76528  0.49771  1.0000
  C   C325      1.0  0.72930  0.62745  0.61403  1.0000
  C   C326      1.0  0.38468  0.77710  0.50025  1.0000
  H   H328      1.0  0.05920  0.59095  0.48672  1.0000
  C   C327      1.0  0.80403  0.65024  0.46367  1.0000
  S   S115      1.0  0.61713  0.65555  0.58315  1.0000
  C   C328      1.0  0.86737  0.75786  0.58963  1.0000
  H   H329      1.0  0.24121  0.58329  0.50110  1.0000
  C   C329      1.0  0.79651  0.62320  0.44283  1.0000
  Fe  Fe57      1.0  0.03698  0.73606  0.51574  1.0000
  S   S116      1.0  0.08406  0.72465  0.63621  1.0000
  S   S117      1.0  0.63236  0.72385  0.47327  1.0000
  C   C330      1.0  0.36646  0.67743  0.58679  1.0000
  H   H330      1.0  0.65394  0.66503  0.45187  1.0000
  C   C331      1.0  0.69827  0.65009  0.62839  1.0000
  S   S118      1.0  0.49679  0.72079  0.49993  1.0000
  Fe  Fe58      1.0  0.01640  0.55920  0.65550  1.0000
  S   S119      1.0  0.23214  0.67508  0.65047  1.0000
  C   C332      1.0  0.78032  0.75061  0.48188  1.0000
  H   H331      1.0  0.70305  0.61324  0.57723  1.0000
  C   C333      1.0  0.35540  0.79100  0.59974  1.0000
  Fe  Fe59      1.0  0.53235  0.75397  0.57439  1.0000
  H   H332      1.0  0.13166  0.62950  0.48427  1.0000
  Fe  Fe60      1.0  0.59408  0.70150  0.55344  1.0000
  C   C334      1.0  0.40085  0.78105  0.57374  1.0000
  C   C335      1.0  0.29334  0.79590  0.55300  1.0000
  H   H333      1.0  0.75774  0.68633  0.48369  1.0000
  S   S120      1.0  0.62557  0.73228  0.63473  1.0000
  C   C336      1.0  0.64682  0.55245  0.56054  1.0000
  C   C337      1.0  0.04146  0.61071  0.45373  1.0000
  Fe  Fe61      1.0  0.65721  0.75635  0.55069  1.0000
  H   H334      1.0  0.37557  0.63991  0.53893  1.0000
  C   C338      1.0  0.90921  0.74704  0.55937  1.0000
  H   H335      1.0  0.23108  0.57371  0.65112  1.0000
  H   H336      1.0  0.31550  0.67845  0.56373  1.0000
  S   S121      1.0  0.06398  0.78084  0.51594  1.0000
  C   C339      1.0  0.23141  0.61850  0.65145  1.0000
  S   S122      1.0  0.56673  0.78149  0.49852  1.0000
  S   S123      1.0  0.10427  0.55874  0.62718  1.0000
  H   H337      1.0  0.49261  0.63678  0.59377  1.0000
  H   H338      1.0  0.74255  0.56534  0.59617  1.0000
  H   H339      1.0  0.95887  0.74600  0.58935  1.0000
  C   C340      1.0  0.32212  0.78148  0.45386  1.0000
  C   C341      1.0  0.46560  0.65371  0.60371  1.0000
  Fe  Fe62      1.0  0.16604  0.71264  0.60430  1.0000
  Fe  Fe63      1.0  0.11907  0.76839  0.63329  1.0000
  H   H340      1.0  0.81807  0.60727  0.62932  1.0000
  C   C342      1.0  0.10404  0.61555  0.63469  1.0000
  H   H341      1.0  0.05480  0.61453  0.62798  1.0000
  C   C343      1.0  0.19570  0.64303  0.64610  1.0000
  C   C344      1.0  0.26520  0.56304  0.52381  1.0000
  C   C345      1.0  0.32963  0.55952  0.53785  1.0000
  H   H342      1.0  0.54716  0.67282  0.67162  1.0000
  H   H343      1.0  0.36788  0.79452  0.65621  1.0000
  H   H344      1.0  0.39101  0.73514  0.67560  1.0000
  H   H345      1.0  0.33295  0.71051  0.67723  1.0000
  Fe  Fe64      1.0  0.87676  0.55100  0.60249  1.0000
  H   H346      1.0  0.83616  0.61082  0.44113  1.0000
  H   H347      1.0  0.95973  0.80087  0.60723  1.0000
  Fe  Fe65      1.0  0.93060  0.59279  0.70772  1.0000
  C   C346      1.0  0.79449  0.74688  0.84701  1.0000
  H   H348      1.0  0.35530  0.73965  0.81949  1.0000
  H   H349      1.0  0.70898  0.68568  0.68912  1.0000
  C   C347      1.0  0.51230  0.66982  0.86347  1.0000
  H   H350      1.0  0.72734  0.59899  0.75658  1.0000
  C   C348      1.0  0.82892  0.64158  0.69414  1.0000
  H   H351      1.0  0.84325  0.59513  0.81178  1.0000
  C   C349      1.0  0.79794  0.66401  0.71006  1.0000
  S   S124      1.0  0.01941  0.56721  0.76676  1.0000
  S   S125      1.0  0.45463  0.77826  0.87401  1.0000
  H   H352      1.0  0.14798  0.70952  0.82191  1.0000
  H   H353      1.0  0.17843  0.75804  0.84052  1.0000
  C   C350      1.0  0.30996  0.73310  0.82067  1.0000
  N   N28       1.0  0.84520  0.61253  0.90779  1.0000
  C   C351      1.0  0.71588  0.78031  0.76553  1.0000
  C   C352      1.0  0.02124  0.66551  0.90633  1.0000
  C   C353      1.0  0.74518  0.62513  0.91585  1.0000
  C   C354      1.0  0.71489  0.61657  0.84751  1.0000
  C   C355      1.0  0.75917  0.75801  0.77651  1.0000
  H   H354      1.0  0.04871  0.68422  0.90181  1.0000
  H   H355      1.0  0.82816  0.72950  0.85602  1.0000
  S   S126      1.0  0.46525  0.70069  0.82686  1.0000
  C   C356      1.0  0.75038  0.60562  0.80993  1.0000
  C   C357      1.0  0.12225  0.60636  0.89001  1.0000
  H   H356      1.0  0.76534  0.74930  0.73046  1.0000
  H   H357      1.0  0.22219  0.67552  0.80115  1.0000
  N   N29       1.0  0.06296  0.64034  0.92535  1.0000
  S   S127      1.0  0.86721  0.55729  0.70944  1.0000
  H   H358      1.0  0.32670  0.69078  0.80117  1.0000
  H   H359      1.0  0.52631  0.60244  0.82892  1.0000
  N   N30       1.0  0.26885  0.75165  0.83177  1.0000
  C   C358      1.0  0.07957  0.62944  0.87245  1.0000
  H   H360      1.0  0.46053  0.64625  0.77671  1.0000
  C   C359      1.0  0.21114  0.74341  0.83176  1.0000
  C   C360      1.0  0.81592  0.60355  0.84135  1.0000
  S   S128      1.0  0.59930  0.75344  0.90723  1.0000
  C   C361      1.0  0.53634  0.62098  0.85706  1.0000
  H   H361      1.0  0.74621  0.68783  0.92562  1.0000
  H   H362      1.0  0.13568  0.59785  0.84805  1.0000
  C   C362      1.0  0.23541  0.69683  0.81046  1.0000
  C   C363      1.0  0.78593  0.75824  0.90584  1.0000
  C   C364      1.0  0.29409  0.70540  0.81038  1.0000
  H   H363      1.0  0.16635  0.79863  0.90020  1.0000
  N   N31       1.0  0.74291  0.77988  0.89477  1.0000
  C   C365      1.0  0.28684  0.78053  0.84241  1.0000
  Fe  Fe66      1.0  0.50444  0.73614  0.89154  1.0000
  H   H364      1.0  0.48576  0.71186  0.69157  1.0000
  C   C366      1.0  0.70831  0.79110  0.82569  1.0000
  H   H365      1.0  0.05970  0.63860  0.81623  1.0000
  C   C367      1.0  0.19357  0.71592  0.82117  1.0000
  H   H366      1.0  0.98267  0.66464  0.85374  1.0000
  H   H367      1.0  0.33195  0.78089  0.88769  1.0000
  H   H368      1.0  0.66398  0.61818  0.82422  1.0000
  H   H369      1.0  0.82418  0.67775  0.74867  1.0000
  S   S129      1.0  0.90943  0.63406  0.73970  1.0000
  C   C368      1.0  0.49928  0.64576  0.82745  1.0000
  H   H370      1.0  0.00142  0.79476  0.70320  1.0000
  H   H371      1.0  0.29106  0.79139  0.79179  1.0000
  S   S130      1.0  0.99592  0.73637  0.92902  1.0000
  H   H372      1.0  0.05906  0.78778  0.89603  1.0000
  C   C369      1.0  0.58520  0.61994  0.92390  1.0000
  H   H373      1.0  0.25188  0.79265  0.85717  1.0000
  Fe  Fe67      1.0  0.55109  0.79490  0.90275  1.0000
  H   H374      1.0  0.68834  0.78906  0.71064  1.0000
  S   S131      1.0  0.13594  0.79985  0.71376  1.0000
  H   H375      1.0  0.93594  0.61273  0.89758  1.0000
  C   C370      1.0  0.56238  0.66896  0.92916  1.0000
  H   H376      1.0  0.24341  0.01793  0.03264  1.0000
  C   C371      1.0  0.05449  0.96163  0.00328  1.0000
  H   H377      1.0  0.42972  0.94826  0.11804  1.0000
  S   S132      1.0  0.96903  0.81741  0.93722  1.0000
  H   H378      1.0  0.14607  0.87794  0.97378  1.0000
  C   C372      1.0  0.23012  0.02518  0.97512  1.0000
  C   C373      1.0  0.08563  0.00609  0.04870  1.0000
  S   S133      1.0  0.33500  0.90314  0.05017  1.0000
  C   C374      1.0  0.12200  0.86168  0.14580  1.0000
  H   H379      1.0  0.69236  0.80497  0.94279  1.0000
  H   H380      1.0  0.47820  0.82900  0.07602  1.0000
  C   C375      1.0  0.26602  0.04464  0.95091  1.0000
  H   H381      1.0  0.14879  0.00034  0.94372  1.0000
  H   H382      1.0  0.19516  0.89028  0.14458  1.0000
  C   C376      1.0  0.18215  0.87198  0.17275  1.0000
  C   C377      1.0  0.48861  0.84593  0.10996  1.0000
  H   H383      1.0  0.01904  0.94886  0.97082  1.0000
  H   H384      1.0  0.00469  0.95008  0.13966  1.0000
  C   C378      1.0  0.98589  0.03292  0.13686  1.0000
  S   S134      1.0  0.47717  0.93180  0.99323  1.0000
  C   C379      1.0  0.51566  0.96738  0.17423  1.0000
  H   H385      1.0  0.57223  0.85609  0.08485  1.0000
  S   S135      1.0  0.24043  0.95477  0.11672  1.0000
  C   C380      1.0  0.14638  0.99469  0.08666  1.0000
  Fe  Fe68      1.0  0.26776  0.93998  0.02757  1.0000
  H   H386      1.0  0.02291  0.83150  0.09453  1.0000
  Fe  Fe69      1.0  0.26575  0.89001  0.94889  1.0000
  Fe  Fe70      1.0  0.37446  0.92817  0.97454  1.0000
  C   C381      1.0  0.12637  0.85888  0.95372  1.0000
  C   C382      1.0  0.54173  0.86126  0.11448  1.0000
  H   H387      1.0  0.94375  0.04511  0.10334  1.0000
  H   H388      1.0  0.08847  0.87230  0.09650  1.0000
  C   C383      1.0  0.16203  0.96713  0.08029  1.0000
  C   C384      1.0  0.03980  0.98971  0.00640  1.0000
  H   H389      1.0  0.00995  0.84225  0.17432  1.0000
  H   H390      1.0  0.36658  0.83446  0.08585  1.0000
  H   H391      1.0  0.18175  0.00766  0.11850  1.0000
  N   N32       1.0  0.45073  0.85202  0.14828  1.0000
  H   H392      1.0  0.12759  0.92898  0.03526  1.0000
  H   H393      1.0  0.77669  0.80470  0.98182  1.0000
  S   S136      1.0  0.24088  0.84535  0.94227  1.0000
  C   C385      1.0  0.50371  0.90529  0.95385  1.0000
  H   H394      1.0  0.94399  0.99348  0.11402  1.0000
  H   H395      1.0  0.36617  0.84374  0.17175  1.0000
  H   H396      1.0  0.03644  0.86817  0.96394  1.0000
  H   H397      1.0  0.07421  0.02757  0.05283  1.0000
  C   C386      1.0  0.45672  0.95701  0.16723  1.0000
  C   C387      1.0  0.39617  0.83514  0.14374  1.0000
  C   C388      1.0  0.11587  0.95044  0.03949  1.0000
  C   C389      1.0  0.06454  0.85317  0.94909  1.0000
  S   S137      1.0  0.31384  0.96684  0.96163  1.0000
  H   H398      1.0  0.42928  0.87775  0.95519  1.0000
  C   C390      1.0  0.98624  0.00362  0.14333  1.0000
  C   C391      1.0  0.04091  0.82948  0.15493  1.0000
  H   H399      1.0  0.58389  0.92756  0.94629  1.0000
  H   H400      1.0  0.53480  0.96647  0.13073  1.0000
  H   H401      1.0  0.59882  0.89406  0.16478  1.0000
  C   C392      1.0  0.04071  0.04623  0.17188  1.0000
  C   C393      1.0  0.55665  0.88262  0.15949  1.0000
  S   S138      1.0  0.96490  0.00455  0.95601  1.0000
  N   N33       1.0  0.10510  0.83905  0.18229  1.0000
  H   H402      1.0  0.03898  0.80704  0.17440  1.0000
  H   H403      1.0  0.33023  0.99733  0.17673  1.0000
  H   H404      1.0  0.41233  0.81335  0.16883  1.0000
  C   C394      1.0  0.47096  0.88070  0.94064  1.0000
  N   N34       1.0  0.03986  0.98801  0.18322  1.0000
  C   C395      1.0  0.16323  0.83920  0.93603  1.0000
  C   C396      1.0  0.46085  0.88946  0.39660  1.0000
  H   H405      1.0  0.13565  0.98847  0.25103  1.0000
  C   C397      1.0  0.04001  0.95734  0.18833  1.0000
  C   C398      1.0  0.51817  0.88851  0.19902  1.0000
  C   C399      1.0  0.31568  0.01154  0.20772  1.0000
  C   C400      1.0  0.28781  0.00135  0.25848  1.0000
  C   C401      1.0  0.07221  0.87271  0.41515  1.0000
  H   H406      1.0  0.08638  0.94836  0.19133  1.0000
  H   H407      1.0  0.59550  0.98732  0.24335  1.0000
  H   H408      1.0  0.60266  0.85724  0.42460  1.0000
  S   S139      1.0  0.38332  0.89034  0.33624  1.0000
  C   C402      1.0  0.43290  0.95803  0.22401  1.0000
  C   C403      1.0  0.67738  0.03253  0.37006  1.0000
  S   S140      1.0  0.23547  0.00710  0.36410  1.0000
  C   C404      1.0  0.54963  0.97906  0.23720  1.0000
  C   C405      1.0  0.52388  0.98022  0.29228  1.0000
  C   C406      1.0  0.20680  0.83633  0.27519  1.0000
  H   H409      1.0  0.53396  0.80765  0.35661  1.0000
  H   H410      1.0  0.13762  0.04023  0.24097  1.0000
  S   S141      1.0  0.66797  0.90092  0.34971  1.0000
  C   C407      1.0  0.72179  0.98730  0.36313  1.0000
  C   C408      1.0  0.46458  0.87317  0.19195  1.0000
  H   H411      1.0  0.43433  0.87819  0.22191  1.0000
  H   H412      1.0  0.42288  0.99308  0.34185  1.0000
  H   H413      1.0  0.53027  0.90455  0.23569  1.0000
  H   H414      1.0  0.40166  0.95692  0.33953  1.0000
  C   C409      1.0  0.81866  0.80161  0.35899  1.0000
  Fe  Fe71      1.0  0.30944  0.90742  0.37559  1.0000
  S   S142      1.0  0.68155  0.83673  0.23440  1.0000
  H   H415      1.0  0.80869  0.82417  0.33938  1.0000
  C   C410      1.0  0.04180  0.87473  0.34002  1.0000
  C   C411      1.0  0.26889  0.01970  0.29872  1.0000
  C   C412      1.0  0.59797  0.82089  0.30151  1.0000
  S   S143      1.0  0.25153  0.87875  0.42193  1.0000
  H   H416      1.0  0.49302  0.85959  0.34076  1.0000
  C   C413      1.0  0.94786  0.85735  0.35935  1.0000
  H   H417      1.0  0.54984  0.98989  0.34036  1.0000
  S   S144      1.0  0.22630  0.93187  0.29482  1.0000
  S   S145      1.0  0.80158  0.88716  0.32681  1.0000
  C   C414      1.0  0.09318  0.00086  0.21964  1.0000
  S   S146      1.0  0.75929  0.96637  0.32086  1.0000
  H   H418      1.0  0.72824  0.02529  0.29815  1.0000
  H   H419      1.0  0.28152  0.97928  0.26631  1.0000
  C   C415      1.0  0.22473  0.85909  0.23773  1.0000
  Fe  Fe72      1.0  0.75892  0.92172  0.36479  1.0000
  Fe  Fe73      1.0  0.16970  0.90625  0.34900  1.0000
  H   H420      1.0  0.47762  0.96533  0.39790  1.0000
  N   N35       1.0  0.46671  0.96942  0.28569  1.0000
  S   S147      1.0  0.17339  0.93648  0.42995  1.0000
  Fe  Fe74      1.0  0.71553  0.86429  0.32390  1.0000
  C   C416      1.0  0.98006  0.86637  0.31205  1.0000
  H   H421      1.0  0.61208  0.83891  0.33039  1.0000
  C   C417      1.0  0.14627  0.82662  0.24675  1.0000
  H   H422      1.0  0.90021  0.85109  0.33738  1.0000
  H   H423      1.0  0.27097  0.86720  0.25987  1.0000
  C   C418      1.0  0.71123  0.01597  0.34010  1.0000
  Fe  Fe75      1.0  0.23824  0.95994  0.38235  1.0000
  C   C419      1.0  0.62460  0.81512  0.24996  1.0000
  H   H424      1.0  0.95643  0.86773  0.25395  1.0000
  C   C420      1.0  0.27711  0.04843  0.28695  1.0000
  H   H425      1.0  0.23869  0.82682  0.32717  1.0000
  C   C421      1.0  0.50606  0.87247  0.38485  1.0000
  S   S148      1.0  0.08001  0.88893  0.28138  1.0000
  C   C422      1.0  0.09459  0.03012  0.21404  1.0000
  C   C423      1.0  0.32689  0.03994  0.19902  1.0000
  C   C424      1.0  0.44083  0.97127  0.34408  1.0000
  C   C425      1.0  0.55389  0.80318  0.31611  1.0000
  H   H426      1.0  0.38688  0.94996  0.21810  1.0000
  H   H427      1.0  0.13199  0.80947  0.27740  1.0000
  H   H428      1.0  0.02971  0.94878  0.23756  1.0000
  C   C426      1.0  0.70004  0.97533  0.41771  1.0000
  C   C427      1.0  0.65427  0.02046  0.42323  1.0000
  C   C428      1.0  0.97731  0.85663  0.43451  1.0000
  C   C429      1.0  0.56805  0.87088  0.43246  1.0000
  H   H429      1.0  0.70788  0.95318  0.43568  1.0000
  H   H430      1.0  0.42031  0.98824  0.60890  1.0000
  S   S149      1.0  0.32540  0.93717  0.45972  1.0000
  H   H431      1.0  0.85576  0.81859  0.57046  1.0000
  H   H432      1.0  0.06374  0.86210  0.52034  1.0000
  C   C430      1.0  0.03096  0.89463  0.63524  1.0000
  C   C431      1.0  0.58551  0.88632  0.49169  1.0000
  C   C432      1.0  0.12422  0.92545  0.60594  1.0000
  H   H433      1.0  0.44350  0.91766  0.46679  1.0000
  C   C433      1.0  0.22133  0.99679  0.64644  1.0000
  C   C434      1.0  0.54042  0.90305  0.50467  1.0000
  C   C435      1.0  0.97597  0.81104  0.65816  1.0000
  H   H434      1.0  0.24837  0.01671  0.55886  1.0000
  H   H435      1.0  0.34290  0.95255  0.61486  1.0000
  H   H436      1.0  0.25832  0.80353  0.57323  1.0000
  H   H437      1.0  0.00931  0.82700  0.65123  1.0000
  C   C436      1.0  0.47196  0.83912  0.52720  1.0000
  C   C437      1.0  0.31027  0.02631  0.66296  1.0000
  C   C438      1.0  0.24407  0.87114  0.64499  1.0000
  Fe  Fe76      1.0  0.71554  0.88347  0.46648  1.0000
  C   C439      1.0  0.17373  0.83301  0.61456  1.0000
  S   S150      1.0  0.66461  0.88523  0.54612  1.0000
  C   C440      1.0  0.41071  0.84647  0.52152  1.0000
  H   H438      1.0  0.18132  0.98721  0.61076  1.0000
  C   C441      1.0  0.13411  0.91129  0.67482  1.0000
  C   C442      1.0  0.37501  0.95934  0.66436  1.0000
  C   C443      1.0  0.20623  0.85510  0.59339  1.0000
  C   C444      1.0  0.66684  0.99199  0.44838  1.0000
  H   H439      1.0  0.55402  0.91507  0.55066  1.0000
  H   H440      1.0  0.99447  0.88222  0.64546  1.0000
  H   H441      1.0  0.48170  0.83314  0.48040  1.0000
  C   C445      1.0  0.52054  0.83945  0.59325  1.0000
  C   C446      1.0  0.39833  0.85277  0.58331  1.0000
  C   C447      1.0  0.41863  0.97929  0.66109  1.0000
  H   H442      1.0  0.14509  0.82080  0.57400  1.0000
  C   C448      1.0  0.25900  0.01359  0.61709  1.0000
  H   H443      1.0  0.64881  0.98256  0.48931  1.0000
  C   C449      1.0  0.81519  0.83974  0.63600  1.0000
  H   H444      1.0  0.37293  0.84627  0.47011  1.0000
  H   H445      1.0  0.76819  0.84116  0.59599  1.0000
  N   N36       1.0  0.92381  0.82431  0.67312  1.0000
  H   H446      1.0  0.56851  0.83434  0.59752  1.0000
  N   N37       1.0  0.44587  0.85173  0.64883  1.0000
  H   H447      1.0  0.35014  0.85726  0.57903  1.0000
  C   C450      1.0  0.50651  0.84577  0.65399  1.0000
  H   H448      1.0  0.16174  0.93699  0.59527  1.0000
  Fe  Fe77      1.0  0.83744  0.86936  0.44347  1.0000
  S   S151      1.0  0.75329  0.84451  0.43920  1.0000
  C   C451      1.0  0.01893  0.90912  0.56617  1.0000
  C   C452      1.0  0.86487  0.82683  0.62209  1.0000
  H   H449      1.0  0.05811  0.93491  0.49731  1.0000
  H   H450      1.0  0.97386  0.90780  0.52371  1.0000
  S   S152      1.0  0.80402  0.90650  0.48292  1.0000
  S   S153      1.0  0.60339  0.04023  0.45137  1.0000
  S   S154      1.0  0.28271  0.89983  0.61958  1.0000
  H   H451      1.0  0.20227  0.85944  0.53718  1.0000
  S   S155      1.0  0.35891  0.04592  0.62580  1.0000
  Fe  Fe78      1.0  0.25978  0.91076  0.49938  1.0000
  C   C453      1.0  0.47794  0.90464  0.45691  1.0000
  C   C454      1.0  0.04030  0.86324  0.46234  1.0000
  S   S156      1.0  0.93475  0.84967  0.49381  1.0000
  C   C455      1.0  0.06622  0.92432  0.55130  1.0000
  H   H452      1.0  0.12004  0.87886  0.43686  1.0000
  H   H453      1.0  0.54422  0.84526  0.70562  1.0000
  C   C456      1.0  0.07729  0.80780  0.91133  1.0000
  C   C457      1.0  0.54786  0.86271  0.89289  1.0000
  C   C458      1.0  0.37173  0.94871  0.73153  1.0000
  H   H454      1.0  0.06107  0.02872  0.80283  1.0000
  C   C459      1.0  0.17696  0.01525  0.92475  1.0000
  C   C460      1.0  0.19533  0.04344  0.82820  1.0000
  H   H455      1.0  0.36452  0.03137  0.77385  1.0000
  H   H456      1.0  0.44706  0.83707  0.75442  1.0000
  H   H457      1.0  0.45831  0.87416  0.73970  1.0000
  H   H458      1.0  0.48977  0.00509  0.72199  1.0000
  H   H459      1.0  0.98167  0.83251  0.77874  1.0000
  H   H460      1.0  0.10200  0.01778  0.74516  1.0000
  S   S157      1.0  0.31145  0.91146  0.87464  1.0000
  H   H461      1.0  0.50437  0.01138  0.84773  1.0000
  C   C461      1.0  0.49362  0.85923  0.91142  1.0000
  C   C462      1.0  0.57954  0.88764  0.90412  1.0000
  H   H462      1.0  0.29972  0.00061  0.82580  1.0000
  H   H463      1.0  0.47143  0.98767  0.90004  1.0000
  S   S158      1.0  0.57670  0.83577  0.85693  1.0000
  H   H464      1.0  0.46882  0.84005  0.90294  1.0000
  C   C463      1.0  0.43237  0.85618  0.71475  1.0000
  C   C464      1.0  0.88651  0.84789  0.75379  1.0000
  H   H465      1.0  0.62166  0.89036  0.89027  1.0000
  N   N38       1.0  0.45299  0.97875  0.79088  1.0000
  S   S159      1.0  0.19128  0.96939  0.75760  1.0000
  C   C465      1.0  0.32431  0.02201  0.73822  1.0000
  C   C466      1.0  0.21623  0.84313  0.73880  1.0000
  H   H466      1.0  0.53871  0.97615  0.87938  1.0000
  H   H467      1.0  0.06537  0.88776  0.78496  1.0000
  H   H468      1.0  0.33744  0.93342  0.73451  1.0000
  H   H469      1.0  0.09507  0.85756  0.75581  1.0000
  C   C467      1.0  0.49399  0.98902  0.85766  1.0000
  C   C468      1.0  0.93503  0.83465  0.73826  1.0000
  C   C469      1.0  0.17779  0.82719  0.68714  1.0000
  Fe  Fe79      1.0  0.97402  0.04986  0.92198  1.0000
  C   C470      1.0  0.45752  0.98886  0.72531  1.0000
  Fe  Fe80      1.0  0.24728  0.94806  0.86712  1.0000
  C   C471      1.0  0.82622  0.85050  0.70204  1.0000
  C   C472      1.0  0.10132  0.01564  0.80168  1.0000
  H   H470      1.0  0.38160  0.86048  0.70372  1.0000
  C   C473      1.0  0.09933  0.88039  0.76041  1.0000
  H   H471      1.0  0.67437  0.80838  0.81671  1.0000
  H   H472      1.0  0.40849  0.95026  0.84647  1.0000
  C   C474      1.0  0.13818  0.81385  0.91395  1.0000
  H   H473      1.0  0.89560  0.85580  0.80591  1.0000
  H   H474      1.0  0.09414  0.99322  0.81590  1.0000
  C   C475      1.0  0.25033  0.86462  0.71807  1.0000
  C   C476      1.0  0.41175  0.95849  0.79466  1.0000
  H   H475      1.0  0.14744  0.88320  0.79856  1.0000
  H   H476      1.0  0.22013  0.83877  0.79504  1.0000
  C   C477      1.0  0.28800  0.00435  0.76767  1.0000
  H   H477      1.0  0.78790  0.86076  0.71278  1.0000
  N   N39       1.0  0.16001  0.02455  0.85246  1.0000
  H   H478      1.0  0.28055  0.87656  0.75853  1.0000
  C   C478      1.0  0.23647  0.99178  0.72172  1.0000
  H   H479      1.0  0.17930  0.91256  0.71685  1.0000
  N   N40       1.0  0.08801  0.89587  0.68858  1.0000
  C   C479      1.0  0.04074  0.82730  0.92967  1.0000
  S   S160      1.0  0.19518  0.92511  0.93156  1.0000
  H   H480      1.0  0.18187  0.05075  0.77082  1.0000
  C   C480      1.0  0.55812  0.90869  0.93575  1.0000
