data_image0
_chemical_formula_structural       FeS2FeS2FeSFeS3FeSC3SFeS2FeS2FeSFeS3CHCH4C4H3C6H4C6H4C6H4C2H2C4HCH2C5H3CH3CHNHCSCHNC6H8C2HC2HNCNH2C2SCHCH2CHC2NC2H2CHNC4NC3FeCH2FeCHC2H5SH4C3H2C2SH4CNHCH9C2HCNFeS2FeSHFeSFeS3H6SH2NCSC2SFeSFeSCSNC6H3C3HC2H3CHC3HC6H4SCH7C2HC2HC4HSCFeHCH3CH2C6H5CH2SH2CNHSC2HSHC2HCSFeS2FeS2FeSFeS3H2C2HCHC2NFeH5CH3CHC6H6CHCH2C4H2C3NC2H3C4HSHCHSC4FeSHFeSHFeSFeS3HSFeS2HC6H4C3H3FeSH2CHC3H2CHCHNHC4H4NH2C2HC2HC2HCHNCS2HCHC2H2FeCSCSCHSCNHCSHCNH2C2FeS2FeS2FeSFeS3FeS2FeSCFeSFeS3C7H2FeHCHNC6H4C3H2C2H2CH5C4HCNC2H4C2SH2C7H4C5H6NC6H5FeHCSC2H5CH2CFeCHC2SCNHC3H3SC2HCSH3CH3C2FeHCHFeCHCSHCSHCH3CHCHCHSFeS2FeSFeHFeCS3FeCFe2CSH2C2SC6H5CHC3HC2H2C6H2NHNHC3SH4CH6SCH3CHS2C2SH3CSH3NH2CH2NHSFeS2FeS2FeSFeS3H3SHC2HC3HCNC6H3CH2C7SC3FeH2C6H5CH3CH3NHCHCHC2HCH2C2HCH3SHCH2C3HCH2CH3CFeH2CFeSCSHS2HCHSFeSFeSFeS2FeSCFeSFeH2C6H2CH2NC3H4C7H2NH2CNC6H3CH3CH2N2H3CH2CH2CH3FeS2NCFeSHFeCNC3HCH5CSCHCSHSHCS3FeHCSCH2CH3SCHNCSH2C3FeC2SHFeCH3CSHCH2SHSHC3H2CFeCHSCH2FeCHS2C4H3C4FeCSH2C2H3CHSH3SCHC2NFeCHCHFeH5CHSHC3HSCH2FeSC2H3C2H2CH3C3HCSFeC2HCHCH2C2NHCH7FeSCFeS2FeSFeS3HFeS3FeHSHCH2FeS2FeSFeSFeS3FeS2FeS2FeSHSH2C2HFeC4FeCH2C8H5CHSHC6H4C6H4C7H4CFe2CHNC3HC2H7SHSHC2H2FeCSHCHCHSCH3CHNC4HCH2C2SH3CFeC3HSC2HSHCHC2H2FeHSCNH2C4S2CHNHNCSCSCHFeHC2HSH3SHC3HSC2H3CH3C2HFeC3H3C4HNH2FeH2CHCHSHCHNC3SFeS2FeSFeSFeS2FeS2FeCFeS3FeS2FeS2FeSFeS5C6HNH2C3H2C6H4C6H4C9H4C6H4SC3H3NC6H5C2H2CH4CHCSCH3NHNHC2H4CH2C2H3C4H2C3H2C2H2CHCHCHC2NH2FeCH2C2NHCH3CSC4SNH4NHCH2C2HCSH4CNCHCH3C3H2CH3CH3CFeCH3NC3HSFeHSH2CH2CHCH4SCHSC3SHS2CHC2H2NCHFeS2FeSFeSFeNS2H2CFeCFeS2FeS2FeSFeS3C6H2C8HCH2CHSHSC6H4C2H2C6H5C3SC4H3C2HC2H3C3H2CH3NCH4SFeHSHSH3CFeCH2C2HC4H2NH2CFeHCHCHCH2SHFeS2CHS2HCHS2HSHCHCNCHSHC2HSCFeSHCNSC6HC2HC5HFeHFeH4C2H4CFeHCSHC3FeHCHC2HCHCNCH2CH5CHFe2H2CSCHSCH3C7HNCHSC3H3SHSFeS2FeS2FeSFeS3CHC6HCH2CHC3HCHC6H4C2HC2HSCHCH3NCH3CH2CHC2HFeC3HCHNC4H3NHCH2C6H3CH5CH2CNH2CH3CFeCH2CHSHCSCSH2FeHSHC2HC3HCS2HSC4H3C3SNCSFeCH3FeSH2C2NCHCH2CNCSHCHCFeSCH2CSH4CHC2H4NC2H2C2FeH
_chemical_formula_sum              "Fe144 S288 C864 H864 N72"
_cell_length_a       53.3319
_cell_length_b       53.5663
_cell_length_c       55.2785
_cell_angle_alpha    88.6719
_cell_angle_beta     91.281
_cell_angle_gamma    117.565

_space_group_name_H-M_alt    "P 1"
_space_group_IT_number       1

loop_
  _space_group_symop_operation_xyz
  'x, y, z'

loop_
  _atom_site_type_symbol
  _atom_site_label
  _atom_site_symmetry_multiplicity
  _atom_site_fract_x
  _atom_site_fract_y
  _atom_site_fract_z
  _atom_site_occupancy
  Fe  Fe1       1.0  0.36057  0.35538  0.12763  1.0000
  S   S1        1.0  0.33437  0.32791  0.15862  1.0000
  S   S2        1.0  0.36362  0.39751  0.11556  1.0000
  Fe  Fe2       1.0  0.38748  0.31820  0.11863  1.0000
  S   S3        1.0  0.36432  0.28809  0.14840  1.0000
  S   S4        1.0  0.41933  0.31322  0.09635  1.0000
  Fe  Fe3       1.0  0.32629  0.29160  0.13437  1.0000
  S   S5        1.0  0.29004  0.24804  0.12781  1.0000
  Fe  Fe4       1.0  0.37447  0.32626  0.17043  1.0000
  S   S6        1.0  0.38650  0.32438  0.21007  1.0000
  S   S7        1.0  0.34922  0.31922  0.10255  1.0000
  S   S8        1.0  0.40100  0.35635  0.14153  1.0000
  Fe  Fe5       1.0  0.33323  0.18594  0.01377  1.0000
  S   S9        1.0  0.37293  0.20106  0.03636  1.0000
  C   C1        1.0  0.40801  0.35957  0.05162  1.0000
  C   C2        1.0  0.47208  0.36904  0.22001  1.0000
  C   C3        1.0  0.18388  0.06425  0.99907  1.0000
  S   S10       1.0  0.29051  0.15845  0.02911  1.0000
  Fe  Fe6       1.0  0.09845  0.09575  0.14436  1.0000
  S   S11       1.0  0.08604  0.13030  0.14223  1.0000
  S   S12       1.0  0.08972  0.06942  0.17847  1.0000
  Fe  Fe7       1.0  0.12008  0.10726  0.09314  1.0000
  S   S13       1.0  0.10936  0.14291  0.08681  1.0000
  S   S14       1.0  0.14225  0.09226  0.06760  1.0000
  Fe  Fe8       1.0  0.12797  0.15563  0.12429  1.0000
  S   S15       1.0  0.15717  0.19990  0.13689  1.0000
  Fe  Fe9       1.0  0.06840  0.11401  0.10516  1.0000
  S   S16       1.0  0.02287  0.10539  0.09774  1.0000
  S   S17       1.0  0.14138  0.12197  0.12915  1.0000
  S   S18       1.0  0.07800  0.07741  0.10879  1.0000
  C   C4        1.0  0.41766  0.37751  0.07135  1.0000
  H   H1        1.0  0.15355  0.01991  0.02595  1.0000
  C   C5        1.0  0.01627  0.09675  0.04801  1.0000
  H   H2        1.0  0.40078  0.33712  0.05426  1.0000
  H   H3        1.0  0.33857  0.07476  0.00704  1.0000
  H   H4        1.0  0.03894  0.10459  0.04740  1.0000
  H   H5        1.0  0.11679  0.04999  0.10571  1.0000
  C   C6        1.0  0.24205  0.06411  0.02717  1.0000
  C   C7        1.0  0.22958  0.03452  0.02835  1.0000
  C   C8        1.0  0.22151  0.06343  0.06616  1.0000
  C   C9        1.0  0.23776  0.07847  0.04613  1.0000
  H   H6        1.0  0.46618  0.31388  0.21164  1.0000
  H   H7        1.0  0.38112  0.45108  0.09183  1.0000
  H   H8        1.0  0.24709  0.10117  0.04549  1.0000
  C   C10       1.0  0.21370  0.16448  0.02706  1.0000
  C   C11       1.0  0.19018  0.16729  0.03433  1.0000
  C   C12       1.0  0.16845  0.14544  0.04730  1.0000
  C   C13       1.0  0.17009  0.12063  0.05289  1.0000
  C   C14       1.0  0.19347  0.11774  0.04542  1.0000
  C   C15       1.0  0.21508  0.13949  0.03234  1.0000
  H   H9        1.0  0.18878  0.18641  0.02996  1.0000
  H   H10       1.0  0.15018  0.14761  0.05245  1.0000
  H   H11       1.0  0.19477  0.09855  0.04953  1.0000
  H   H12       1.0  0.40014  0.35684  0.01312  1.0000
  C   C16       1.0  0.25350  0.23493  0.13286  1.0000
  C   C17       1.0  0.24189  0.25200  0.14061  1.0000
  C   C18       1.0  0.21229  0.24087  0.14231  1.0000
  C   C19       1.0  0.19423  0.21278  0.13612  1.0000
  C   C20       1.0  0.20597  0.19564  0.12896  1.0000
  C   C21       1.0  0.23545  0.20663  0.12751  1.0000
  H   H13       1.0  0.25563  0.27381  0.14487  1.0000
  H   H14       1.0  0.20335  0.25423  0.14801  1.0000
  H   H15       1.0  0.19242  0.17411  0.12394  1.0000
  H   H16       1.0  0.24430  0.19332  0.12148  1.0000
  C   C22       1.0  0.40536  0.28224  0.07931  1.0000
  C   C23       1.0  0.42394  0.27289  0.07072  1.0000
  C   C24       1.0  0.41362  0.24801  0.05753  1.0000
  C   C25       1.0  0.38474  0.23272  0.05215  1.0000
  C   C26       1.0  0.36599  0.24222  0.06037  1.0000
  C   C27       1.0  0.37628  0.26683  0.07429  1.0000
  H   H17       1.0  0.44639  0.28470  0.07450  1.0000
  H   H18       1.0  0.42815  0.24072  0.05126  1.0000
  H   H19       1.0  0.34362  0.23026  0.05646  1.0000
  H   H20       1.0  0.36179  0.27385  0.08106  1.0000
  C   C28       1.0  0.42110  0.34016  0.22279  1.0000
  C   C29       1.0  0.44484  0.35796  0.20934  1.0000
  H   H21       1.0  0.44222  0.36306  0.19071  1.0000
  H   H22       1.0  0.34915  0.37868  0.02829  1.0000
  C   C30       1.0  0.37416  0.43527  0.07794  1.0000
  C   C31       1.0  0.35624  0.39458  0.04212  1.0000
  C   C32       1.0  0.35550  0.38652  0.06658  1.0000
  C   C33       1.0  0.36444  0.40683  0.08461  1.0000
  H   H23       1.0  0.19371  0.18925  0.18935  1.0000
  C   C34       1.0  0.36634  0.42300  0.03542  1.0000
  H   H24       1.0  0.34772  0.36458  0.07148  1.0000
  H   H25       1.0  0.41788  0.36904  0.08932  1.0000
  C   C35       1.0  0.16879  0.09074  0.20455  1.0000
  C   C36       1.0  0.14620  0.08663  0.18878  1.0000
  C   C37       1.0  0.11877  0.07613  0.19773  1.0000
  C   C38       1.0  0.11411  0.07000  0.22247  1.0000
  C   C39       1.0  0.00335  0.09534  0.07011  1.0000
  H   H26       1.0  0.18994  0.09863  0.19755  1.0000
  H   H27       1.0  0.14995  0.09098  0.16966  1.0000
  H   H28       1.0  0.27641  0.43250  0.99505  1.0000
  C   C40       1.0  0.99982  0.08840  0.02655  1.0000
  H   H29       1.0  0.09297  0.06208  0.22947  1.0000
  H   H30       1.0  0.17835  0.01283  0.17342  1.0000
  H   H31       1.0  0.34366  0.15315  0.06932  1.0000
  C   C41       1.0  0.16416  0.08503  0.22940  1.0000
  H   H32       1.0  0.28145  0.06601  0.07474  1.0000
  N   N1        1.0  0.30732  0.46557  0.01592  1.0000
  H   H33       1.0  0.16660  0.05886  0.10341  1.0000
  C   C42       1.0  0.11074  0.14046  0.21107  1.0000
  S   S19       1.0  0.18933  0.01643  0.09342  1.0000
  C   C43       1.0  0.37531  0.44339  0.05341  1.0000
  H   H34       1.0  0.33841  0.46695  0.07027  1.0000
  N   N2        1.0  0.26679  0.24409  0.06897  1.0000
  C   C44       1.0  0.26998  0.26995  0.07531  1.0000
  C   C45       1.0  0.24061  0.22120  0.06898  1.0000
  C   C46       1.0  0.24645  0.27348  0.08126  1.0000
  C   C47       1.0  0.21659  0.22401  0.07454  1.0000
  C   C48       1.0  0.21958  0.25032  0.08078  1.0000
  C   C49       1.0  0.29161  0.24028  0.06360  1.0000
  H   H35       1.0  0.29086  0.28782  0.07647  1.0000
  H   H36       1.0  0.23834  0.20051  0.06518  1.0000
  H   H37       1.0  0.24914  0.29383  0.08691  1.0000
  H   H38       1.0  0.19593  0.20567  0.07497  1.0000
  H   H39       1.0  0.20120  0.25246  0.08607  1.0000
  H   H40       1.0  0.28707  0.22596  0.04803  1.0000
  H   H41       1.0  0.31015  0.26055  0.05877  1.0000
  H   H42       1.0  0.29734  0.23108  0.07970  1.0000
  C   C50       1.0  0.32831  0.47315  0.05575  1.0000
  C   C51       1.0  0.29887  0.08306  0.06535  1.0000
  H   H43       1.0  0.18833  0.04532  0.13789  1.0000
  C   C52       1.0  0.11090  0.03162  0.14159  1.0000
  C   C53       1.0  0.21298  0.01943  0.04829  1.0000
  H   H44       1.0  0.43426  0.42011  0.08330  1.0000
  N   N3        1.0  0.16025  0.15445  0.20673  1.0000
  C   C54       1.0  0.16199  0.14763  0.23053  1.0000
  N   N4        1.0  0.32897  0.09989  0.03069  1.0000
  H   H45       1.0  0.18021  0.15655  0.17332  1.0000
  H   H46       1.0  0.41385  0.27322  0.13568  1.0000
  C   C55       1.0  0.34190  0.12643  0.04001  1.0000
  C   C56       1.0  0.31183  0.11008  0.07493  1.0000
  S   S20       1.0  0.24177  0.19279  0.01246  1.0000
  C   C57       1.0  0.46737  0.31617  0.17284  1.0000
  H   H47       1.0  0.08928  0.02819  0.14300  1.0000
  C   C58       1.0  0.40778  0.37065  0.02857  1.0000
  H   H48       1.0  0.38333  0.46539  0.04842  1.0000
  H   H49       1.0  0.41698  0.40815  0.00763  1.0000
  C   C59       1.0  0.41747  0.39969  0.02558  1.0000
  H   H50       1.0  0.43480  0.45761  0.05750  1.0000
  C   C60       1.0  0.41327  0.27144  0.17482  1.0000
  C   C61       1.0  0.14831  0.03730  0.02953  1.0000
  N   N5        1.0  0.42777  0.28287  0.19579  1.0000
  C   C62       1.0  0.16464  0.02180  0.17986  1.0000
  C   C63       1.0  0.14802  0.07725  0.00717  1.0000
  H   H51       1.0  0.21857  0.07485  0.08081  1.0000
  H   H52       1.0  0.35854  0.14366  0.03013  1.0000
  C   C64       1.0  0.20901  0.03387  0.06738  1.0000
  H   H53       1.0  0.42782  0.45259  0.02577  1.0000
  N   N6        1.0  0.15113  0.02889  0.15933  1.0000
  C   C65       1.0  0.12371  0.02419  0.16085  1.0000
  C   C66       1.0  0.16656  0.04150  0.13913  1.0000
  C   C67       1.0  0.18546  0.16610  0.19156  1.0000
  C   C68       1.0  0.15442  0.04922  0.11956  1.0000
  N   N7        1.0  0.42688  0.41713  0.04507  1.0000
  C   C69       1.0  0.33681  0.09463  0.00678  1.0000
  C   C70       1.0  0.31964  0.45760  0.03444  1.0000
  C   C71       1.0  0.11226  0.13323  0.23529  1.0000
  Fe  Fe10      1.0  0.27600  0.18172  0.00271  1.0000
  C   C72       1.0  0.45465  0.30471  0.19504  1.0000
  H   H54       1.0  0.23269  0.02317  0.01374  1.0000
  H   H55       1.0  0.46192  0.31366  0.13395  1.0000
  Fe  Fe11      1.0  0.28414  0.13019  0.99785  1.0000
  C   C73       1.0  0.42555  0.28205  0.15232  1.0000
  H   H56       1.0  0.11164  0.01487  0.17708  1.0000
  C   C74       1.0  0.13518  0.15144  0.19706  1.0000
  C   C75       1.0  0.42708  0.40640  0.06776  1.0000
  H   H57       1.0  0.15732  0.04616  0.04756  1.0000
  H   H58       1.0  0.42799  0.28259  0.23464  1.0000
  H   H59       1.0  0.01508  0.04966  0.09207  1.0000
  H   H60       1.0  0.12491  0.02813  0.03029  1.0000
  H   H61       1.0  0.29132  0.49375  0.00415  1.0000
  S   S21       1.0  0.36784  0.43198  0.00437  1.0000
  H   H62       1.0  0.23259  0.13668  0.02617  1.0000
  H   H63       1.0  0.32307  0.43929  0.03267  1.0000
  H   H64       1.0  0.18181  0.14993  0.23829  1.0000
  H   H65       1.0  0.30479  0.11418  0.09195  1.0000
  C   C76       1.0  0.30201  0.48803  0.01847  1.0000
  C   C77       1.0  0.12638  0.04412  0.12081  1.0000
  C   C78       1.0  0.45262  0.30477  0.15136  1.0000
  H   H66       1.0  0.13402  0.15749  0.17835  1.0000
  H   H67       1.0  0.39183  0.25436  0.17541  1.0000
  C   C79       1.0  0.33358  0.13192  0.06226  1.0000
  C   C80       1.0  0.41398  0.27163  0.21902  1.0000
  S   S22       1.0  0.26246  0.08227  0.00162  1.0000
  H   H68       1.0  0.09077  0.13749  0.20314  1.0000
  H   H69       1.0  0.39474  0.27462  0.22026  1.0000
  H   H70       1.0  0.29666  0.05756  0.03518  1.0000
  H   H71       1.0  0.20243  0.16175  0.19944  1.0000
  C   C81       1.0  0.30767  0.07835  0.04302  1.0000
  N   N8        1.0  0.15989  0.05965  0.01099  1.0000
  H   H72       1.0  0.12948  0.07415  0.01716  1.0000
  C   C82       1.0  0.43837  0.44764  0.04141  1.0000
  H   H73       1.0  0.01002  0.08984  0.00949  1.0000
  H   H74       1.0  0.46142  0.45726  0.03797  1.0000
  H   H75       1.0  0.19327  0.05030  0.00197  1.0000
  H   H76       1.0  0.40781  0.24884  0.22075  1.0000
  H   H77       1.0  0.49034  0.38275  0.20947  1.0000
  H   H78       1.0  0.35744  0.11195  0.00084  1.0000
  H   H79       1.0  0.00989  0.04722  0.13640  1.0000
  H   H80       1.0  0.14872  0.00559  0.19192  1.0000
  H   H81       1.0  0.17755  0.04094  0.19062  1.0000
  C   C83       1.0  0.13678  0.07486  0.23830  1.0000
  C   C84       1.0  0.32413  0.49685  0.05805  1.0000
  H   H82       1.0  0.48836  0.33402  0.17235  1.0000
  C   C85       1.0  0.29863  0.44921  0.99363  1.0000
  N   N9        1.0  0.47098  0.42046  0.30522  1.0000
  Fe  Fe12      1.0  0.17148  0.07278  0.33979  1.0000
  S   S23       1.0  0.17071  0.11155  0.35354  1.0000
  S   S24       1.0  0.15925  0.03627  0.36569  1.0000
  Fe  Fe13      1.0  0.18580  0.09607  0.28830  1.0000
  S   S25       1.0  0.18719  0.13689  0.29827  1.0000
  H   H83       1.0  0.26845  0.12445  0.44896  1.0000
  Fe  Fe14      1.0  0.21050  0.13467  0.33207  1.0000
  S   S26       1.0  0.25148  0.17235  0.34370  1.0000
  Fe  Fe15      1.0  0.14760  0.10970  0.31854  1.0000
  S   S27       1.0  0.10792  0.11311  0.31030  1.0000
  S   S28       1.0  0.21261  0.09575  0.32024  1.0000
  S   S29       1.0  0.14503  0.06896  0.30687  1.0000
  H   H84       1.0  0.40659  0.32018  0.25757  1.0000
  H   H85       1.0  0.28319  0.10536  0.36060  1.0000
  H   H86       1.0  0.09203  0.00385  0.35348  1.0000
  H   H87       1.0  0.48273  0.25851  0.41429  1.0000
  H   H88       1.0  0.04872  0.08848  0.29743  1.0000
  H   H89       1.0  0.06309  0.02001  0.31049  1.0000
  S   S30       1.0  0.00400  0.49929  0.31854  1.0000
  H   H90       1.0  0.23219  0.22008  0.41188  1.0000
  H   H91       1.0  0.23777  0.22204  0.36719  1.0000
  N   N10       1.0  0.30488  0.26768  0.38348  1.0000
  C   C86       1.0  0.21734  0.08258  0.40925  1.0000
  S   S31       1.0  0.37459  0.26086  0.43633  1.0000
  C   C87       1.0  0.10084  0.00626  0.26907  1.0000
  C   C88       1.0  0.48751  0.21602  0.46195  1.0000
  S   S32       1.0  0.33296  0.27580  0.47088  1.0000
  Fe  Fe16      1.0  0.33822  0.23786  0.46159  1.0000
  S   S33       1.0  0.29806  0.19800  0.45193  1.0000
  Fe  Fe17      1.0  0.37121  0.29898  0.44762  1.0000
  S   S34       1.0  0.37170  0.33034  0.41970  1.0000
  C   C89       1.0  0.05117  0.07657  0.31255  1.0000
  S   S35       1.0  0.19274  0.09071  0.24898  1.0000
  N   N11       1.0  0.26073  0.11204  0.38880  1.0000
  C   C90       1.0  0.44606  0.35437  0.38491  1.0000
  C   C91       1.0  0.42055  0.33785  0.39714  1.0000
  C   C92       1.0  0.40436  0.35030  0.40550  1.0000
  C   C93       1.0  0.41364  0.37908  0.40160  1.0000
  C   C94       1.0  0.43941  0.39564  0.39018  1.0000
  C   C95       1.0  0.23312  0.09164  0.38806  1.0000
  H   H92       1.0  0.41309  0.31547  0.39969  1.0000
  H   H93       1.0  0.40114  0.38875  0.40790  1.0000
  H   H94       1.0  0.00653  0.04755  0.31440  1.0000
  C   C96       1.0  0.46189  0.25152  0.46715  1.0000
  C   C97       1.0  0.44507  0.22259  0.46382  1.0000
  C   C98       1.0  0.45788  0.20489  0.46130  1.0000
  H   H95       1.0  0.46896  0.27026  0.38877  1.0000
  C   C99       1.0  0.44556  0.40064  0.31813  1.0000
  C   C100      1.0  0.49143  0.26253  0.46778  1.0000
  H   H96       1.0  0.45083  0.30596  0.41953  1.0000
  H   H97       1.0  0.44479  0.18253  0.45889  1.0000
  H   H98       1.0  0.00366  0.46208  0.26421  1.0000
  C   C101      1.0  0.03033  0.03844  0.34206  1.0000
  H   H99       1.0  0.22300  0.08231  0.37102  1.0000
  C   C102      1.0  0.07814  0.08430  0.32249  1.0000
  C   C103      1.0  0.08121  0.06884  0.34204  1.0000
  C   C104      1.0  0.05730  0.04624  0.35203  1.0000
  H   H100      1.0  0.10195  0.07478  0.34985  1.0000
  C   C105      1.0  0.26397  0.17857  0.37393  1.0000
  C   C106      1.0  0.29259  0.19724  0.37838  1.0000
  C   C107      1.0  0.30320  0.20370  0.40218  1.0000
  C   C108      1.0  0.28523  0.19150  0.42178  1.0000
  C   C109      1.0  0.25656  0.17286  0.41735  1.0000
  C   C110      1.0  0.24595  0.16629  0.39351  1.0000
  H   H101      1.0  0.30664  0.20685  0.36330  1.0000
  H   H102      1.0  0.32533  0.21793  0.40537  1.0000
  H   H103      1.0  0.24251  0.16341  0.43244  1.0000
  H   H104      1.0  0.22381  0.15205  0.39030  1.0000
  S   S36       1.0  0.44772  0.27544  0.46892  1.0000
  C   C111      1.0  0.28208  0.25223  0.36884  1.0000
  H   H105      1.0  0.21796  0.08777  0.44786  1.0000
  H   H106      1.0  0.26374  0.12431  0.35168  1.0000
  H   H107      1.0  0.13304  0.07074  0.25739  1.0000
  H   H108      1.0  0.44672  0.41804  0.38785  1.0000
  H   H109      1.0  0.42647  0.39360  0.30627  1.0000
  H   H110      1.0  0.18237  0.02696  0.32186  1.0000
  H   H111      1.0  0.45843  0.34479  0.37818  1.0000
  C   C112      1.0  0.27676  0.12128  0.36631  1.0000
  C   C113      1.0  0.15568  0.00550  0.35210  1.0000
  H   H112      1.0  0.45049  0.26064  0.41727  1.0000
  C   C114      1.0  0.25243  0.23395  0.40387  1.0000
  C   C115      1.0  0.45569  0.38341  0.38183  1.0000
  H   H113      1.0  0.07885  0.03149  0.26825  1.0000
  C   C116      1.0  0.25841  0.11466  0.43199  1.0000
  C   C117      1.0  0.25553  0.23512  0.37880  1.0000
  C   C118      1.0  0.27569  0.25010  0.41861  1.0000
  C   C119      1.0  0.27357  0.12320  0.41044  1.0000
  H   H114      1.0  0.19532  0.06664  0.40841  1.0000
  S   S37       1.0  0.48787  0.40541  0.36770  1.0000
  C   C120      1.0  0.45207  0.34471  0.25760  1.0000
  Fe  Fe18      1.0  0.40243  0.26875  0.46950  1.0000
  H   H115      1.0  0.28439  0.25237  0.34938  1.0000
  C   C121      1.0  0.30185  0.26713  0.40801  1.0000
  H   H116      1.0  0.45463  0.33935  0.27616  1.0000
  H   H117      1.0  0.29589  0.14197  0.36837  1.0000
  H   H118      1.0  0.27373  0.24894  0.43816  1.0000
  C   C122      1.0  0.02730  0.05343  0.32214  1.0000
  H   H119      1.0  0.45865  0.39674  0.27276  1.0000
  H   H120      1.0  0.29539  0.13954  0.41112  1.0000
  C   C123      1.0  0.08421  0.01728  0.27887  1.0000
  C   C124      1.0  0.47166  0.27098  0.40875  1.0000
  C   C125      1.0  0.23007  0.09432  0.43132  1.0000
  C   C126      1.0  0.07538  0.01074  0.30287  1.0000
  C   C127      1.0  0.47373  0.31577  0.42046  1.0000
  C   C128      1.0  0.33272  0.28550  0.37303  1.0000
  H   H121      1.0  0.31986  0.27959  0.41954  1.0000
  H   H122      1.0  0.34947  0.28296  0.38354  1.0000
  H   H123      1.0  0.33389  0.28005  0.35398  1.0000
  H   H124      1.0  0.33753  0.30801  0.37381  1.0000
  H   H125      1.0  0.05973  0.03486  0.36757  1.0000
  C   C129      1.0  0.42486  0.33387  0.24702  1.0000
  H   H126      1.0  0.44196  0.41030  0.33443  1.0000
  H   H127      1.0  0.44807  0.38201  0.32430  1.0000
  S   S38       1.0  0.48788  0.34782  0.32442  1.0000
  H   H128      1.0  0.48891  0.44733  0.33554  1.0000
  H   H129      1.0  0.42228  0.21390  0.46319  1.0000
  C   C130      1.0  0.47471  0.41503  0.28189  1.0000
  N   N12       1.0  0.48765  0.30032  0.41641  1.0000
  H   H130      1.0  0.13930  0.13130  0.26394  1.0000
  S   S39       1.0  0.40173  0.30918  0.47872  1.0000
  C   C131      1.0  0.16936  0.00681  0.33045  1.0000
  C   C132      1.0  0.49153  0.44328  0.31687  1.0000
  H   H131      1.0  0.10849  0.01179  0.25069  1.0000
  S   S40       1.0  0.00105  0.00953  0.35469  1.0000
  H   H132      1.0  0.09353  0.12462  0.24646  1.0000
  C   C133      1.0  0.47584  0.36233  0.24413  1.0000
  C   C134      1.0  0.13805  0.13701  0.24515  1.0000
  H   H133      1.0  0.47750  0.35625  0.42995  1.0000
  C   C135      1.0  0.48872  0.34420  0.42655  1.0000
  S   S41       1.0  0.36044  0.29278  0.54100  1.0000
  Fe  Fe19      1.0  0.37250  0.42187  0.67170  1.0000
  S   S42       1.0  0.33636  0.40881  0.69707  1.0000
  S   S43       1.0  0.41650  0.44902  0.68540  1.0000
  Fe  Fe20      1.0  0.33549  0.39419  0.62764  1.0000
  S   S44       1.0  0.29574  0.38029  0.64912  1.0000
  S   S45       1.0  0.33462  0.38634  0.58719  1.0000
  Fe  Fe21      1.0  0.31650  0.42267  0.66709  1.0000
  S   S46       1.0  0.29832  0.45295  0.67315  1.0000
  Fe  Fe22      1.0  0.31910  0.36798  0.67737  1.0000
  S   S47       1.0  0.29669  0.32484  0.69392  1.0000
  S   S48       1.0  0.35388  0.43796  0.64246  1.0000
  S   S49       1.0  0.35755  0.37946  0.65501  1.0000
  H   H134      1.0  0.37749  0.44358  0.57148  1.0000
  H   H135      1.0  0.29671  0.27842  0.66377  1.0000
  C   C136      1.0  0.29234  0.46290  0.70206  1.0000
  C   C137      1.0  0.28420  0.48433  0.70357  1.0000
  H   H136      1.0  0.35241  0.35603  0.71673  1.0000
  C   C138      1.0  0.35875  0.32504  0.73825  1.0000
  H   H137      1.0  0.40724  0.40299  0.72386  1.0000
  C   C139      1.0  0.29544  0.45002  0.72344  1.0000
  C   C140      1.0  0.32071  0.27734  0.73622  1.0000
  N   N13       1.0  0.30405  0.29328  0.62740  1.0000
  Fe  Fe23      1.0  0.36390  0.28271  0.50146  1.0000
  H   H138      1.0  0.30140  0.43334  0.72254  1.0000
  H   H139      1.0  0.31183  0.25533  0.74144  1.0000
  H   H140      1.0  0.27502  0.33235  0.60241  1.0000
  H   H141      1.0  0.27830  0.30840  0.56551  1.0000
  H   H142      1.0  0.32500  0.27487  0.64957  1.0000
  C   C141      1.0  0.29261  0.31146  0.62590  1.0000
  H   H143      1.0  0.29128  0.32210  0.64191  1.0000
  H   H144      1.0  0.44190  0.47887  0.64228  1.0000
  H   H145      1.0  0.29840  0.27478  0.56858  1.0000
  C   C142      1.0  0.42037  0.48272  0.69123  1.0000
  H   H146      1.0  0.31521  0.26575  0.60816  1.0000
  C   C143      1.0  0.35655  0.32144  0.55261  1.0000
  C   C144      1.0  0.36213  0.32767  0.57735  1.0000
  C   C145      1.0  0.35621  0.34797  0.58808  1.0000
  C   C146      1.0  0.34463  0.36231  0.57413  1.0000
  C   C147      1.0  0.33996  0.35681  0.54923  1.0000
  C   C148      1.0  0.34584  0.33646  0.53850  1.0000
  H   H147      1.0  0.37048  0.31622  0.58839  1.0000
  H   H148      1.0  0.36006  0.35202  0.60721  1.0000
  H   H149      1.0  0.33114  0.36787  0.53824  1.0000
  H   H150      1.0  0.34141  0.33188  0.51946  1.0000
  H   H151      1.0  0.48029  0.24363  0.68329  1.0000
  H   H152      1.0  0.43241  0.43346  0.62445  1.0000
  C   C149      1.0  0.30536  0.28646  0.72080  1.0000
  H   H153      1.0  0.28170  0.49439  0.68714  1.0000
  C   C150      1.0  0.31452  0.28850  0.65090  1.0000
  H   H154      1.0  0.33018  0.30892  0.65866  1.0000
  H   H155      1.0  0.38675  0.48862  0.59033  1.0000
  C   C151      1.0  0.30568  0.27978  0.60721  1.0000
  C   C152      1.0  0.39753  0.47704  0.59741  1.0000
  C   C153      1.0  0.28472  0.30349  0.58299  1.0000
  C   C154      1.0  0.39220  0.45163  0.58667  1.0000
  H   H156      1.0  0.28463  0.27146  0.71428  1.0000
  H   H157      1.0  0.40005  0.41564  0.58863  1.0000
  C   C155      1.0  0.29595  0.28460  0.58474  1.0000
  C   C156      1.0  0.27912  0.49279  0.72614  1.0000
  C   C157      1.0  0.40484  0.43585  0.59636  1.0000
  N   N14       1.0  0.41520  0.48660  0.61715  1.0000
  C   C158      1.0  0.28295  0.31699  0.60369  1.0000
  C   C159      1.0  0.42293  0.44582  0.61641  1.0000
  H   H158      1.0  0.37693  0.47217  0.68290  1.0000
  H   H159      1.0  0.48586  0.21710  0.66845  1.0000
  H   H160      1.0  0.48187  0.30990  0.70695  1.0000
  C   C160      1.0  0.39750  0.48859  0.68805  1.0000
  C   C161      1.0  0.42809  0.47150  0.62651  1.0000
  C   C162      1.0  0.31670  0.31477  0.71373  1.0000
  C   C163      1.0  0.34353  0.33415  0.72230  1.0000
  H   H161      1.0  0.46424  0.49950  0.70189  1.0000
  S   S50       1.0  0.36636  0.24250  0.49422  1.0000
  H   H162      1.0  0.43509  0.46591  0.74246  1.0000
  C   C164      1.0  0.41139  0.40968  0.74303  1.0000
  H   H163      1.0  0.29758  0.22945  0.90744  1.0000
  S   S51       1.0  0.36559  0.28388  0.76444  1.0000
  C   C165      1.0  0.33590  0.27989  0.85084  1.0000
  C   C166      1.0  0.31983  0.23683  0.82865  1.0000
  C   C167      1.0  0.44923  0.44921  0.79637  1.0000
  C   C168      1.0  0.35547  0.43072  0.75669  1.0000
  Fe  Fe24      1.0  0.46355  0.34268  0.79833  1.0000
  S   S52       1.0  0.45876  0.36635  0.82981  1.0000
  H   H164      1.0  0.34840  0.27772  0.81440  1.0000
  Fe  Fe25      1.0  0.40162  0.31608  0.78604  1.0000
  S   S53       1.0  0.39184  0.33751  0.81578  1.0000
  H   H165      1.0  0.28433  0.19788  0.89070  1.0000
  Fe  Fe26      1.0  0.43093  0.37605  0.80437  1.0000
  S   S54       1.0  0.42428  0.41487  0.80504  1.0000
  Fe  Fe27      1.0  0.41984  0.32585  0.83903  1.0000
  S   S55       1.0  0.40631  0.31354  0.87826  1.0000
  S   S56       1.0  0.43834  0.35545  0.77219  1.0000
  S   S57       1.0  0.42710  0.30148  0.80987  1.0000
  H   H166      1.0  0.48004  0.43785  0.78280  1.0000
  S   S58       1.0  0.26741  0.15215  0.97206  1.0000
  Fe  Fe28      1.0  0.31261  0.18094  0.96163  1.0000
  S   S59       1.0  0.32551  0.19140  0.92204  1.0000
  S   S60       1.0  0.36025  0.47887  0.95454  1.0000
  H   H167      1.0  0.29183  0.19915  0.84782  1.0000
  C   C169      1.0  0.38566  0.27911  0.89050  1.0000
  C   C170      1.0  0.37726  0.25483  0.87676  1.0000
  C   C171      1.0  0.35952  0.22808  0.88690  1.0000
  C   C172      1.0  0.35012  0.22523  0.91089  1.0000
  C   C173      1.0  0.35891  0.24946  0.92472  1.0000
  C   C174      1.0  0.37654  0.27620  0.91457  1.0000
  H   H168      1.0  0.38422  0.25669  0.85827  1.0000
  H   H169      1.0  0.35290  0.20949  0.87603  1.0000
  H   H170      1.0  0.35186  0.24767  0.94317  1.0000
  H   H171      1.0  0.38300  0.29479  0.92540  1.0000
  C   C175      1.0  0.28191  0.47970  0.74748  1.0000
  C   C176      1.0  0.49435  0.48276  0.77957  1.0000
  C   C177      1.0  0.44302  0.47148  0.80053  1.0000
  H   H172      1.0  0.42328  0.46729  0.80891  1.0000
  H   H173      1.0  0.26604  0.21920  0.88884  1.0000
  H   H174      1.0  0.43836  0.40139  0.86481  1.0000
  Fe  Fe29      1.0  0.38265  0.47610  0.98865  1.0000
  S   S61       1.0  0.27705  0.49037  0.77643  1.0000
  H   H175      1.0  0.34895  0.30248  0.85222  1.0000
  H   H176      1.0  0.31996  0.22599  0.81234  1.0000
  C   C178      1.0  0.30404  0.22187  0.84874  1.0000
  H   H177      1.0  0.19606  0.12437  0.96826  1.0000
  C   C179      1.0  0.39949  0.47274  0.75012  1.0000
  C   C180      1.0  0.34731  0.29654  0.74510  1.0000
  C   C181      1.0  0.33584  0.26601  0.82978  1.0000
  H   H178      1.0  0.35992  0.47276  0.75714  1.0000
  H   H179      1.0  0.15186  0.11521  0.98942  1.0000
  C   C182      1.0  0.37062  0.46001  0.75497  1.0000
  H   H180      1.0  0.47493  0.43527  0.83986  1.0000
  C   C183      1.0  0.31988  0.26430  0.87058  1.0000
  H   H181      1.0  0.32065  0.27521  0.88708  1.0000
  N   N15       1.0  0.30439  0.23564  0.86940  1.0000
  H   H182      1.0  0.41154  0.49548  0.74850  1.0000
  C   C184      1.0  0.28709  0.21978  0.89003  1.0000
  C   C185      1.0  0.47500  0.45487  0.78592  1.0000
  C   C186      1.0  0.36944  0.41451  0.75320  1.0000
  C   C187      1.0  0.43102  0.41697  0.86965  1.0000
  H   H183      1.0  0.33294  0.42059  0.76018  1.0000
  H   H184      1.0  0.29222  0.44798  0.76240  1.0000
  H   H185      1.0  0.42381  0.41253  0.88869  1.0000
  H   H186      1.0  0.40336  0.39084  0.75518  1.0000
  N   N16       1.0  0.45348  0.44597  0.86664  1.0000
  H   H187      1.0  0.41276  0.41363  0.85764  1.0000
  H   H188      1.0  0.21658  0.09127  0.97453  1.0000
  C   C188      1.0  0.18547  0.10577  0.97973  1.0000
  C   C189      1.0  0.45229  0.46717  0.87910  1.0000
  H   H189      1.0  0.43528  0.46259  0.89165  1.0000
  C   C190      1.0  0.16062  0.10059  0.99152  1.0000
  C   C191      1.0  0.19707  0.08736  0.98334  1.0000
  H   H190      1.0  0.35745  0.39171  0.75409  1.0000
  C   C192      1.0  0.46228  0.49924  0.79413  1.0000
  C   C193      1.0  0.49160  0.32410  0.74376  1.0000
  H   H191      1.0  0.43462  0.42138  0.74614  1.0000
  C   C194      1.0  0.29013  0.45831  0.74601  1.0000
  H   H192      1.0  0.31248  0.43929  0.99009  1.0000
  N   N17       1.0  0.39771  0.42716  0.74826  1.0000
  C   C195      1.0  0.47446  0.45197  0.85027  1.0000
  S   S62       1.0  0.32857  0.15574  0.98439  1.0000
  S   S63       1.0  0.31969  0.21256  0.99043  1.0000
  H   H193      1.0  0.47134  0.32357  0.74659  1.0000
  C   C196      1.0  0.41274  0.45587  0.74670  1.0000
  H   H194      1.0  0.30046  0.46302  0.97769  1.0000
  C   C197      1.0  0.49487  0.47982  0.84593  1.0000
  C   C198      1.0  0.47267  0.49518  0.87554  1.0000
  H   H195      1.0  0.37941  0.33983  0.74495  1.0000
  H   H196      1.0  0.32038  0.09286  0.99320  1.0000
  Fe  Fe30      1.0  0.24285  0.64529  0.02174  1.0000
  C   C199      1.0  0.15507  0.62694  0.16957  1.0000
  S   S64       1.0  0.20259  0.63017  0.04353  1.0000
  C   C200      1.0  0.01520  0.57346  0.22295  1.0000
  S   S65       1.0  0.32523  0.62221  0.02817  1.0000
  C   C201      1.0  0.48266  0.63129  0.00897  1.0000
  H   H197      1.0  0.14380  0.65495  0.21940  1.0000
  S   S66       1.0  0.28727  0.66794  0.03627  1.0000
  C   C202      1.0  0.07300  0.74561  0.08094  1.0000
  N   N18       1.0  0.04763  0.74883  0.08507  1.0000
  H   H198      1.0  0.18331  0.68729  0.02610  1.0000
  C   C203      1.0  0.99739  0.72809  0.09068  1.0000
  S   S67       1.0  0.46174  0.57465  0.00231  1.0000
  H   H199      1.0  0.36071  0.55703  0.00479  1.0000
  C   C204      1.0  0.14870  0.64574  0.02285  1.0000
  N   N19       1.0  0.14300  0.62857  0.19068  1.0000
  H   H200      1.0  0.05971  0.68171  0.07144  1.0000
  H   H201      1.0  0.14932  0.89569  0.20088  1.0000
  C   C205      1.0  0.10404  0.85164  0.21662  1.0000
  C   C206      1.0  0.02293  0.92658  0.18262  1.0000
  Fe  Fe31      1.0  0.09322  0.66390  0.17338  1.0000
  S   S68       1.0  0.10701  0.64707  0.14216  1.0000
  S   S69       1.0  0.08845  0.64662  0.21219  1.0000
  Fe  Fe32      1.0  0.09603  0.71407  0.14332  1.0000
  S   S70       1.0  0.10958  0.70125  0.10970  1.0000
  S   S71       1.0  0.08396  0.74954  0.14300  1.0000
  Fe  Fe33      1.0  0.07747  0.65762  0.11973  1.0000
  S   S72       1.0  0.05194  0.62746  0.09070  1.0000
  Fe  Fe34      1.0  0.13837  0.69179  0.13405  1.0000
  S   S73       1.0  0.18282  0.70493  0.12109  1.0000
  S   S74       1.0  0.06082  0.67061  0.15142  1.0000
  S   S75       1.0  0.12771  0.70848  0.16728  1.0000
  Fe  Fe35      1.0  0.14971  0.91050  0.11968  1.0000
  S   S76       1.0  0.10416  0.89689  0.12747  1.0000
  S   S77       1.0  0.16730  0.87975  0.12750  1.0000
  Fe  Fe36      1.0  0.16055  0.96980  0.10174  1.0000
  S   S78       1.0  0.11497  0.95910  0.10761  1.0000
  C   C207      1.0  0.17874  0.65041  0.16047  1.0000
  Fe  Fe37      1.0  0.11909  0.93966  0.14283  1.0000
  S   S79       1.0  0.10458  0.95000  0.17758  1.0000
  Fe  Fe38      1.0  0.10480  0.91729  0.09157  1.0000
  S   S80       1.0  0.06791  0.89264  0.06675  1.0000
  S   S81       1.0  0.16505  0.95225  0.13817  1.0000
  S   S82       1.0  0.14992  0.92929  0.08267  1.0000
  C   C208      1.0  0.07089  0.90731  0.23976  1.0000
  C   C209      1.0  0.07100  0.86399  0.05476  1.0000
  C   C210      1.0  0.09440  0.85972  0.06065  1.0000
  C   C211      1.0  0.09724  0.83745  0.05043  1.0000
  C   C212      1.0  0.07616  0.81865  0.03495  1.0000
  C   C213      1.0  0.05231  0.82237  0.02961  1.0000
  C   C214      1.0  0.04989  0.84516  0.03929  1.0000
  H   H202      1.0  0.11044  0.87352  0.07305  1.0000
  H   H203      1.0  0.11555  0.83447  0.05493  1.0000
  Fe  Fe39      1.0  0.29679  0.69388  0.00209  1.0000
  H   H204      1.0  0.03172  0.84818  0.03465  1.0000
  C   C215      1.0  0.45855  0.60493  0.00900  1.0000
  H   H205      1.0  0.09245  0.76476  0.08645  1.0000
  N   N20       1.0  0.01891  0.90663  0.16339  1.0000
  C   C216      1.0  0.10771  0.78500  0.13614  1.0000
  C   C217      1.0  0.13703  0.79497  0.13589  1.0000
  C   C218      1.0  0.15516  0.82397  0.13234  1.0000
  C   C219      1.0  0.14410  0.84306  0.12863  1.0000
  C   C220      1.0  0.11474  0.83271  0.12784  1.0000
  C   C221      1.0  0.09669  0.80395  0.13193  1.0000
  H   H206      1.0  0.14577  0.78052  0.13911  1.0000
  H   H207      1.0  0.17785  0.83172  0.13290  1.0000
  H   H208      1.0  0.10581  0.84682  0.12457  1.0000
  H   H209      1.0  0.07405  0.79642  0.13213  1.0000
  C   C222      1.0  0.03040  0.63743  0.07271  1.0000
  C   C223      1.0  0.15368  0.65339  0.20295  1.0000
  C   C224      1.0  0.02175  0.67254  0.05047  1.0000
  H   H210      1.0  0.01634  0.91541  0.20035  1.0000
  H   H211      1.0  0.04549  0.94249  0.18454  1.0000
  C   C225      1.0  0.06013  0.61631  0.22535  1.0000
  C   C226      1.0  0.03686  0.59750  0.21174  1.0000
  H   H212      1.0  0.33118  0.50938  0.07430  1.0000
  H   H213      1.0  0.18500  0.69716  0.20361  1.0000
  C   C227      1.0  0.11750  0.60399  0.19927  1.0000
  H   H214      1.0  0.03547  0.60153  0.19261  1.0000
  H   H215      1.0  0.06326  0.78106  0.22468  1.0000
  H   H216      1.0  0.07257  0.72778  0.09188  1.0000
  H   H217      1.0  0.11133  0.60556  0.02422  1.0000
  H   H218      1.0  0.10957  0.67128  0.06576  1.0000
  C   C228      1.0  0.12134  0.62721  0.03020  1.0000
  C   C229      1.0  0.18975  0.67574  0.17289  1.0000
  C   C230      1.0  0.14266  0.87781  0.18826  1.0000
  C   C231      1.0  0.05441  0.87961  0.23218  1.0000
  H   H219      1.0  0.18525  0.72006  0.05554  1.0000
  C   C232      1.0  0.48047  0.65576  0.01412  1.0000
  N   N21       1.0  0.14789  0.68217  0.04690  1.0000
  C   C233      1.0  0.17710  0.67734  0.19419  1.0000
  C   C234      1.0  0.12078  0.66433  0.05370  1.0000
  H   H220      1.0  0.02864  0.69414  0.04467  1.0000
  H   H221      1.0  0.40824  0.66770  0.06509  1.0000
  H   H222      1.0  0.09877  0.60226  0.18872  1.0000
  H   H223      1.0  0.05579  0.93516  0.14427  1.0000
  C   C235      1.0  0.03754  0.91448  0.14468  1.0000
  C   C236      1.0  0.00425  0.61647  0.06462  1.0000
  S   S83       1.0  0.07894  0.78953  0.02386  1.0000
  H   H224      1.0  0.41355  0.58281  0.01427  1.0000
  H   H225      1.0  0.36014  0.59456  0.02991  1.0000
  C   C237      1.0  0.43019  0.62740  0.02018  1.0000
  C   C238      1.0  0.19835  0.65078  0.06603  1.0000
  C   C239      1.0  0.17260  0.63992  0.07839  1.0000
  C   C240      1.0  0.16755  0.65638  0.09515  1.0000
  C   C241      1.0  0.18851  0.68367  0.10014  1.0000
  C   C242      1.0  0.21449  0.69435  0.08820  1.0000
  C   C243      1.0  0.21933  0.67808  0.07102  1.0000
  H   H226      1.0  0.15626  0.61885  0.07457  1.0000
  H   H227      1.0  0.14744  0.64792  0.10416  1.0000
  H   H228      1.0  0.23084  0.71544  0.09198  1.0000
  H   H229      1.0  0.23922  0.68669  0.06158  1.0000
  C   C244      1.0  0.05386  0.87335  0.20759  1.0000
  C   C245      1.0  0.07022  0.89453  0.19082  1.0000
  C   C246      1.0  0.08627  0.92233  0.19840  1.0000
  C   C247      1.0  0.08637  0.92866  0.22287  1.0000
  C   C248      1.0  0.16170  0.67335  0.03134  1.0000
  H   H230      1.0  0.04105  0.85199  0.20156  1.0000
  H   H231      1.0  0.06977  0.88942  0.17197  1.0000
  H   H232      1.0  0.09865  0.95012  0.22883  1.0000
  H   H233      1.0  0.38827  0.65928  0.03706  1.0000
  H   H234      1.0  0.18806  0.64928  0.14353  1.0000
  H   H235      1.0  0.13301  0.82601  0.17723  1.0000
  N   N22       1.0  0.38884  0.69374  0.05545  1.0000
  C   C249      1.0  0.41387  0.71811  0.05480  1.0000
  C   C250      1.0  0.36363  0.69468  0.05430  1.0000
  C   C251      1.0  0.41407  0.74433  0.05375  1.0000
  C   C252      1.0  0.36304  0.72054  0.05336  1.0000
  C   C253      1.0  0.38845  0.74548  0.05330  1.0000
  C   C254      1.0  0.38894  0.66642  0.05589  1.0000
  H   H236      1.0  0.43386  0.71737  0.05489  1.0000
  H   H237      1.0  0.34383  0.67534  0.05390  1.0000
  H   H238      1.0  0.43391  0.76362  0.05261  1.0000
  H   H239      1.0  0.34305  0.72129  0.05187  1.0000
  H   H240      1.0  0.38825  0.76563  0.05180  1.0000
  Fe  Fe40      1.0  0.48221  0.72552  0.01150  1.0000
  H   H241      1.0  0.37031  0.65018  0.06562  1.0000
  C   C255      1.0  0.43221  0.60307  0.01423  1.0000
  S   S84       1.0  0.32192  0.74093  0.00408  1.0000
  C   C256      1.0  0.09784  0.80066  0.19981  1.0000
  C   C257      1.0  0.11896  0.82629  0.19092  1.0000
  H   H242      1.0  0.15620  0.71188  0.07482  1.0000
  H   H243      1.0  0.06932  0.79335  0.08061  1.0000
  H   H244      1.0  0.02620  0.79918  0.08317  1.0000
  H   H245      1.0  0.08589  0.62238  0.05158  1.0000
  H   H246      1.0  0.09542  0.78089  0.19271  1.0000
  C   C258      1.0  0.16182  0.71115  0.05570  1.0000
  H   H247      1.0  0.00353  0.86208  0.05944  1.0000
  H   H248      1.0  0.14610  0.60758  0.15941  1.0000
  C   C259      1.0  0.01025  0.86915  0.12632  1.0000
  Fe  Fe41      1.0  0.29580  0.63851  0.01364  1.0000
  C   C260      1.0  0.04915  0.77499  0.08346  1.0000
  H   H249      1.0  0.20757  0.69432  0.16557  1.0000
  C   C261      1.0  0.41835  0.78534  0.99910  1.0000
  C   C262      1.0  0.07976  0.80078  0.21761  1.0000
  S   S85       1.0  0.25049  0.61313  0.00193  1.0000
  C   C263      1.0  0.10717  0.63657  0.04561  1.0000
  N   N23       1.0  0.12176  0.85132  0.19923  1.0000
  H   H250      1.0  0.16201  0.87638  0.18309  1.0000
  C   C264      1.0  0.34465  0.58531  0.01554  1.0000
  C   C265      1.0  0.32457  0.59486  0.01094  1.0000
  C   C266      1.0  0.03357  0.89583  0.12595  1.0000
  H   H251      1.0  0.11354  0.60587  0.21867  1.0000
  H   H252      1.0  0.02099  0.70476  0.09003  1.0000
  H   H253      1.0  0.03579  0.80784  0.01786  1.0000
  S   S86       1.0  0.45075  0.68379  0.02711  1.0000
  C   C267      1.0  0.02222  0.72553  0.08876  1.0000
  C   C268      1.0  0.45428  0.65376  0.02010  1.0000
  H   H254      1.0  0.13356  0.88255  0.17157  1.0000
  C   C269      1.0  0.34492  0.56403  0.00140  1.0000
  S   S87       1.0  0.38123  0.51294  0.00611  1.0000
  H   H255      1.0  0.07445  0.74211  0.06139  1.0000
  H   H256      1.0  0.01723  0.89928  0.05336  1.0000
  H   H257      1.0  0.04848  0.90204  0.11124  1.0000
  C   C270      1.0  0.03925  0.66555  0.06563  1.0000
  H   H258      1.0  0.40988  0.62584  0.02461  1.0000
  H   H259      1.0  0.15544  0.72467  0.04433  1.0000
  H   H260      1.0  0.20357  0.99667  0.04903  1.0000
  C   C271      1.0  0.02479  0.77838  0.08518  1.0000
  C   C272      1.0  0.99780  0.87951  0.05756  1.0000
  Fe  Fe42      1.0  0.47987  0.77921  0.99912  1.0000
  H   H261      1.0  0.11941  0.58435  0.19740  1.0000
  C   C273      1.0  0.37377  0.78647  0.00383  1.0000
  H   H262      1.0  0.16026  0.63852  0.01140  1.0000
  Fe  Fe43      1.0  0.03900  0.76034  0.00448  1.0000
  C   C274      1.0  0.37370  0.74220  0.99596  1.0000
  H   H263      1.0  0.00678  0.85451  0.11182  1.0000
  C   C275      1.0  0.99872  0.75471  0.08875  1.0000
  S   S88       1.0  0.99998  0.74192  0.02695  1.0000
  H   H264      1.0  0.10604  0.87145  0.22313  1.0000
  C   C276      1.0  0.35884  0.75737  0.00060  1.0000
  S   S89       1.0  0.45556  0.80381  0.00006  1.0000
  H   H265      1.0  0.36241  0.79830  0.00734  1.0000
  C   C277      1.0  0.40333  0.80038  0.00303  1.0000
  H   H266      1.0  0.41460  0.82286  0.00589  1.0000
  H   H267      1.0  0.01002  0.93758  0.17851  1.0000
  H   H268      1.0  0.30731  0.52266  0.04089  1.0000
  C   C278      1.0  0.08294  0.82640  0.22620  1.0000
  H   H269      1.0  0.06897  0.82674  0.24005  1.0000
  C   C279      1.0  0.40352  0.75620  0.99529  1.0000
  H   H270      1.0  0.99741  0.59473  0.06993  1.0000
  C   C280      1.0  0.31074  0.50429  0.03937  1.0000
  H   H271      1.0  0.99725  0.55919  0.21225  1.0000
  S   S90       1.0  0.49511  0.76536  0.03239  1.0000
  Fe  Fe44      1.0  0.05848  0.82980  0.33736  1.0000
  S   S91       1.0  0.02174  0.83660  0.32391  1.0000
  S   S92       1.0  0.05481  0.78716  0.34938  1.0000
  Fe  Fe45      1.0  0.10174  0.88979  0.32308  1.0000
  S   S93       1.0  0.06861  0.90090  0.30905  1.0000
  Fe  Fe46      1.0  0.04499  0.87851  0.34216  1.0000
  H   H272      1.0  0.12822  0.97823  0.37982  1.0000
  Fe  Fe47      1.0  0.04917  0.85866  0.29194  1.0000
  C   C281      1.0  0.00563  0.63465  0.36620  1.0000
  S   S94       1.0  0.07983  0.87045  0.35791  1.0000
  S   S95       1.0  0.08403  0.84877  0.30365  1.0000
  S   S96       1.0  0.05242  0.54718  0.37025  1.0000
  Fe  Fe48      1.0  0.01676  0.68667  0.46251  1.0000
  C   C282      1.0  0.16679  0.98196  0.32018  1.0000
  Fe  Fe49      1.0  0.01113  0.52773  0.35003  1.0000
  Fe  Fe50      1.0  0.05092  0.65679  0.45237  1.0000
  C   C283      1.0  0.06150  0.61067  0.25022  1.0000
  S   S97       1.0  0.08437  0.65883  0.42758  1.0000
  H   H273      1.0  0.07293  0.74941  0.45301  1.0000
  H   H274      1.0  0.12237  0.93428  0.36090  1.0000
  C   C284      1.0  0.09866  0.73626  0.41867  1.0000
  C   C285      1.0  0.99842  0.96469  0.40405  1.0000
  S   S98       1.0  0.05954  0.69354  0.47586  1.0000
  C   C286      1.0  0.06043  0.57878  0.38489  1.0000
  C   C287      1.0  0.08860  0.59667  0.39107  1.0000
  C   C288      1.0  0.09568  0.62141  0.40376  1.0000
  C   C289      1.0  0.07453  0.62788  0.41121  1.0000
  C   C290      1.0  0.04614  0.60980  0.40538  1.0000
  C   C291      1.0  0.03914  0.58554  0.39169  1.0000
  H   H275      1.0  0.10507  0.59147  0.38590  1.0000
  H   H276      1.0  0.11760  0.63526  0.40824  1.0000
  H   H277      1.0  0.02971  0.61464  0.41125  1.0000
  H   H278      1.0  0.11403  0.73969  0.35895  1.0000
  H   H279      1.0  0.04113  0.58276  0.28060  1.0000
  C   C292      1.0  0.02738  0.53773  0.43761  1.0000
  H   H280      1.0  0.01733  0.57166  0.38695  1.0000
  C   C293      1.0  0.10815  0.98863  0.28324  1.0000
  C   C294      1.0  0.09877  0.98240  0.30710  1.0000
  C   C295      1.0  0.10944  0.74572  0.37625  1.0000
  H   H281      1.0  0.07137  0.91248  0.25855  1.0000
  C   C296      1.0  0.03979  0.58670  0.26144  1.0000
  C   C297      1.0  0.08938  0.76826  0.44359  1.0000
  H   H282      1.0  0.03864  0.53496  0.42201  1.0000
  H   H283      1.0  0.09532  0.72260  0.43437  1.0000
  C   C298      1.0  0.03995  0.76909  0.37682  1.0000
  C   C299      1.0  0.03760  0.74206  0.38087  1.0000
  C   C300      1.0  0.02857  0.72807  0.40332  1.0000
  C   C301      1.0  0.02105  0.74069  0.42175  1.0000
  C   C302      1.0  0.02261  0.76734  0.41747  1.0000
  C   C303      1.0  0.03223  0.78161  0.39518  1.0000
  H   H284      1.0  0.04356  0.73226  0.36675  1.0000
  H   H285      1.0  0.01675  0.77720  0.43162  1.0000
  N   N24       1.0  0.00553  0.94342  0.40796  1.0000
  H   H286      1.0  0.03394  0.80239  0.39231  1.0000
  N   N25       1.0  0.09628  0.76053  0.42031  1.0000
  H   H287      1.0  0.00647  0.61542  0.36004  1.0000
  C   C304      1.0  0.10513  0.72842  0.39663  1.0000
  C   C305      1.0  0.01646  0.56794  0.24786  1.0000
  C   C306      1.0  0.13882  0.97932  0.36308  1.0000
  S   S99       1.0  0.01046  0.72427  0.45052  1.0000
  H   H288      1.0  0.10482  0.96898  0.31806  1.0000
  H   H289      1.0  0.02154  0.92754  0.30317  1.0000
  H   H290      1.0  0.12146  0.98024  0.27605  1.0000
  H   H291      1.0  0.04689  0.96740  0.42272  1.0000
  C   C307      1.0  0.13551  0.95445  0.35240  1.0000
  H   H292      1.0  0.00766  0.94387  0.35640  1.0000
  H   H293      1.0  0.03526  0.56073  0.44001  1.0000
  H   H294      1.0  0.07939  0.62503  0.26095  1.0000
  H   H295      1.0  0.07095  0.96659  0.34795  1.0000
  H   H296      1.0  0.01469  0.98641  0.40234  1.0000
  H   H297      1.0  0.10659  0.70891  0.39544  1.0000
  S   S100      1.0  0.00997  0.65213  0.43707  1.0000
  C   C308      1.0  0.03549  0.95023  0.40962  1.0000
  H   H298      1.0  0.02458  0.64671  0.37781  1.0000
  H   H299      1.0  0.09895  0.79707  0.40166  1.0000
  H   H300      1.0  0.11011  0.78405  0.36236  1.0000
  C   C309      1.0  0.14978  0.95575  0.33110  1.0000
  H   H301      1.0  0.02765  0.70768  0.40645  1.0000
  S   S101      1.0  0.14564  0.92472  0.31758  1.0000
  S   S102      1.0  0.02902  0.90431  0.36202  1.0000
  C   C310      1.0  0.10113  0.77796  0.40055  1.0000
  C   C311      1.0  0.10755  0.77072  0.37820  1.0000
  S   S103      1.0  0.03151  0.62458  0.48189  1.0000
  H   H302      1.0  0.01284  0.88343  0.28226  1.0000
  H   H303      1.0  0.04529  0.95694  0.39155  1.0000
  H   H304      1.0  0.03297  0.52932  0.45426  1.0000
  C   C312      1.0  0.00558  0.92843  0.29034  1.0000
  S   S104      1.0  0.03397  0.85262  0.25291  1.0000
  H   H305      1.0  0.08032  0.78316  0.44117  1.0000
  H   H306      1.0  0.03834  0.93171  0.41558  1.0000
  H   H307      1.0  0.01609  0.93937  0.27336  1.0000
  N   N26       1.0  0.08260  0.99340  0.31661  1.0000
  H   H308      1.0  0.00656  0.64743  0.34980  1.0000
  H   H309      1.0  0.10857  0.77794  0.45532  1.0000
  C   C313      1.0  0.07466  0.98806  0.34213  1.0000
  H   H310      1.0  0.05487  0.98952  0.34540  1.0000
  H   H311      1.0  0.17775  0.98301  0.30365  1.0000
  N   N27       1.0  0.99677  0.52292  0.43310  1.0000
  H   H312      1.0  0.99666  0.94099  0.29916  1.0000
  S   S105      1.0  0.04881  0.66383  0.54475  1.0000
  Fe  Fe51      1.0  0.18023  0.69340  0.63452  1.0000
  S   S106      1.0  0.20873  0.73499  0.65166  1.0000
  S   S107      1.0  0.16741  0.69021  0.59445  1.0000
  Fe  Fe52      1.0  0.18166  0.66118  0.68022  1.0000
  S   S108      1.0  0.20902  0.69987  0.70112  1.0000
  S   S109      1.0  0.16915  0.62002  0.69972  1.0000
  Fe  Fe53      1.0  0.18144  0.71681  0.68433  1.0000
  S   S110      1.0  0.17083  0.74458  0.70729  1.0000
  Fe  Fe54      1.0  0.23423  0.71461  0.66736  1.0000
  S   S111      1.0  0.28239  0.73593  0.66889  1.0000
  S   S112      1.0  0.15116  0.67655  0.66640  1.0000
  S   S113      1.0  0.20847  0.67450  0.64712  1.0000
  H   H313      1.0  0.47007  0.54717  0.70982  1.0000
  H   H314      1.0  0.14577  0.63051  0.61045  1.0000
  H   H315      1.0  0.06389  0.60965  0.53170  1.0000
  S   S114      1.0  0.43144  0.57092  0.70515  1.0000
  H   H316      1.0  0.04098  0.60421  0.57132  1.0000
  C   C314      1.0  0.42723  0.53708  0.69956  1.0000
  C   C315      1.0  0.12266  0.62152  0.61368  1.0000
  H   H317      1.0  0.13168  0.68527  0.71638  1.0000
  C   C316      1.0  0.44983  0.53097  0.70359  1.0000
  C   C317      1.0  0.10401  0.61690  0.54754  1.0000
  C   C318      1.0  0.33588  0.75544  0.73904  1.0000
  H   H318      1.0  0.10504  0.58407  0.70817  1.0000
  C   C319      1.0  0.26439  0.79695  0.67232  1.0000
  N   N28       1.0  0.10649  0.61744  0.59102  1.0000
  C   C320      1.0  0.06270  0.60769  0.57061  1.0000
  C   C321      1.0  0.28954  0.73715  0.71886  1.0000
  C   C322      1.0  0.30221  0.74122  0.69623  1.0000
  C   C323      1.0  0.33173  0.75187  0.69519  1.0000
  C   C324      1.0  0.34850  0.75875  0.71649  1.0000
  C   C325      1.0  0.12478  0.69811  0.72627  1.0000
  H   H319      1.0  0.26695  0.72923  0.71994  1.0000
  H   H320      1.0  0.34174  0.75505  0.67778  1.0000
  H   H321      1.0  0.37122  0.76717  0.71541  1.0000
  C   C326      1.0  0.13978  0.72755  0.72438  1.0000
  H   H322      1.0  0.06857  0.60943  0.60918  1.0000
  H   H323      1.0  0.42556  0.53002  0.61551  1.0000
  C   C327      1.0  0.11927  0.62024  0.56921  1.0000
  C   C328      1.0  0.48354  0.67950  0.70726  1.0000
  C   C329      1.0  0.10164  0.56909  0.72287  1.0000
  C   C330      1.0  0.31274  0.80663  0.66290  1.0000
  C   C331      1.0  0.24742  0.78889  0.71330  1.0000
  C   C332      1.0  0.19957  0.61821  0.71054  1.0000
  C   C333      1.0  0.19708  0.59791  0.72805  1.0000
  S   S115      1.0  0.27835  0.61566  0.74192  1.0000
  C   C334      1.0  0.24808  0.61624  0.72937  1.0000
  C   C335      1.0  0.25070  0.63667  0.71195  1.0000
  C   C336      1.0  0.22646  0.63763  0.70252  1.0000
  Fe  Fe55      1.0  0.03657  0.66097  0.50456  1.0000
  H   H324      1.0  0.08967  0.66261  0.74304  1.0000
  H   H325      1.0  0.22872  0.65348  0.68909  1.0000
  C   C337      1.0  0.08302  0.67528  0.55802  1.0000
  C   C338      1.0  0.08594  0.67655  0.58341  1.0000
  C   C339      1.0  0.11196  0.68239  0.59488  1.0000
  C   C340      1.0  0.13538  0.68693  0.58105  1.0000
  C   C341      1.0  0.13274  0.68669  0.55564  1.0000
  C   C342      1.0  0.10675  0.68096  0.54416  1.0000
  H   H326      1.0  0.06778  0.67241  0.59430  1.0000
  H   H327      1.0  0.11368  0.68278  0.61442  1.0000
  H   H328      1.0  0.15074  0.69030  0.54475  1.0000
  H   H329      1.0  0.10489  0.68013  0.52464  1.0000
  H   H330      1.0  0.38332  0.52026  0.68899  1.0000
  C   C343      1.0  0.44653  0.50394  0.69909  1.0000
  H   H331      1.0  0.11548  0.60120  0.62366  1.0000
  H   H332      1.0  0.39878  0.50884  0.63723  1.0000
  H   H333      1.0  0.32877  0.80059  0.67028  1.0000
  C   C344      1.0  0.22125  0.59685  0.73732  1.0000
  H   H334      1.0  0.27143  0.65176  0.70571  1.0000
  H   H335      1.0  0.22189  0.78776  0.68221  1.0000
  H   H336      1.0  0.30390  0.79391  0.64630  1.0000
  N   N29       1.0  0.29025  0.80047  0.68037  1.0000
  H   H337      1.0  0.11994  0.63684  0.62515  1.0000
  C   C345      1.0  0.07560  0.61077  0.54831  1.0000
  H   H338      1.0  0.11449  0.62031  0.53029  1.0000
  C   C346      1.0  0.24263  0.79116  0.68865  1.0000
  H   H339      1.0  0.26024  0.79795  0.65311  1.0000
  C   C347      1.0  0.29543  0.79915  0.70461  1.0000
  C   C348      1.0  0.07851  0.61097  0.59193  1.0000
  H   H340      1.0  0.34086  0.50846  0.73405  1.0000
  C   C349      1.0  0.40105  0.51585  0.69175  1.0000
  H   H341      1.0  0.14167  0.62631  0.56845  1.0000
  H   H342      1.0  0.17664  0.58327  0.73491  1.0000
  C   C350      1.0  0.27404  0.79308  0.72141  1.0000
  C   C351      1.0  0.48708  0.65926  0.69440  1.0000
  H   H343      1.0  0.47930  0.63797  0.70164  1.0000
  C   C352      1.0  0.11866  0.55572  0.72506  1.0000
  H   H344      1.0  0.32322  0.82937  0.65801  1.0000
  H   H345      1.0  0.47318  0.67420  0.72464  1.0000
  H   H346      1.0  0.23034  0.78369  0.72594  1.0000
  S   S116      1.0  0.48145  0.75949  0.73892  1.0000
  H   H347      1.0  0.31593  0.80189  0.71102  1.0000
  C   C353      1.0  0.13060  0.74401  0.73710  1.0000
  H   H348      1.0  0.13488  0.55991  0.71179  1.0000
  H   H349      1.0  0.43534  0.51899  0.64356  1.0000
  C   C354      1.0  0.41899  0.51241  0.62889  1.0000
  C   C355      1.0  0.49391  0.70686  0.69775  1.0000
  C   C356      1.0  0.08072  0.56346  0.74001  1.0000
  H   H350      1.0  0.06773  0.57412  0.73829  1.0000
  C   C357      1.0  0.10111  0.68530  0.74146  1.0000
  H   H351      1.0  0.14197  0.76674  0.73558  1.0000
  H   H352      1.0  0.27292  0.50933  0.72698  1.0000
  C   C358      1.0  0.30632  0.74447  0.74011  1.0000
  H   H353      1.0  0.24020  0.67709  0.73952  1.0000
  H   H354      1.0  0.49102  0.72239  0.70790  1.0000
  H   H355      1.0  0.37294  0.55455  0.71561  1.0000
  C   C359      1.0  0.37055  0.55243  0.73512  1.0000
  Fe  Fe56      1.0  0.46012  0.58663  0.73737  1.0000
  H   H356      1.0  0.40027  0.59560  0.74187  1.0000
  H   H357      1.0  0.27806  0.79126  0.74052  1.0000
  C   C360      1.0  0.32464  0.55181  0.98305  1.0000
  Fe  Fe57      1.0  0.26276  0.64349  0.97041  1.0000
  S   S117      1.0  0.24543  0.62991  0.93263  1.0000
  C   C361      1.0  0.44462  0.62964  0.95193  1.0000
  S   S118      1.0  0.40333  0.54684  0.95342  1.0000
  H   H358      1.0  0.43508  0.51103  0.85307  1.0000
  S   S119      1.0  0.01641  0.62035  0.81349  1.0000
  S   S120      1.0  0.46545  0.62376  0.75870  1.0000
  H   H359      1.0  0.16462  0.53862  0.86691  1.0000
  C   C362      1.0  0.18297  0.55863  0.87259  1.0000
  H   H360      1.0  0.04591  0.51768  0.78392  1.0000
  S   S121      1.0  0.41304  0.74023  0.77746  1.0000
  Fe  Fe58      1.0  0.43097  0.75803  0.81381  1.0000
  S   S122      1.0  0.41884  0.72993  0.84708  1.0000
  Fe  Fe59      1.0  0.40209  0.77595  0.77357  1.0000
  S   S123      1.0  0.41805  0.79218  0.81105  1.0000
  Fe  Fe60      1.0  0.26621  0.58063  0.76951  1.0000
  S   S124      1.0  0.29872  0.56990  0.78656  1.0000
  S   S125      1.0  0.24959  0.58580  0.80481  1.0000
  Fe  Fe61      1.0  0.05465  0.64587  0.79074  1.0000
  S   S126      1.0  0.08604  0.64949  0.81963  1.0000
  C   C363      1.0  0.29020  0.60343  0.87680  1.0000
  Fe  Fe62      1.0  0.08349  0.61004  0.80411  1.0000
  S   S127      1.0  0.12424  0.61063  0.79261  1.0000
  Fe  Fe63      1.0  0.27881  0.57085  0.82172  1.0000
  H   H361      1.0  0.43204  0.64729  0.84776  1.0000
  H   H362      1.0  0.05589  0.65932  0.92666  1.0000
  C   C364      1.0  0.15988  0.54873  0.80875  1.0000
  C   C365      1.0  0.13397  0.54368  0.81890  1.0000
  C   C366      1.0  0.12273  0.56262  0.81457  1.0000
  C   C367      1.0  0.13728  0.58646  0.79981  1.0000
  C   C368      1.0  0.16309  0.59133  0.78981  1.0000
  C   C369      1.0  0.41287  0.55067  0.88464  1.0000
  H   H363      1.0  0.10294  0.55880  0.82261  1.0000
  H   H364      1.0  0.17456  0.60964  0.77849  1.0000
  C   C370      1.0  0.17435  0.57266  0.79430  1.0000
  H   H365      1.0  0.19867  0.56998  0.91931  1.0000
  H   H366      1.0  0.12916  0.52803  0.74711  1.0000
  N   N30       1.0  0.08104  0.71983  0.85879  1.0000
  C   C371      1.0  0.46042  0.73303  0.91005  1.0000
  C   C372      1.0  0.43902  0.72754  0.89258  1.0000
  C   C373      1.0  0.44598  0.73684  0.86859  1.0000
  H   H367      1.0  0.42142  0.67408  0.84157  1.0000
  H   H368      1.0  0.44168  0.60911  0.95961  1.0000
  H   H369      1.0  0.45490  0.72598  0.92852  1.0000
  H   H370      1.0  0.41704  0.71636  0.89775  1.0000
  C   C374      1.0  0.16095  0.67082  0.75955  1.0000
  C   C375      1.0  0.03520  0.68566  0.92378  1.0000
  C   C376      1.0  0.30450  0.58283  0.99240  1.0000
  C   C377      1.0  0.30079  0.60866  0.90067  1.0000
  C   C378      1.0  0.26500  0.62252  0.91123  1.0000
  C   C379      1.0  0.25529  0.61841  0.88717  1.0000
  C   C380      1.0  0.26774  0.60881  0.87008  1.0000
  H   H371      1.0  0.23750  0.62193  0.88188  1.0000
  H   H372      1.0  0.25962  0.60526  0.85182  1.0000
  N   N31       1.0  0.47761  0.80534  0.90798  1.0000
  H   H373      1.0  0.20403  0.73643  0.78005  1.0000
  H   H374      1.0  0.23448  0.56140  0.94170  1.0000
  C   C381      1.0  0.04393  0.66651  0.91495  1.0000
  N   N32       1.0  0.33557  0.68054  0.78381  1.0000
  C   C382      1.0  0.33106  0.65357  0.78836  1.0000
  C   C383      1.0  0.34354  0.69953  0.80218  1.0000
  C   C384      1.0  0.33450  0.64504  0.81176  1.0000
  C   C385      1.0  0.34724  0.69170  0.82580  1.0000
  C   C386      1.0  0.34249  0.66418  0.83061  1.0000
  C   C387      1.0  0.01278  0.68492  0.88513  1.0000
  H   H375      1.0  0.35557  0.64449  0.97392  1.0000
  H   H376      1.0  0.34723  0.72094  0.79861  1.0000
  H   H377      1.0  0.33086  0.62366  0.81531  1.0000
  C   C388      1.0  0.48027  0.67193  0.82422  1.0000
  H   H378      1.0  0.34494  0.65765  0.84889  1.0000
  H   H379      1.0  0.17516  0.57093  0.88321  1.0000
  H   H380      1.0  0.17486  0.64126  0.74851  1.0000
  C   C389      1.0  0.22925  0.55465  0.92308  1.0000
  H   H381      1.0  0.15326  0.70457  0.77161  1.0000
  H   H382      1.0  0.09787  0.70671  0.88915  1.0000
  N   N33       1.0  0.20925  0.67921  0.76151  1.0000
  N   N34       1.0  0.42030  0.63416  0.95763  1.0000
  H   H383      1.0  0.33789  0.53023  0.81597  1.0000
  H   H384      1.0  0.12162  0.72223  0.86396  1.0000
  H   H385      1.0  0.09949  0.74421  0.76116  1.0000
  C   C390      1.0  0.37380  0.64186  0.96897  1.0000
  H   H386      1.0  0.44536  0.67420  0.97371  1.0000
  H   H387      1.0  0.39409  0.59048  0.78634  1.0000
  C   C391      1.0  0.23777  0.53532  0.88705  1.0000
  H   H388      1.0  0.13885  0.65681  0.75556  1.0000
  H   H389      1.0  0.00069  0.69201  0.87348  1.0000
  C   C392      1.0  0.43052  0.52810  0.85724  1.0000
  H   H390      1.0  0.44145  0.77710  0.92822  1.0000
  H   H391      1.0  0.46467  0.64608  0.95988  1.0000
  H   H392      1.0  0.29641  0.74186  0.75748  1.0000
  Fe  Fe64      1.0  0.46063  0.81847  0.79436  1.0000
  S   S128      1.0  0.41526  0.50282  0.90192  1.0000
  S   S129      1.0  0.04726  0.63130  0.88137  1.0000
  N   N35       1.0  0.07679  0.54489  0.75872  1.0000
  C   C393      1.0  0.41743  0.57163  0.86698  1.0000
  Fe  Fe65      1.0  0.04801  0.62159  0.84152  1.0000
  S   S130      1.0  0.44359  0.80599  0.75644  1.0000
  H   H393      1.0  0.48003  0.75781  0.84350  1.0000
  Fe  Fe66      1.0  0.21892  0.54009  0.80111  1.0000
  C   C394      1.0  0.23060  0.66977  0.75761  1.0000
  N   N36       1.0  0.36389  0.54701  0.78502  1.0000
  C   C395      1.0  0.42424  0.65825  0.96884  1.0000
  C   C396      1.0  0.05517  0.53966  0.77680  1.0000
  C   C397      1.0  0.28813  0.61808  0.91793  1.0000
  H   H394      1.0  0.29563  0.62104  0.93650  1.0000
  C   C398      1.0  0.46303  0.70423  0.81266  1.0000
  H   H395      1.0  0.24753  0.67798  0.77170  1.0000
  H   H396      1.0  0.04735  0.72036  0.80631  1.0000
  H   H397      1.0  0.34899  0.60198  0.95173  1.0000
  H   H398      1.0  0.40389  0.55120  0.90178  1.0000
  H   H399      1.0  0.41202  0.58827  0.87073  1.0000
  C   C399      1.0  0.38217  0.57243  0.77498  1.0000
  S   S131      1.0  0.05477  0.60867  0.77324  1.0000
  C   C400      1.0  0.47536  0.81885  0.86651  1.0000
  H   H400      1.0  0.31821  0.60459  0.90599  1.0000
  C   C401      1.0  0.46214  0.80690  0.88844  1.0000
  S   S132      1.0  0.30459  0.58928  0.85589  1.0000
  H   H401      1.0  0.19420  0.57673  0.78640  1.0000
  S   S133      1.0  0.04826  0.58197  0.82868  1.0000
  H   H402      1.0  0.48538  0.73386  0.78395  1.0000
  C   C402      1.0  0.38572  0.57553  0.74989  1.0000
  S   S134      1.0  0.32426  0.52495  0.96535  1.0000
  S   S135      1.0  0.45028  0.55791  0.76960  1.0000
  S   S136      1.0  0.25154  0.67372  0.98918  1.0000
  Fe  Fe67      1.0  0.26476  0.52505  0.78355  1.0000
  H   H403      1.0  0.40430  0.68090  0.98476  1.0000
  C   C403      1.0  0.43566  0.54934  0.83982  1.0000
  S   S137      1.0  0.47458  0.78534  0.80020  1.0000
  C   C404      1.0  0.39365  0.61418  0.95140  1.0000
  H   H404      1.0  0.03732  0.54272  0.76902  1.0000
  H   H405      1.0  0.22115  0.64643  0.75853  1.0000
  C   C405      1.0  0.21753  0.70582  0.76973  1.0000
  H   H406      1.0  0.44827  0.71264  0.81487  1.0000
  H   H407      1.0  0.99847  0.59688  0.92574  1.0000
  H   H408      1.0  0.39045  0.59513  0.94238  1.0000
  S   S138      1.0  0.43514  0.59773  0.82277  1.0000
  C   C406      1.0  0.42920  0.57120  0.84466  1.0000
  H   H409      1.0  0.35397  0.70693  0.84026  1.0000
  N   N37       1.0  0.20341  0.55258  0.88634  1.0000
  C   C407      1.0  0.34953  0.52408  0.77068  1.0000
  S   S139      1.0  0.03146  0.71927  0.98827  1.0000
  H   H410      1.0  0.32473  0.63842  0.77390  1.0000
  H   H411      1.0  0.19302  0.57118  0.85601  1.0000
  C   C408      1.0  0.41969  0.52897  0.87993  1.0000
  C   C409      1.0  0.03719  0.65652  0.89119  1.0000
  C   C410      1.0  0.04633  0.74117  0.83905  1.0000
  Fe  Fe68      1.0  0.46069  0.59636  0.79129  1.0000
  C   C411      1.0  0.40107  0.66226  0.97503  1.0000
  C   C412      1.0  0.30428  0.56103  0.97870  1.0000
  S   S140      1.0  0.23324  0.53570  0.76405  1.0000
  H   H412      1.0  0.04069  0.69334  0.94205  1.0000
  Fe  Fe69      1.0  0.45563  0.77129  0.76338  1.0000
  C   C413      1.0  0.37006  0.61787  0.95673  1.0000
  H   H413      1.0  0.47144  0.51191  0.88537  1.0000
  H   H414      1.0  0.01639  0.65842  0.85790  1.0000
  H   H415      1.0  0.08033  0.74023  0.89135  1.0000
  C   C414      1.0  0.07358  0.73622  0.87255  1.0000
  S   S141      1.0  0.06241  0.68692  0.77313  1.0000
  H   H416      1.0  0.26046  0.53984  0.92075  1.0000
  C   C415      1.0  0.07219  0.71458  0.83517  1.0000
  H   H417      1.0  0.43941  0.79872  0.88966  1.0000
  H   H418      1.0  0.28861  0.55164  0.96447  1.0000
  S   S142      1.0  0.35590  0.76559  0.76635  1.0000
  H   H419      1.0  0.47468  0.78355  0.94140  1.0000
  S   S143      1.0  0.49117  0.86228  0.80721  1.0000
  H   H420      1.0  0.24947  0.52661  0.87756  1.0000
  C   C416      1.0  0.20894  0.55948  0.91025  1.0000
  C   C417      1.0  0.09408  0.53245  0.76148  1.0000
  C   C418      1.0  0.09932  0.70850  0.86909  1.0000
  H   H421      1.0  0.06482  0.55435  0.79202  1.0000
  H   H422      1.0  0.07839  0.70195  0.82409  1.0000
  C   C419      1.0  0.10658  0.73126  0.75163  1.0000
  Fe  Fe70      1.0  0.00841  0.72998  0.95864  1.0000
  C   C420      1.0  0.24390  0.54272  0.91130  1.0000
  H   H423      1.0  0.46314  0.82015  0.85101  1.0000
  S   S144      1.0  0.24729  0.52520  0.82031  1.0000
  C   C421      1.0  0.02179  0.66600  0.87621  1.0000
  H   H424      1.0  0.44457  0.54871  0.82264  1.0000
  H   H425      1.0  0.12268  0.52518  0.83020  1.0000
  Fe  Fe71      1.0  0.36225  0.51770  0.97065  1.0000
  C   C422      1.0  0.01953  0.69493  0.90890  1.0000
  H   H426      1.0  0.45751  0.51623  0.79798  1.0000
  S   S145      1.0  0.17418  0.52528  0.81439  1.0000
  S   S146      1.0  0.46396  0.73861  0.97971  1.0000
  C   C423      1.0  0.46361  0.79365  0.93107  1.0000
  C   C424      1.0  0.11523  0.53763  0.74469  1.0000
  C   C425      1.0  0.05593  0.74692  0.86298  1.0000
  C   C426      1.0  0.21717  0.54024  0.87483  1.0000
  H   H427      1.0  0.33526  0.50387  0.77867  1.0000
  H   H428      1.0  0.09183  0.51872  0.77691  1.0000
  H   H429      1.0  0.04904  0.75880  0.87435  1.0000
  C   C427      1.0  0.05463  0.72503  0.82498  1.0000
  C   C428      1.0  0.09194  0.70193  0.75408  1.0000
  C   C429      1.0  0.48400  0.71638  0.79515  1.0000
  C   C430      1.0  0.18145  0.66200  0.75585  1.0000
  Fe  Fe72      1.0  0.01941  0.58299  0.79855  1.0000
  C   C431      1.0  0.16906  0.69758  0.76861  1.0000
  S   S147      1.0  0.30882  0.66630  0.98050  1.0000
  H   H430      1.0  0.01499  0.60845  0.96821  1.0000
  H   H431      1.0  0.21263  0.53474  0.85591  1.0000
  C   C432      1.0  0.48798  0.50503  0.78350  1.0000
  C   C433      1.0  0.47438  0.75091  0.86197  1.0000
  H   H432      1.0  0.44706  0.62974  0.93203  1.0000
  H   H433      1.0  0.23967  0.71974  0.77350  1.0000
  H   H434      1.0  0.35073  0.70846  0.75350  1.0000
  C   C434      1.0  0.19756  0.71540  0.77345  1.0000
  H   H435      1.0  0.03230  0.74899  0.83151  1.0000
  S   S148      1.0  0.00915  0.71992  0.91880  1.0000
  H   H436      1.0  0.44940  0.68067  0.86329  1.0000
  H   H437      1.0  0.46355  0.81058  0.94229  1.0000
  H   H438      1.0  0.09263  0.68683  0.86251  1.0000
  S   S149      1.0  0.01990  0.77317  0.97307  1.0000
  C   C435      1.0  0.35257  0.52647  0.74552  1.0000
  H   H439      1.0  0.37355  0.53431  0.81908  1.0000
  C   C436      1.0  0.48886  0.74742  0.90345  1.0000
  C   C437      1.0  0.43997  0.67045  0.84580  1.0000
  N   N38       1.0  0.46126  0.68217  0.82681  1.0000
  Fe  Fe73      1.0  0.42254  0.53880  0.98720  1.0000
  C   C438      1.0  0.33149  0.68928  0.75932  1.0000
  H   H440      1.0  0.47906  0.65458  0.83555  1.0000
  C   C439      1.0  0.36047  0.54383  0.81134  1.0000
  H   H441      1.0  0.28905  0.59021  0.98868  1.0000
  Fe  Fe74      1.0  0.40303  0.50768  0.93984  1.0000
  H   H442      1.0  0.41490  0.74437  0.99232  1.0000
  H   H443      1.0  0.21913  0.58109  0.75075  1.0000
  H   H444      1.0  0.31329  0.69398  0.75892  1.0000
  H   H445      1.0  0.32708  0.67263  0.74578  1.0000
  H   H446      1.0  0.36721  0.56445  0.82017  1.0000
  C   C440      1.0  0.00150  0.61648  0.95992  1.0000
  H   H447      1.0  0.00076  0.63888  0.99166  1.0000
  S   S150      1.0  0.42560  0.50156  0.97247  1.0000
  H   H448      1.0  0.36229  0.71969  0.99350  1.0000
  C   C441      1.0  0.49384  0.50154  0.85859  1.0000
  C   C442      1.0  0.49573  0.75586  0.87929  1.0000
  C   C443      1.0  0.97387  0.08524  0.07050  1.0000
  H   H449      1.0  0.95542  0.50059  0.21840  1.0000
  S   S151      1.0  0.87461  0.02195  0.02651  1.0000
  C   C444      1.0  0.93763  0.48593  0.22994  1.0000
  H   H450      1.0  0.84822  0.13840  0.00503  1.0000
  H   H451      1.0  0.96369  0.08416  0.08749  1.0000
  Fe  Fe75      1.0  0.84648  0.04104  0.01555  1.0000
  S   S152      1.0  0.83029  0.05709  0.04560  1.0000
  C   C445      1.0  0.97033  0.07835  0.02694  1.0000
  C   C446      1.0  0.95741  0.07668  0.04908  1.0000
  H   H452      1.0  0.93479  0.06914  0.04967  1.0000
  H   H453      1.0  0.66817  0.04321  0.20213  1.0000
  H   H454      1.0  0.82166  0.01615  0.09595  1.0000
  C   C447      1.0  0.99241  0.03311  0.12501  1.0000
  C   C448      1.0  0.67607  0.03185  0.21380  1.0000
  H   H455      1.0  0.67736  0.00569  0.18498  1.0000
  H   H456      1.0  0.80218  0.05596  0.08938  1.0000
  C   C449      1.0  0.85026  0.11873  0.00421  1.0000
  H   H457      1.0  0.91993  0.47189  0.21798  1.0000
  H   H458      1.0  0.75317  0.02600  0.10340  1.0000
  H   H459      1.0  0.79965  0.08392  0.02200  1.0000
  C   C450      1.0  0.79531  0.03574  0.05485  1.0000
  C   C451      1.0  0.78705  0.03986  0.07768  1.0000
  C   C452      1.0  0.75937  0.02290  0.08566  1.0000
  H   H460      1.0  0.78160  0.01199  0.02203  1.0000
  C   C453      1.0  0.68139  0.01069  0.20399  1.0000
  S   S153      1.0  0.95056  0.06796  0.99943  1.0000
  Fe  Fe76      1.0  0.90250  0.04779  0.99645  1.0000
  C   C454      1.0  0.77556  0.01509  0.03974  1.0000
  C   C455      1.0  0.68039  0.03799  0.23861  1.0000
  H   H461      1.0  0.85149  0.11137  0.02299  1.0000
  C   C456      1.0  0.96690  0.01374  0.13524  1.0000
  H   H462      1.0  0.93102  0.49923  0.24057  1.0000
  C   C457      1.0  0.73954  0.00249  0.07044  1.0000
  H   H463      1.0  0.74317  0.14782  0.23686  1.0000
  H   H464      1.0  0.73291  0.09397  0.23114  1.0000
  C   C458      1.0  0.80121  0.08133  0.00275  1.0000
  C   C459      1.0  0.99518  0.03457  0.09985  1.0000
  N   N39       1.0  0.97297  0.01776  0.08524  1.0000
  H   H465      1.0  0.95785  0.02087  0.04995  1.0000
  C   C460      1.0  0.97608  0.01952  0.05889  1.0000
  H   H466      1.0  0.96449  0.01238  0.15476  1.0000
  H   H467      1.0  0.75824  0.04813  0.99998  1.0000
  H   H468      1.0  0.98926  0.48920  0.23538  1.0000
  H   H469      1.0  0.85802  0.00611  0.07775  1.0000
  H   H470      1.0  0.61659  0.00745  0.23709  1.0000
  H   H471      1.0  0.99546  0.03851  0.05311  1.0000
  H   H472      1.0  0.87061  0.12343  0.99553  1.0000
  Fe  Fe77      1.0  0.67329  0.07215  0.29076  1.0000
  S   S154      1.0  0.63327  0.05478  0.31214  1.0000
  C   C461      1.0  0.83830  0.00793  0.38283  1.0000
  Fe  Fe78      1.0  0.70893  0.10110  0.33512  1.0000
  S   S155      1.0  0.67223  0.08463  0.36036  1.0000
  S   S156      1.0  0.75272  0.13012  0.34829  1.0000
  Fe  Fe79      1.0  0.65833  0.04438  0.34015  1.0000
  S   S157      1.0  0.75247  0.45985  0.47151  1.0000
  Fe  Fe80      1.0  0.65082  0.09684  0.33040  1.0000
  S   S158      1.0  0.62759  0.12275  0.33580  1.0000
  S   S159      1.0  0.69734  0.05957  0.31783  1.0000
  S   S160      1.0  0.68858  0.11548  0.30603  1.0000
  H   H473      1.0  0.70510  0.45162  0.38650  1.0000
  Fe  Fe81      1.0  0.60265  0.25625  0.43282  1.0000
  S   S161      1.0  0.61595  0.29417  0.40829  1.0000
  S   S162      1.0  0.97124  0.49813  0.36852  1.0000
  S   S163      1.0  0.63262  0.24352  0.45200  1.0000
  Fe  Fe82      1.0  0.96179  0.47153  0.33569  1.0000
  H   H474      1.0  0.91880  0.41979  0.29085  1.0000
  S   S164      1.0  0.94257  0.42359  0.33885  1.0000
  H   H475      1.0  0.61853  0.32169  0.45575  1.0000
  C   C462      1.0  0.75718  0.12306  0.28543  1.0000
  H   H476      1.0  0.52062  0.14797  0.45929  1.0000
  H   H477      1.0  0.54028  0.46915  0.27223  1.0000
  Fe  Fe83      1.0  0.79143  0.25646  0.42515  1.0000
  S   S165      1.0  0.83671  0.26793  0.41800  1.0000
  S   S166      1.0  0.75732  0.23811  0.39666  1.0000
  Fe  Fe84      1.0  0.80277  0.27388  0.47807  1.0000
  S   S167      1.0  0.84890  0.28663  0.47474  1.0000
  Fe  Fe85      1.0  0.84674  0.30701  0.43908  1.0000
  S   S168      1.0  0.87389  0.35402  0.43148  1.0000
  Fe  Fe86      1.0  0.83387  0.24627  0.45421  1.0000
  S   S169      1.0  0.84991  0.21435  0.46217  1.0000
  S   S170      1.0  0.80121  0.29665  0.44399  1.0000
  S   S171      1.0  0.78791  0.23261  0.45974  1.0000
  Fe  Fe87      1.0  0.52108  0.33673  0.33932  1.0000
  S   S172      1.0  0.54038  0.37248  0.36533  1.0000
  S   S173      1.0  0.94043  0.49323  0.31497  1.0000
  Fe  Fe88      1.0  0.52037  0.37279  0.29660  1.0000
  S   S174      1.0  0.54083  0.41197  0.31894  1.0000
  S   S175      1.0  0.51050  0.37633  0.25663  1.0000
  Fe  Fe89      1.0  0.56949  0.39524  0.33476  1.0000
  S   S176      1.0  0.61693  0.42329  0.33939  1.0000
  H   H478      1.0  0.69424  0.02775  0.27253  1.0000
  S   S177      1.0  0.55202  0.35835  0.30964  1.0000
  H   H479      1.0  0.55434  0.11517  0.42242  1.0000
  H   H480      1.0  0.55834  0.12017  0.37795  1.0000
  C   C463      1.0  0.63673  0.42116  0.36486  1.0000
  C   C464      1.0  0.66587  0.43983  0.36653  1.0000
  H   H481      1.0  0.67554  0.45619  0.35289  1.0000
  Fe  Fe90      1.0  0.79433  0.43463  0.43183  1.0000
  C   C465      1.0  0.82557  0.17841  0.46694  1.0000
  C   C466      1.0  0.83421  0.15750  0.46430  1.0000
  C   C467      1.0  0.81489  0.12875  0.46755  1.0000
  C   C468      1.0  0.78687  0.12085  0.47364  1.0000
  Fe  Fe91      1.0  0.55117  0.21296  0.45811  1.0000
  C   C469      1.0  0.79771  0.17034  0.47361  1.0000
  H   H482      1.0  0.85581  0.16352  0.45936  1.0000
  H   H483      1.0  0.82159  0.11276  0.46501  1.0000
  C   C470      1.0  0.86917  0.45032  0.38262  1.0000
  C   C471      1.0  0.53222  0.34099  0.42397  1.0000
  C   C472      1.0  0.92397  0.40445  0.36489  1.0000
  C   C473      1.0  0.91707  0.41748  0.38338  1.0000
  C   C474      1.0  0.90169  0.40163  0.40351  1.0000
  C   C475      1.0  0.89302  0.37256  0.40549  1.0000
  C   C476      1.0  0.89988  0.35944  0.38702  1.0000
  C   C477      1.0  0.91525  0.37534  0.36680  1.0000
  H   H484      1.0  0.92337  0.43975  0.38205  1.0000
  H   H485      1.0  0.89626  0.41194  0.41756  1.0000
  H   H486      1.0  0.89356  0.33714  0.38839  1.0000
  H   H487      1.0  0.92058  0.36505  0.35266  1.0000
  H   H488      1.0  0.83696  0.48082  0.41423  1.0000
  C   C478      1.0  0.85208  0.47894  0.40278  1.0000
  H   H489      1.0  0.50987  0.11092  0.45609  1.0000
  S   S178      1.0  0.57633  0.19604  0.47986  1.0000
  H   H490      1.0  0.62534  0.37939  0.31621  1.0000
  C   C479      1.0  0.58623  0.29426  0.39395  1.0000
  C   C480      1.0  0.58837  0.31908  0.38327  1.0000
  C   C481      1.0  0.56556  0.31879  0.36994  1.0000
  C   C482      1.0  0.54027  0.29377  0.36774  1.0000
  C   C483      1.0  0.53779  0.26914  0.37905  1.0000
  C   C484      1.0  0.56069  0.26945  0.39220  1.0000
  H   H491      1.0  0.60783  0.33846  0.38492  1.0000
  H   H492      1.0  0.56774  0.33787  0.36114  1.0000
  H   H493      1.0  0.53003  0.37906  0.43243  1.0000
  H   H494      1.0  0.55855  0.25032  0.40062  1.0000
  C   C485      1.0  0.62498  0.13528  0.36456  1.0000
  C   C486      1.0  0.61891  0.15811  0.36596  1.0000
  C   C487      1.0  0.61493  0.16747  0.38851  1.0000
  C   C488      1.0  0.61642  0.15363  0.40985  1.0000
  C   C489      1.0  0.62266  0.13092  0.40847  1.0000
  C   C490      1.0  0.62713  0.12191  0.38597  1.0000
  H   H495      1.0  0.61720  0.16855  0.34948  1.0000
  H   H496      1.0  0.61013  0.18496  0.38933  1.0000
  H   H497      1.0  0.62359  0.11994  0.42486  1.0000
  H   H498      1.0  0.63126  0.10401  0.38508  1.0000
  C   C491      1.0  0.93883  0.49421  0.42394  1.0000
  C   C492      1.0  0.75439  0.16094  0.36040  1.0000
  C   C493      1.0  0.73069  0.16569  0.35967  1.0000
  C   C494      1.0  0.73205  0.18995  0.37010  1.0000
  C   C495      1.0  0.75688  0.20923  0.38175  1.0000
  C   C496      1.0  0.78062  0.20454  0.38233  1.0000
  C   C497      1.0  0.77944  0.18056  0.37151  1.0000
  H   H499      1.0  0.71118  0.15062  0.35127  1.0000
  H   H500      1.0  0.71353  0.19333  0.36970  1.0000
  H   H501      1.0  0.79985  0.21919  0.39128  1.0000
  H   H502      1.0  0.79783  0.17698  0.37216  1.0000
  C   C498      1.0  0.53271  0.14165  0.37475  1.0000
  Fe  Fe92      1.0  0.77039  0.43066  0.48203  1.0000
  Fe  Fe93      1.0  0.51027  0.38580  0.34764  1.0000
  C   C499      1.0  0.76703  0.08389  0.27995  1.0000
  H   H503      1.0  0.73338  0.18905  0.43375  1.0000
  N   N40       1.0  0.80119  0.33993  0.38927  1.0000
  C   C500      1.0  0.82511  0.36076  0.37919  1.0000
  C   C501      1.0  0.79265  0.31231  0.38399  1.0000
  C   C502      1.0  0.84110  0.35420  0.36323  1.0000
  H   H504      1.0  0.90518  0.44759  0.26196  1.0000
  C   C503      1.0  0.83292  0.32605  0.35817  1.0000
  C   C504      1.0  0.78522  0.34755  0.40624  1.0000
  H   H505      1.0  0.83210  0.38259  0.38368  1.0000
  H   H506      1.0  0.86017  0.37087  0.35545  1.0000
  H   H507      1.0  0.84569  0.32066  0.34646  1.0000
  H   H508      1.0  0.76543  0.32901  0.41210  1.0000
  H   H509      1.0  0.79849  0.35708  0.42253  1.0000
  H   H510      1.0  0.77948  0.36324  0.39768  1.0000
  H   H511      1.0  0.68942  0.03092  0.38337  1.0000
  S   S179      1.0  0.93482  0.01373  0.31541  1.0000
  H   H512      1.0  0.53492  0.14446  0.35527  1.0000
  S   S180      1.0  0.72637  0.00861  0.48554  1.0000
  H   H513      1.0  0.60121  0.29171  0.32881  1.0000
  C   C505      1.0  0.95417  0.47932  0.42809  1.0000
  C   C506      1.0  0.76849  0.10565  0.29427  1.0000
  H   H514      1.0  0.67287  0.10629  0.41143  1.0000
  H   H515      1.0  0.68375  0.15449  0.42420  1.0000
  Fe  Fe94      1.0  0.76688  0.04619  0.47459  1.0000
  C   C507      1.0  0.98180  0.45814  0.26328  1.0000
  S   S181      1.0  0.76080  0.08537  0.47600  1.0000
  H   H516      1.0  0.51815  0.24981  0.37766  1.0000
  C   C508      1.0  0.98338  0.49412  0.43238  1.0000
  H   H517      1.0  0.59367  0.32902  0.30717  1.0000
  C   C509      1.0  0.54582  0.12798  0.38744  1.0000
  H   H518      1.0  0.81646  0.01854  0.41007  1.0000
  S   S182      1.0  0.67240  0.06398  0.25039  1.0000
  C   C510      1.0  0.51479  0.14839  0.41245  1.0000
  H   H519      1.0  0.52684  0.25388  0.46564  1.0000
  H   H520      1.0  0.86147  0.35971  0.48189  1.0000
  H   H521      1.0  0.54694  0.13608  0.45941  1.0000
  C   C511      1.0  0.83783  0.38009  0.46702  1.0000
  H   H522      1.0  0.82822  0.01332  0.36786  1.0000
  N   N41       1.0  0.65398  0.34920  0.35470  1.0000
  C   C512      1.0  0.63706  0.32145  0.34949  1.0000
  C   C513      1.0  0.65027  0.36983  0.34258  1.0000
  C   C514      1.0  0.61535  0.31376  0.33211  1.0000
  C   C515      1.0  0.62872  0.36291  0.32517  1.0000
  H   H523      1.0  0.94365  0.45649  0.42743  1.0000
  C   C516      1.0  0.67442  0.35659  0.37484  1.0000
  H   H524      1.0  0.63940  0.30504  0.35963  1.0000
  H   H525      1.0  0.66357  0.39179  0.34671  1.0000
  C   C517      1.0  0.49949  0.43266  0.26958  1.0000
  C   C518      1.0  0.68098  0.00864  0.38732  1.0000
  S   S183      1.0  0.51127  0.29323  0.35186  1.0000
  H   H526      1.0  0.68506  0.34301  0.37520  1.0000
  H   H527      1.0  0.69102  0.37892  0.37362  1.0000
  H   H528      1.0  0.66324  0.35368  0.39224  1.0000
  C   C519      1.0  0.69445  0.12143  0.41588  1.0000
  Fe  Fe95      1.0  0.79421  0.48544  0.45287  1.0000
  C   C520      1.0  0.80849  0.30491  0.36856  1.0000
  C   C521      1.0  0.84935  0.45237  0.39755  1.0000
  C   C522      1.0  0.51817  0.35690  0.42811  1.0000
  H   H529      1.0  0.81005  0.39768  0.45683  1.0000
  S   S184      1.0  0.82127  0.42182  0.40976  1.0000
  C   C523      1.0  0.61104  0.33467  0.32006  1.0000
  C   C524      1.0  0.70051  0.14841  0.42320  1.0000
  H   H530      1.0  0.77368  0.29576  0.39197  1.0000
  S   S185      1.0  0.60865  0.16252  0.43844  1.0000
  H   H531      1.0  0.50262  0.42779  0.25128  1.0000
  C   C525      1.0  0.62452  0.40007  0.38256  1.0000
  H   H532      1.0  0.60220  0.38550  0.38146  1.0000
  C   C526      1.0  0.83152  0.01082  0.40673  1.0000
  C   C527      1.0  0.68270  0.43724  0.38553  1.0000
  H   H533      1.0  0.80190  0.28287  0.36494  1.0000
  H   H534      1.0  0.96824  0.42705  0.29213  1.0000
  Fe  Fe96      1.0  0.59927  0.19909  0.44532  1.0000
  H   H535      1.0  0.64815  0.34733  0.43881  1.0000
  S   S186      1.0  0.75362  0.40423  0.44902  1.0000
  C   C528      1.0  0.89145  0.47474  0.37284  1.0000
  N   N42       1.0  0.52848  0.13575  0.42482  1.0000
  H   H536      1.0  0.86738  0.42995  0.37848  1.0000
  H   H537      1.0  0.71176  0.09351  0.40766  1.0000
  C   C529      1.0  0.54346  0.12519  0.41262  1.0000
  C   C530      1.0  0.67047  0.41597  0.40310  1.0000
  C   C531      1.0  0.64130  0.39751  0.40152  1.0000
  C   C532      1.0  0.71649  0.11434  0.41382  1.0000
  S   S187      1.0  0.57138  0.21198  0.42312  1.0000
  S   S188      1.0  0.58102  0.25799  0.46648  1.0000
  C   C533      1.0  0.72836  0.16777  0.42870  1.0000
  H   H538      1.0  0.85086  0.38820  0.45105  1.0000
  N   N43       1.0  0.65455  0.34939  0.47677  1.0000
  H   H539      1.0  0.50672  0.16259  0.37765  1.0000
  N   N44       1.0  0.74379  0.13355  0.41905  1.0000
  C   C534      1.0  0.52062  0.45583  0.28135  1.0000
  S   S189      1.0  0.77750  0.46349  0.41724  1.0000
  C   C535      1.0  0.50415  0.24495  0.46509  1.0000
  S   S190      1.0  0.81274  0.45769  0.46622  1.0000
  C   C536      1.0  0.74989  0.15999  0.42644  1.0000
  H   H540      1.0  0.76875  0.12281  0.39634  1.0000
  Fe  Fe97      1.0  0.73753  0.43483  0.43713  1.0000
  H   H541      1.0  0.90656  0.47296  0.36124  1.0000
  C   C537      1.0  0.84386  0.36425  0.48439  1.0000
  C   C538      1.0  0.76649  0.12578  0.41582  1.0000
  H   H542      1.0  0.76165  0.10586  0.42581  1.0000
  S   S191      1.0  0.69053  0.41056  0.42683  1.0000
  H   H543      1.0  0.63157  0.38095  0.41491  1.0000
  H   H544      1.0  0.50262  0.15649  0.42207  1.0000
  H   H545      1.0  0.77159  0.17552  0.42992  1.0000
  S   S192      1.0  0.50325  0.19347  0.45866  1.0000
  H   H546      1.0  0.78723  0.14220  0.42264  1.0000
  C   C539      1.0  0.96196  0.43856  0.27898  1.0000
  C   C540      1.0  0.51661  0.46131  0.30513  1.0000
  C   C541      1.0  0.77848  0.14178  0.47683  1.0000
  H   H547      1.0  0.79091  0.18600  0.47655  1.0000
  S   S193      1.0  0.77227  0.02553  0.44131  1.0000
  C   C542      1.0  0.92661  0.45026  0.26190  1.0000
  C   C543      1.0  0.51695  0.15182  0.38728  1.0000
  H   H548      1.0  0.77798  0.10888  0.31227  1.0000
  H   H549      1.0  0.55512  0.35066  0.42495  1.0000
  H   H550      1.0  0.53314  0.47890  0.31468  1.0000
  C   C544      1.0  0.51651  0.31253  0.41818  1.0000
  H   H551      1.0  0.71335  0.01391  0.41402  1.0000
  H   H552      1.0  0.75820  0.13974  0.29685  1.0000
  H   H553      1.0  0.73491  0.15315  0.26712  1.0000
  C   C545      1.0  0.63578  0.34374  0.45561  1.0000
  C   C546      1.0  0.52629  0.13244  0.45120  1.0000
  H   H554      1.0  0.75683  0.13580  0.48158  1.0000
  Fe  Fe98      1.0  0.60800  0.24129  0.48512  1.0000
  C   C547      1.0  0.97346  0.47334  0.24696  1.0000
  C   C548      1.0  0.73259  0.13692  0.25383  1.0000
  C   C549      1.0  0.84407  0.00345  0.42622  1.0000
  H   H555      1.0  0.66914  0.39380  0.47450  1.0000
  H   H556      1.0  0.70958  0.12396  0.25007  1.0000
  H   H557      1.0  0.62568  0.35781  0.45518  1.0000
  C   C550      1.0  0.67061  0.37657  0.48404  1.0000
  C   C551      1.0  0.69076  0.02327  0.25344  1.0000
  C   C552      1.0  0.93416  0.43449  0.27826  1.0000
  C   C553      1.0  0.81485  0.38533  0.47018  1.0000
  H   H558      1.0  0.77545  0.07006  0.28670  1.0000
  N   N45       1.0  0.74471  0.11885  0.26296  1.0000
  H   H559      1.0  0.91624  0.48309  0.42028  1.0000
  H   H560      1.0  0.61622  0.01864  0.26702  1.0000
  Fe  Fe99      1.0  0.79598  0.00976  0.46626  1.0000
  H   H561      1.0  0.99532  0.48246  0.43494  1.0000
  H   H562      1.0  0.50459  0.28487  0.47035  1.0000
  C   C554      1.0  0.75443  0.07987  0.25701  1.0000
  H   H563      1.0  0.78039  0.37891  0.49299  1.0000
  C   C555      1.0  0.79821  0.37471  0.49076  1.0000
  H   H564      1.0  0.75277  0.06275  0.24581  1.0000
  S   S194      1.0  0.83438  0.00445  0.45649  1.0000
  H   H565      1.0  0.64465  0.30621  0.48246  1.0000
  C   C556      1.0  0.74332  0.09766  0.24876  1.0000
  H   H566      1.0  0.52751  0.30025  0.41514  1.0000
  N   N46       1.0  0.94616  0.46933  0.24649  1.0000
  C   C557      1.0  0.65706  0.32777  0.48836  1.0000
  C   C558      1.0  0.69644  0.00244  0.24359  1.0000
  C   C559      1.0  0.83790  0.42841  0.56985  1.0000
  S   S195      1.0  0.88876  0.43723  0.65930  1.0000
  Fe  Fe100     1.0  0.82129  0.44729  0.66255  1.0000
  S   S196      1.0  0.82002  0.40847  0.64732  1.0000
  S   S197      1.0  0.78264  0.45382  0.66027  1.0000
  Fe  Fe101     1.0  0.84804  0.41093  0.67888  1.0000
  S   S198      1.0  0.83524  0.37191  0.70184  1.0000
  Fe  Fe102     1.0  0.86015  0.43802  0.62892  1.0000
  S   S199      1.0  0.84603  0.44765  0.69591  1.0000
  Fe  Fe103     1.0  0.63561  0.33047  0.68099  1.0000
  S   S200      1.0  0.59787  0.29430  0.69785  1.0000
  S   S201      1.0  0.67479  0.35113  0.70431  1.0000
  Fe  Fe104     1.0  0.60819  0.32178  0.63130  1.0000
  S   S202      1.0  0.56836  0.28516  0.64400  1.0000
  S   S203      1.0  0.61052  0.33428  0.59188  1.0000
  Fe  Fe105     1.0  0.57248  0.31114  0.67664  1.0000
  C   C560      1.0  0.77370  0.03086  0.71150  1.0000
  Fe  Fe106     1.0  0.59699  0.27170  0.66398  1.0000
  S   S204      1.0  0.59009  0.22719  0.66188  1.0000
  S   S205      1.0  0.61033  0.34942  0.66229  1.0000
  S   S206      1.0  0.63670  0.30626  0.64884  1.0000
  Fe  Fe107     1.0  0.78042  0.22725  0.65548  1.0000
  S   S207      1.0  0.74237  0.23033  0.64165  1.0000
  S   S208      1.0  0.82258  0.26403  0.64787  1.0000
  Fe  Fe108     1.0  0.74614  0.16615  0.67328  1.0000
  S   S209      1.0  0.70498  0.16391  0.65951  1.0000
  S   S210      1.0  0.75566  0.13344  0.69292  1.0000
  Fe  Fe109     1.0  0.72978  0.18775  0.62649  1.0000
  S   S211      1.0  0.71810  0.18024  0.58665  1.0000
  Fe  Fe110     1.0  0.72171  0.20711  0.67553  1.0000
  S   S212      1.0  0.70211  0.22622  0.69958  1.0000
  S   S213      1.0  0.76921  0.18585  0.63871  1.0000
  S   S214      1.0  0.76123  0.20801  0.69104  1.0000
  S   S215      1.0  0.63297  0.25630  0.52007  1.0000
  S   S216      1.0  0.78860  0.28153  0.51414  1.0000
  C   C561      1.0  0.73773  0.20835  0.56641  1.0000
  C   C562      1.0  0.73931  0.20290  0.54191  1.0000
  C   C563      1.0  0.75514  0.22506  0.52565  1.0000
  C   C564      1.0  0.76884  0.25287  0.53371  1.0000
  C   C565      1.0  0.76668  0.25831  0.55803  1.0000
  C   C566      1.0  0.75147  0.23617  0.57432  1.0000
  H   H567      1.0  0.72846  0.18147  0.53553  1.0000
  N   N47       1.0  0.80361  0.20049  0.54549  1.0000
  H   H568      1.0  0.77715  0.27974  0.56442  1.0000
  H   H569      1.0  0.75031  0.24085  0.59294  1.0000
  C   C567      1.0  0.73347  0.10999  0.71546  1.0000
  C   C568      1.0  0.69152  0.36066  0.51601  1.0000
  C   C569      1.0  0.70532  0.10451  0.71781  1.0000
  H   H570      1.0  0.75888  0.39225  0.63777  1.0000
  H   H571      1.0  0.69707  0.11595  0.70662  1.0000
  C   C570      1.0  0.61606  0.31196  0.57215  1.0000
  C   C571      1.0  0.60210  0.30527  0.54959  1.0000
  C   C572      1.0  0.60654  0.28766  0.53362  1.0000
  C   C573      1.0  0.62568  0.27741  0.53986  1.0000
  C   C574      1.0  0.64033  0.28490  0.56205  1.0000
  C   C575      1.0  0.63514  0.30163  0.57835  1.0000
  H   H572      1.0  0.58743  0.31335  0.54465  1.0000
  H   H573      1.0  0.59526  0.28220  0.51650  1.0000
  H   H574      1.0  0.65581  0.27779  0.56667  1.0000
  H   H575      1.0  0.64648  0.30721  0.59543  1.0000
  C   C576      1.0  0.62034  0.22568  0.67317  1.0000
  C   C577      1.0  0.62709  0.20484  0.66532  1.0000
  C   C578      1.0  0.65242  0.20496  0.67309  1.0000
  C   C579      1.0  0.67031  0.22522  0.68947  1.0000
  C   C580      1.0  0.66295  0.24533  0.69797  1.0000
  C   C581      1.0  0.63835  0.24599  0.68940  1.0000
  H   H576      1.0  0.61308  0.18901  0.65285  1.0000
  H   H577      1.0  0.65788  0.18915  0.66676  1.0000
  H   H578      1.0  0.67649  0.26069  0.71100  1.0000
  H   H579      1.0  0.63319  0.26202  0.69565  1.0000
  C   C582      1.0  0.52419  0.31791  0.71712  1.0000
  C   C583      1.0  0.83554  0.22280  0.69251  1.0000
  C   C584      1.0  0.67554  0.33309  0.50816  1.0000
  C   C585      1.0  0.70440  0.38016  0.69219  1.0000
  C   C586      1.0  0.70148  0.39696  0.67374  1.0000
  C   C587      1.0  0.72558  0.41996  0.66432  1.0000
  C   C588      1.0  0.75265  0.42558  0.67276  1.0000
  C   C589      1.0  0.75559  0.40829  0.69072  1.0000
  C   C590      1.0  0.73148  0.38592  0.70070  1.0000
  H   H580      1.0  0.68064  0.39251  0.66700  1.0000
  H   H581      1.0  0.72326  0.43320  0.65029  1.0000
  H   H582      1.0  0.77643  0.41231  0.69714  1.0000
  H   H583      1.0  0.73383  0.37274  0.71478  1.0000
  C   C591      1.0  0.83139  0.34230  0.68610  1.0000
  C   C592      1.0  0.84649  0.34514  0.66496  1.0000
  C   C593      1.0  0.84389  0.32104  0.65324  1.0000
  C   C594      1.0  0.82538  0.29417  0.66212  1.0000
  C   C595      1.0  0.80959  0.29139  0.68278  1.0000
  C   C596      1.0  0.81311  0.31541  0.69507  1.0000
  H   H584      1.0  0.86074  0.36590  0.65804  1.0000
  H   H585      1.0  0.85613  0.32328  0.63725  1.0000
  H   H586      1.0  0.79497  0.27073  0.68952  1.0000
  H   H587      1.0  0.80122  0.31323  0.71130  1.0000
  S   S217      1.0  0.85943  0.47686  0.64190  1.0000
  C   C597      1.0  0.75861  0.33809  0.64700  1.0000
  C   C598      1.0  0.75321  0.31542  0.66277  1.0000
  C   C599      1.0  0.72839  0.30362  0.67613  1.0000
  H   H588      1.0  0.77837  0.34761  0.63724  1.0000
  H   H589      1.0  0.76833  0.30728  0.66484  1.0000
  H   H590      1.0  0.72428  0.28640  0.68881  1.0000
  N   N48       1.0  0.65862  0.21265  0.56980  1.0000
  C   C600      1.0  0.63330  0.21307  0.56648  1.0000
  C   C601      1.0  0.67273  0.22012  0.59153  1.0000
  C   C602      1.0  0.62183  0.22180  0.58500  1.0000
  C   C603      1.0  0.66195  0.22915  0.61040  1.0000
  C   C604      1.0  0.63644  0.23019  0.60697  1.0000
  C   C605      1.0  0.67099  0.20427  0.55011  1.0000
  H   H591      1.0  0.62204  0.20721  0.54927  1.0000
  H   H592      1.0  0.69250  0.21919  0.59430  1.0000
  H   H593      1.0  0.60211  0.22283  0.58208  1.0000
  H   H594      1.0  0.67325  0.23524  0.62759  1.0000
  H   H595      1.0  0.62794  0.23752  0.62127  1.0000
  C   C606      1.0  0.82695  0.26933  0.73769  1.0000
  C   C607      1.0  0.57978  0.39858  0.73193  1.0000
  H   H596      1.0  0.84488  0.22486  0.67485  1.0000
  H   H597      1.0  0.82492  0.21804  0.51229  1.0000
  C   C608      1.0  0.84181  0.43237  0.54478  1.0000
  H   H598      1.0  0.53354  0.21742  0.67662  1.0000
  H   H599      1.0  0.78398  0.18881  0.58008  1.0000
  H   H600      1.0  0.76981  0.00897  0.70804  1.0000
  H   H601      1.0  0.69985  0.34489  0.65509  1.0000
  C   C609      1.0  0.55059  0.22564  0.71280  1.0000
  H   H602      1.0  0.76945  0.35408  0.52967  1.0000
  C   C610      1.0  0.53269  0.22597  0.69403  1.0000
  S   S218      1.0  0.86714  0.43563  0.58905  1.0000
  C   C611      1.0  0.83089  0.25508  0.56298  1.0000
  H   H603      1.0  0.75634  0.22066  0.50685  1.0000
  H   H604      1.0  0.79399  0.17332  0.73333  1.0000
  H   H605      1.0  0.80872  0.23710  0.59615  1.0000
  N   N49       1.0  0.74897  0.03435  0.70391  1.0000
  H   H606      1.0  0.67733  0.31588  0.51739  1.0000
  N   N50       1.0  0.80462  0.35972  0.50799  1.0000
  H   H607      1.0  0.82728  0.47967  0.57283  1.0000
  C   C612      1.0  0.81982  0.19628  0.70312  1.0000
  C   C613      1.0  0.54548  0.37659  0.67083  1.0000
  H   H608      1.0  0.77179  0.06859  0.67941  1.0000
  H   H609      1.0  0.77866  0.15583  0.55033  1.0000
  H   H610      1.0  0.85001  0.26719  0.69563  1.0000
  H   H611      1.0  0.80170  0.36176  0.54596  1.0000
  C   C614      1.0  0.53233  0.24937  0.73817  1.0000
  H   H612      1.0  0.59196  0.38929  0.69786  1.0000
  H   H613      1.0  0.69248  0.22142  0.54603  1.0000
  C   C615      1.0  0.81269  0.23298  0.57784  1.0000
  C   C616      1.0  0.68924  0.38261  0.50380  1.0000
  H   H614      1.0  0.91386  0.48012  0.72795  1.0000
  H   H615      1.0  0.65817  0.19999  0.53314  1.0000
  H   H616      1.0  0.81677  0.17743  0.69381  1.0000
  C   C617      1.0  0.72794  0.05832  0.68044  1.0000
  C   C618      1.0  0.54431  0.32603  0.73586  1.0000
  C   C619      1.0  0.83825  0.24674  0.70434  1.0000
  C   C620      1.0  0.83531  0.24965  0.53930  1.0000
  H   H617      1.0  0.67269  0.18496  0.55546  1.0000
  H   H618      1.0  0.73020  0.07515  0.66792  1.0000
  C   C621      1.0  0.75147  0.05463  0.68720  1.0000
  C   C622      1.0  0.78860  0.17197  0.53580  1.0000
  C   C623      1.0  0.57528  0.39082  0.70758  1.0000
  H   H619      1.0  0.56503  0.21690  0.70990  1.0000
  H   H620      1.0  0.79411  0.47759  0.51628  1.0000
  C   C624      1.0  0.82144  0.22206  0.53079  1.0000
  C   C625      1.0  0.81898  0.42803  0.52925  1.0000
  H   H621      1.0  0.82237  0.43159  0.51004  1.0000
  H   H622      1.0  0.69000  0.30584  0.68400  1.0000
  C   C626      1.0  0.70189  0.04138  0.69110  1.0000
  H   H623      1.0  0.75730  0.37179  0.61174  1.0000
  C   C627      1.0  0.51442  0.24896  0.71912  1.0000
  H   H624      1.0  0.80248  0.48557  0.70335  1.0000
  C   C628      1.0  0.74569  0.37245  0.62795  1.0000
  H   H625      1.0  0.86269  0.43940  0.53743  1.0000
  C   C629      1.0  0.81802  0.47748  0.73723  1.0000
  C   C630      1.0  0.53260  0.39385  0.73309  1.0000
  N   N51       1.0  0.82546  0.24431  0.72608  1.0000
  H   H626      1.0  0.80774  0.41681  0.59851  1.0000
  H   H627      1.0  0.76710  0.40740  0.57107  1.0000
  Fe  Fe111     1.0  0.88468  0.47404  0.67406  1.0000
  C   C631      1.0  0.82701  0.35428  0.50496  1.0000
  H   H628      1.0  0.80347  0.16656  0.52610  1.0000
  H   H629      1.0  0.56007  0.36835  0.66504  1.0000
  C   C632      1.0  0.81092  0.41956  0.57924  1.0000
  C   C633      1.0  0.78795  0.41438  0.56367  1.0000
  N   N52       1.0  0.73936  0.34818  0.64407  1.0000
  H   H630      1.0  0.72604  0.37304  0.62157  1.0000
  C   C634      1.0  0.52882  0.38620  0.70873  1.0000
  H   H631      1.0  0.84119  0.27643  0.56973  1.0000
  H   H632      1.0  0.56474  0.32700  0.73289  1.0000
  H   H633      1.0  0.50066  0.25852  0.72168  1.0000
  C   C635      1.0  0.69953  0.02071  0.70804  1.0000
  S   S219      1.0  0.53129  0.31001  0.68802  1.0000
  C   C636      1.0  0.79195  0.41877  0.53868  1.0000
  C   C637      1.0  0.71490  0.33663  0.65702  1.0000
  C   C638      1.0  0.70912  0.31435  0.67334  1.0000
  C   C639      1.0  0.79892  0.20567  0.56867  1.0000
  S   S220      1.0  0.76258  0.41196  0.51980  1.0000
  N   N53       1.0  0.83130  0.49865  0.53774  1.0000
  H   H634      1.0  0.84912  0.26674  0.52749  1.0000
  H   H635      1.0  0.68382  0.04497  0.68690  1.0000
  H   H636      1.0  0.66567  0.07930  0.73573  1.0000
  H   H637      1.0  0.67960  0.00810  0.71703  1.0000
  N   N54       1.0  0.54992  0.38446  0.69639  1.0000
  H   H638      1.0  0.54882  0.39506  0.65927  1.0000
  C   C640      1.0  0.55045  0.23753  0.73496  1.0000
  H   H639      1.0  0.70583  0.36510  0.53142  1.0000
  H   H640      1.0  0.83183  0.34202  0.51844  1.0000
  C   C641      1.0  0.74381  0.09493  0.73019  1.0000
  C   C642      1.0  0.80706  0.19399  0.72539  1.0000
  H   H641      1.0  0.78057  0.32722  0.53313  1.0000
  C   C643      1.0  0.72343  0.01739  0.71417  1.0000
  S   S221      1.0  0.79368  0.03348  0.49879  1.0000
  H   H642      1.0  0.52373  0.35927  0.66775  1.0000
  H   H643      1.0  0.76557  0.09906  0.72858  1.0000
  H   H644      1.0  0.77169  0.17062  0.52299  1.0000
  H   H645      1.0  0.59957  0.40275  0.74097  1.0000
  C   C644      1.0  0.68752  0.08363  0.73426  1.0000
  N   N55       1.0  0.51475  0.23733  0.69741  1.0000
  C   C645      1.0  0.78821  0.35021  0.53028  1.0000
  H   H646      1.0  0.79316  0.04562  0.70184  1.0000
  C   C646      1.0  0.49767  0.31646  0.72130  1.0000
  H   H647      1.0  0.78820  0.47257  0.54811  1.0000
  H   H648      1.0  0.72168  0.00158  0.72758  1.0000
  H   H649      1.0  0.84249  0.28920  0.72877  1.0000
  C   C647      1.0  0.82102  0.49135  0.71489  1.0000
  C   C648      1.0  0.49672  0.23796  0.67723  1.0000
  C   C649      1.0  0.80081  0.48826  0.53400  1.0000
  H   H650      1.0  0.50981  0.25409  0.66363  1.0000
  H   H651      1.0  0.77762  0.03463  0.73127  1.0000
  C   C650      1.0  0.81002  0.21837  0.73665  1.0000
  H   H652      1.0  0.80591  0.26891  0.73656  1.0000
  H   H653      1.0  0.87859  0.49640  0.57851  1.0000
  H   H654      1.0  0.50861  0.38084  0.69997  1.0000
  C   C651      1.0  0.84155  0.49252  0.55874  1.0000
  H   H655      1.0  0.70203  0.40420  0.50949  1.0000
  H   H656      1.0  0.79746  0.46106  0.74272  1.0000
  H   H657      1.0  0.51540  0.39391  0.74321  1.0000
  C   C652      1.0  0.72600  0.07402  0.74660  1.0000
  Fe  Fe112     1.0  0.68651  0.00993  0.78678  1.0000
  C   C653      1.0  0.51209  0.33331  0.76223  1.0000
  H   H658      1.0  0.56086  0.40472  0.76391  1.0000
  H   H659      1.0  0.84755  0.10660  0.95720  1.0000
  H   H660      1.0  0.77561  0.02248  0.85276  1.0000
  N   N56       1.0  0.82606  0.09720  0.99097  1.0000
  C   C654      1.0  0.69764  0.06802  0.74851  1.0000
  C   C655      1.0  0.84181  0.48446  0.75205  1.0000
  C   C656      1.0  0.80348  0.03043  0.88396  1.0000
  H   H661      1.0  0.51089  0.48460  0.83233  1.0000
  S   S222      1.0  0.72945  0.01710  0.80024  1.0000
  Fe  Fe113     1.0  0.85114  0.03407  0.96173  1.0000
  H   H662      1.0  0.82248  0.04271  0.87371  1.0000
  S   S223      1.0  0.83967  0.04122  0.92306  1.0000
  H   H663      1.0  0.93838  0.49061  0.76806  1.0000
  H   H664      1.0  0.83346  0.27002  0.75699  1.0000
  C   C657      1.0  0.75213  0.00344  0.88503  1.0000
  H   H665      1.0  0.51431  0.48715  0.77151  1.0000
  H   H666      1.0  0.80633  0.07189  0.93440  1.0000
  C   C658      1.0  0.80564  0.02619  0.90897  1.0000
  H   H667      1.0  0.76135  0.04210  0.95569  1.0000
  C   C659      1.0  0.53826  0.33373  0.75834  1.0000
  H   H668      1.0  0.78220  0.00673  0.94119  1.0000
  H   H669      1.0  0.53237  0.25919  0.75515  1.0000
  H   H670      1.0  0.56472  0.23799  0.74945  1.0000
  H   H671      1.0  0.83993  0.47350  0.76920  1.0000
  S   S224      1.0  0.88023  0.01461  0.96828  1.0000
  C   C660      1.0  0.77943  0.05767  0.96561  1.0000
  H   H672      1.0  0.55417  0.34077  0.77260  1.0000
  S   S225      1.0  0.67392  0.04047  0.76758  1.0000
  C   C661      1.0  0.77766  0.06110  0.99036  1.0000
  C   C662      1.0  0.82792  0.09407  0.96667  1.0000
  C   C663      1.0  0.80466  0.07436  0.95364  1.0000
  S   S226      1.0  0.81961  0.00717  0.98950  1.0000
  H   H673      1.0  0.73412  0.06233  0.75760  1.0000
  S   S227      1.0  0.87618  0.06975  0.98725  1.0000
  S   S228      1.0  0.50682  0.34703  0.78934  1.0000
  C   C664      1.0  0.77693  0.01896  0.87200  1.0000
  H   H674      1.0  0.79924  0.21635  0.75355  1.0000
  C   C665      1.0  0.78088  0.01034  0.92198  1.0000
  C   C666      1.0  0.55820  0.39994  0.74475  1.0000
  H   H675      1.0  0.84514  0.95776  0.06427  1.0000
  H   H676      1.0  0.98941  0.84834  0.01818  1.0000
  N   N57       1.0  0.80223  0.94088  0.07527  1.0000
  C   C667      1.0  0.83662  0.98936  0.07987  1.0000
  H   H677      1.0  0.81090  0.90599  0.07512  1.0000
  Fe  Fe114     1.0  0.66760  0.90134  0.13582  1.0000
  S   S229      1.0  0.69629  0.90988  0.16864  1.0000
  S   S230      1.0  0.62564  0.86210  0.12990  1.0000
  Fe  Fe115     1.0  0.70261  0.95920  0.11493  1.0000
  S   S231      1.0  0.73397  0.97320  0.14565  1.0000
  Fe  Fe116     1.0  0.73219  0.93058  0.14254  1.0000
  S   S232      1.0  0.77644  0.93454  0.14546  1.0000
  Fe  Fe117     1.0  0.69637  0.95203  0.17001  1.0000
  N   N58       1.0  0.83911  0.89143  0.19177  1.0000
  S   S233      1.0  0.70362  0.91836  0.10976  1.0000
  S   S234      1.0  0.66487  0.94177  0.13924  1.0000
  H   H678      1.0  0.96601  0.60721  0.04449  1.0000
  H   H679      1.0  0.98526  0.78559  0.04301  1.0000
  C   C668      1.0  0.98651  0.62353  0.05019  1.0000
  Fe  Fe118     1.0  0.99042  0.70215  0.00783  1.0000
  C   C669      1.0  0.93001  0.96439  0.22817  1.0000
  Fe  Fe119     1.0  0.87350  0.86738  0.11434  1.0000
  S   S235      1.0  0.90345  0.91260  0.12185  1.0000
  S   S236      1.0  0.82614  0.85235  0.11657  1.0000
  Fe  Fe120     1.0  0.92197  0.85251  0.10454  1.0000
  S   S237      1.0  0.95467  0.89709  0.11106  1.0000
  S   S238      1.0  0.94354  0.82525  0.09878  1.0000
  Fe  Fe121     1.0  0.92867  0.89552  0.14283  1.0000
  S   S239      1.0  0.94858  0.90683  0.17998  1.0000
  Fe  Fe122     1.0  0.92569  0.90878  0.08937  1.0000
  S   S240      1.0  0.94078  0.94182  0.06013  1.0000
  S   S241      1.0  0.89730  0.85024  0.13782  1.0000
  S   S242      1.0  0.89471  0.86440  0.08036  1.0000
  C   C670      1.0  0.94819  0.78584  0.02715  1.0000
  C   C671      1.0  0.92648  0.79327  0.03067  1.0000
  C   C672      1.0  0.92488  0.80571  0.05239  1.0000
  C   C673      1.0  0.94470  0.81024  0.07095  1.0000
  C   C674      1.0  0.96623  0.80258  0.06754  1.0000
  C   C675      1.0  0.96815  0.79068  0.04567  1.0000
  H   H680      1.0  0.91093  0.78955  0.01645  1.0000
  H   H681      1.0  0.90808  0.81134  0.05490  1.0000
  C   C676      1.0  0.99113  0.86149  0.14527  1.0000
  C   C677      1.0  0.84677  0.87179  0.17984  1.0000
  C   C678      1.0  0.91172  0.94189  0.04457  1.0000
  C   C679      1.0  0.91604  0.96296  0.02730  1.0000
  C   C680      1.0  0.89287  0.96391  0.01566  1.0000
  C   C681      1.0  0.86535  0.94309  0.02047  1.0000
  C   C682      1.0  0.86105  0.92149  0.03713  1.0000
  C   C683      1.0  0.88414  0.92134  0.04964  1.0000
  H   H682      1.0  0.96005  0.89897  0.05444  1.0000
  C   C684      1.0  0.93819  0.88061  0.02137  1.0000
  H   H683      1.0  0.83988  0.90520  0.04079  1.0000
  H   H684      1.0  0.88040  0.90529  0.06321  1.0000
  C   C685      1.0  0.79521  0.91238  0.06754  1.0000
  H   H685      1.0  0.62656  0.90326  0.02934  1.0000
  S   S243      1.0  0.58147  0.81020  0.02571  1.0000
  H   H686      1.0  0.53869  0.84677  0.03980  1.0000
  S   S244      1.0  0.83628  0.94518  0.00701  1.0000
  C   C686      1.0  0.78906  0.91182  0.13451  1.0000
  C   C687      1.0  0.77112  0.88367  0.12898  1.0000
  C   C688      1.0  0.78270  0.86575  0.12282  1.0000
  C   C689      1.0  0.81217  0.87593  0.12196  1.0000
  C   C690      1.0  0.82987  0.90438  0.12653  1.0000
  C   C691      1.0  0.81840  0.92215  0.13289  1.0000
  H   H687      1.0  0.74844  0.87545  0.13027  1.0000
  H   H688      1.0  0.76877  0.84376  0.11926  1.0000
  H   H689      1.0  0.85244  0.91267  0.12578  1.0000
  H   H690      1.0  0.83239  0.94393  0.13713  1.0000
  C   C692      1.0  0.95504  0.85217  0.00071  1.0000
  C   C693      1.0  0.95866  0.88567  0.03946  1.0000
  H   H691      1.0  0.73224  0.98305  0.03556  1.0000
  H   H692      1.0  0.55349  0.79872  0.07278  1.0000
  C   C694      1.0  0.61418  0.84599  0.10135  1.0000
  C   C695      1.0  0.58579  0.82570  0.09809  1.0000
  C   C696      1.0  0.57546  0.81396  0.07517  1.0000
  C   C697      1.0  0.59358  0.82226  0.05537  1.0000
  C   C698      1.0  0.62214  0.84190  0.05882  1.0000
  C   C699      1.0  0.63239  0.85378  0.08165  1.0000
  H   H693      1.0  0.57162  0.81938  0.11329  1.0000
  H   H694      1.0  0.63634  0.84821  0.04364  1.0000
  H   H695      1.0  0.65435  0.86900  0.08396  1.0000
  H   H696      1.0  0.50307  0.63277  0.00489  1.0000
  H   H697      1.0  0.87830  0.91156  0.21119  1.0000
  C   C700      1.0  0.85816  0.91118  0.20705  1.0000
  C   C701      1.0  0.80705  0.91103  0.19639  1.0000
  C   C702      1.0  0.63924  0.92020  0.07523  1.0000
  S   S245      1.0  0.95077  0.77226  0.99895  1.0000
  C   C703      1.0  0.94354  0.92734  0.22321  1.0000
  C   C704      1.0  0.94063  0.92875  0.19804  1.0000
  C   C705      1.0  0.93214  0.94783  0.18786  1.0000
  C   C706      1.0  0.92713  0.96585  0.20292  1.0000
  H   H698      1.0  0.54440  0.85919  0.08342  1.0000
  H   H699      1.0  0.93000  0.94911  0.16844  1.0000
  H   H700      1.0  0.64024  0.94112  0.07797  1.0000
  C   C707      1.0  0.85206  0.93131  0.21743  1.0000
  C   C708      1.0  0.93784  0.94480  0.23823  1.0000
  H   H701      1.0  0.82159  0.94708  0.21950  1.0000
  C   C709      1.0  0.55892  0.86247  0.04685  1.0000
  C   C710      1.0  0.56214  0.86940  0.07130  1.0000
  H   H702      1.0  0.92389  0.88982  0.02255  1.0000
  H   H703      1.0  0.76055  0.92971  0.08734  1.0000
  H   H704      1.0  0.77412  0.89653  0.07406  1.0000
  C   C711      1.0  0.93626  0.86354  0.00197  1.0000
  C   C712      1.0  0.58218  0.87498  0.03164  1.0000
  C   C713      1.0  0.94794  0.99860  0.09508  1.0000
  H   H705      1.0  0.64315  0.91212  0.09285  1.0000
  H   H706      1.0  0.98173  0.80625  0.08175  1.0000
  C   C714      1.0  0.82921  0.96202  0.07238  1.0000
  H   H707      1.0  0.78719  0.91109  0.19164  1.0000
  H   H708      1.0  0.95003  0.91255  0.23111  1.0000
  H   H709      1.0  0.59143  0.89300  0.09949  1.0000
  N   N59       1.0  0.61154  0.90044  0.06527  1.0000
  C   C715      1.0  0.74759  0.99877  0.04739  1.0000
  H   H710      1.0  0.85891  0.86469  0.19231  1.0000
  H   H711      1.0  0.93725  0.97870  0.02295  1.0000
  H   H712      1.0  0.58009  0.86884  0.01284  1.0000
  H   H713      1.0  0.97952  0.75689  0.08961  1.0000
  S   S246      1.0  0.97203  0.65918  0.02503  1.0000
  Fe  Fe123     1.0  0.98005  0.75239  0.99485  1.0000
  H   H714      1.0  0.97259  0.84098  0.14545  1.0000
  S   S247      1.0  0.70456  0.98200  0.07986  1.0000
  H   H715      1.0  0.49917  0.67602  0.01409  1.0000
  S   S248      1.0  0.69545  0.96673  0.20848  1.0000
  H   H716      1.0  0.85989  0.88223  0.16377  1.0000
  H   H717      1.0  0.79534  0.91175  0.04746  1.0000
  H   H718      1.0  0.77254  0.97763  0.10055  1.0000
  C   C716      1.0  0.58878  0.88855  0.08026  1.0000
  Fe  Fe124     1.0  0.53651  0.78106  0.01305  1.0000
  C   C717      1.0  0.69133  0.99566  0.21893  1.0000
  H   H719      1.0  0.65683  0.92303  0.06321  1.0000
  H   H720      1.0  0.79876  0.87571  0.17412  1.0000
  C   C718      1.0  0.94452  0.99623  0.12022  1.0000
  C   C719      1.0  0.60847  0.89418  0.04117  1.0000
  H   H721      1.0  0.82774  0.85270  0.17348  1.0000
  C   C720      1.0  0.81376  0.89110  0.18647  1.0000
  C   C721      1.0  0.99571  0.88066  0.16369  1.0000
  C   C722      1.0  0.82639  0.93129  0.21191  1.0000
  C   C723      1.0  0.78191  0.94640  0.08485  1.0000
  H   H722      1.0  0.92093  0.98090  0.19507  1.0000
  H   H723      1.0  0.62291  0.96614  0.22988  1.0000
  N   N60       1.0  0.97650  0.87384  0.03840  1.0000
  H   H724      1.0  0.93052  0.98497  0.08345  1.0000
  H   H725      1.0  0.89644  0.98066  0.00277  1.0000
  C   C724      1.0  0.78858  0.97351  0.09244  1.0000
  Fe  Fe125     1.0  0.85050  0.99061  0.99802  1.0000
  H   H726      1.0  0.86728  0.94705  0.22947  1.0000
  C   C725      1.0  0.81616  0.99504  0.09004  1.0000
  H   H727      1.0  0.97722  0.70947  0.09309  1.0000
  C   C726      1.0  0.99513  0.65150  0.04312  1.0000
  H   H728      1.0  0.98046  0.87473  0.17813  1.0000
  C   C727      1.0  0.97530  0.85776  0.01910  1.0000
  H   H729      1.0  0.98957  0.88123  0.07538  1.0000
  H   H730      1.0  0.92465  0.98097  0.12795  1.0000
  S   S249      1.0  0.52478  0.73977  0.99462  1.0000
  H   H731      1.0  0.97733  0.00071  0.05234  1.0000
  Fe  Fe126     1.0  0.91435  0.93493  0.32526  1.0000
  S   S250      1.0  0.95273  0.96433  0.30473  1.0000
  S   S251      1.0  0.90928  0.89109  0.33026  1.0000
  C   C728      1.0  0.95580  0.89449  0.28289  1.0000
  H   H732      1.0  0.94118  0.53538  0.42037  1.0000
  S   S252      1.0  0.92311  0.98674  0.24674  1.0000
  S   S253      1.0  0.99335  0.55390  0.33166  1.0000
  H   H733      1.0  0.75016  0.97864  0.36154  1.0000
  C   C729      1.0  0.80006  0.93624  0.40402  1.0000
  H   H734      1.0  0.66570  0.96236  0.47722  1.0000
  S   S254      1.0  0.88537  0.94842  0.30554  1.0000
  S   S255      1.0  0.92185  0.96361  0.35640  1.0000
  H   H735      1.0  0.92559  0.82455  0.27086  1.0000
  S   S256      1.0  0.92243  0.53205  0.36673  1.0000
  H   H736      1.0  0.80925  0.93599  0.36625  1.0000
  C   C730      1.0  0.94897  0.93086  0.40232  1.0000
  H   H737      1.0  0.91256  0.86299  0.27736  1.0000
  C   C731      1.0  0.63867  0.94807  0.25748  1.0000
  N   N61       1.0  0.62201  0.98190  0.26483  1.0000
  C   C732      1.0  0.95639  0.90927  0.40610  1.0000
  H   H738      1.0  0.77690  0.95482  0.35250  1.0000
  S   S257      1.0  0.82194  0.53241  0.45834  1.0000
  H   H739      1.0  0.93030  0.85004  0.33479  1.0000
  C   C733      1.0  0.97023  0.85169  0.27598  1.0000
  C   C734      1.0  0.62703  0.96537  0.24913  1.0000
  H   H740      1.0  0.94977  0.91090  0.28592  1.0000
  S   S258      1.0  0.63786  0.99982  0.35417  1.0000
  C   C735      1.0  0.69448  0.99901  0.40466  1.0000
  Fe  Fe127     1.0  0.98366  0.52390  0.30097  1.0000
  S   S259      1.0  0.69948  0.95661  0.43078  1.0000
  H   H741      1.0  0.87395  0.98838  0.43654  1.0000
  C   C736      1.0  0.85748  0.99747  0.37815  1.0000
  N   N62       1.0  0.97985  0.62775  0.37977  1.0000
  S   S260      1.0  0.75783  0.96981  0.47731  1.0000
  C   C737      1.0  0.85925  0.54574  0.45862  1.0000
  C   C738      1.0  0.64495  0.94759  0.28208  1.0000
  C   C739      1.0  0.90681  0.58466  0.46514  1.0000
  C   C740      1.0  0.91867  0.56665  0.46116  1.0000
  C   C741      1.0  0.87714  0.57418  0.46392  1.0000
  C   C742      1.0  0.87133  0.52799  0.45468  1.0000
  H   H742      1.0  0.92041  0.60657  0.46922  1.0000
  C   C743      1.0  0.86400  0.99392  0.42156  1.0000
  C   C744      1.0  0.97346  0.64885  0.38555  1.0000
  H   H743      1.0  0.74756  0.98692  0.39225  1.0000
  C   C745      1.0  0.96411  0.92030  0.34564  1.0000
  C   C746      1.0  0.94721  0.87049  0.33956  1.0000
  C   C747      1.0  0.96291  0.60064  0.38732  1.0000
  C   C748      1.0  0.63928  0.96413  0.29803  1.0000
  C   C749      1.0  0.93202  0.61540  0.40680  1.0000
  H   H744      1.0  0.93966  0.94323  0.25757  1.0000
  Fe  Fe128     1.0  0.73415  0.98731  0.45453  1.0000
  H   H745      1.0  0.86803  0.58810  0.46719  1.0000
  Fe  Fe129     1.0  0.95914  0.99401  0.33476  1.0000
  H   H746      1.0  0.92698  0.92594  0.39941  1.0000
  H   H747      1.0  0.65440  0.93461  0.28871  1.0000
  H   H748      1.0  0.90946  0.52397  0.45348  1.0000
  H   H749      1.0  0.96472  0.97576  0.39769  1.0000
  C   C750      1.0  0.65906  0.95097  0.39757  1.0000
  C   C751      1.0  0.68342  0.97009  0.40975  1.0000
  H   H750      1.0  0.97797  0.85532  0.34609  1.0000
  H   H751      1.0  0.97629  0.83520  0.27320  1.0000
  H   H752      1.0  0.65045  0.92863  0.40138  1.0000
  H   H753      1.0  0.72291  0.95296  0.38078  1.0000
  C   C752      1.0  0.97421  0.87352  0.34567  1.0000
  Fe  Fe130     1.0  0.92466  0.98032  0.28733  1.0000
  H   H754      1.0  0.70416  0.99093  0.25528  1.0000
  C   C753      1.0  0.87437  0.50335  0.39310  1.0000
  S   S261      1.0  0.95558  0.57816  0.46189  1.0000
  H   H755      1.0  0.88545  0.98280  0.39426  1.0000
  C   C754      1.0  0.94956  0.64304  0.39926  1.0000
  C   C755      1.0  0.93456  0.86731  0.27794  1.0000
  C   C756      1.0  0.79670  0.94004  0.37933  1.0000
  Fe  Fe131     1.0  0.95237  0.52134  0.34713  1.0000
  H   H756      1.0  0.99062  0.89896  0.41081  1.0000
  C   C757      1.0  0.97009  0.95877  0.40134  1.0000
  H   H757      1.0  0.94486  0.65992  0.40422  1.0000
  C   C758      1.0  0.90072  0.53827  0.45616  1.0000
  C   C759      1.0  0.94219  0.89397  0.33948  1.0000
  H   H758      1.0  0.96038  0.93840  0.34632  1.0000
  C   C760      1.0  0.76668  0.95349  0.41239  1.0000
  H   H759      1.0  0.96796  0.58387  0.38291  1.0000
  C   C761      1.0  0.78486  0.94284  0.42069  1.0000
  N   N63       1.0  0.76414  0.95796  0.38821  1.0000
  C   C762      1.0  0.77854  0.95101  0.37168  1.0000
  H   H760      1.0  0.58602  0.98746  0.25590  1.0000
  H   H761      1.0  0.78806  0.94091  0.43998  1.0000
  C   C763      1.0  0.62759  0.98114  0.28905  1.0000
  H   H762      1.0  0.92508  0.57245  0.40645  1.0000
  H   H763      1.0  0.81518  0.92916  0.41024  1.0000
  H   H764      1.0  0.94021  0.88745  0.40598  1.0000
  H   H765      1.0  0.87626  0.52380  0.39726  1.0000
  H   H766      1.0  0.75516  0.95888  0.42540  1.0000
  C   C764      1.0  0.64542  0.96054  0.38067  1.0000
  H   H767      1.0  0.85811  0.50627  0.45035  1.0000
  Fe  Fe132     1.0  0.89677  0.98064  0.33490  1.0000
  Fe  Fe133     1.0  0.99039  0.62261  0.46857  1.0000
  H   H768      1.0  0.62632  0.94555  0.37164  1.0000
  H   H769      1.0  0.64924  0.92549  0.47157  1.0000
  C   C765      1.0  0.74527  0.96963  0.38016  1.0000
  S   S262      1.0  0.98866  0.53716  0.26099  1.0000
  C   C766      1.0  0.93864  0.59403  0.40073  1.0000
  H   H770      1.0  0.91337  0.61048  0.41740  1.0000
  S   S263      1.0  0.86183  0.99014  0.34790  1.0000
  C   C767      1.0  0.94187  0.84578  0.27452  1.0000
  H   H771      1.0  0.98711  0.67044  0.37992  1.0000
  H   H772      1.0  0.62323  0.99388  0.30163  1.0000
  H   H773      1.0  0.64400  0.96397  0.31724  1.0000
  C   C768      1.0  0.65626  0.98931  0.37547  1.0000
  C   C769      1.0  0.99088  0.87906  0.28115  1.0000
  C   C770      1.0  0.66344  0.94186  0.48440  1.0000
  C   C771      1.0  0.87064  0.99084  0.39763  1.0000
  C   C772      1.0  0.95280  0.52357  0.42410  1.0000
  C   C773      1.0  0.98186  0.53769  0.42905  1.0000
  C   C774      1.0  0.98496  0.91595  0.40891  1.0000
  H   H774      1.0  0.68451  0.94238  0.48423  1.0000
  N   N64       1.0  0.98348  0.89993  0.28493  1.0000
  C   C775      1.0  0.99093  0.92334  0.35168  1.0000
  H   H775      1.0  0.99230  0.56052  0.42965  1.0000
  S   S264      1.0  0.99368  0.65680  0.49332  1.0000
  C   C776      1.0  0.99594  0.89996  0.35200  1.0000
  C   C777      1.0  0.60944  0.99959  0.25577  1.0000
  C   C778      1.0  0.89405  0.50130  0.37806  1.0000
  H   H776      1.0  0.64369  0.93589  0.24477  1.0000
  H   H777      1.0  0.84903  0.54503  0.68544  1.0000
  H   H778      1.0  0.87071  0.52945  0.67543  1.0000
  S   S265      1.0  0.92038  0.51620  0.68552  1.0000
  H   H779      1.0  0.60782  0.88332  0.54538  1.0000
  S   S266      1.0  0.74176  0.97995  0.54672  1.0000
  Fe  Fe134     1.0  0.66883  0.85354  0.67080  1.0000
  S   S267      1.0  0.65218  0.88144  0.65412  1.0000
  S   S268      1.0  0.71299  0.87207  0.68592  1.0000
  Fe  Fe135     1.0  0.61559  0.79905  0.65916  1.0000
  S   S269      1.0  0.59488  0.82270  0.64062  1.0000
  S   S270      1.0  0.59335  0.75115  0.66072  1.0000
  Fe  Fe136     1.0  0.63735  0.85038  0.62391  1.0000
  S   S271      1.0  0.64417  0.86252  0.58390  1.0000
  Fe  Fe137     1.0  0.61181  0.85146  0.67237  1.0000
  S   S272      1.0  0.58538  0.86548  0.69365  1.0000
  S   S273      1.0  0.65661  0.82402  0.63958  1.0000
  S   S274      1.0  0.63006  0.82637  0.69188  1.0000
  C   C779      1.0  0.75133  0.91740  0.71062  1.0000
  H   H780      1.0  0.76937  0.94607  0.57572  1.0000
  C   C780      1.0  0.58016  0.73218  0.68815  1.0000
  C   C781      1.0  0.57840  0.74550  0.70903  1.0000
  C   C782      1.0  0.53635  0.83971  0.71943  1.0000
  C   C783      1.0  0.87864  0.52513  0.52297  1.0000
  C   C784      1.0  0.55769  0.68684  0.70972  1.0000
  C   C785      1.0  0.56994  0.70283  0.68865  1.0000
  H   H781      1.0  0.58605  0.76803  0.70890  1.0000
  C   C786      1.0  0.75930  0.93527  0.61335  1.0000
  H   H782      1.0  0.55003  0.66427  0.70994  1.0000
  H   H783      1.0  0.57141  0.69238  0.67263  1.0000
  C   C787      1.0  0.72287  0.90178  0.70398  1.0000
  H   H784      1.0  0.53756  0.86034  0.72046  1.0000
  C   C788      1.0  0.84942  0.51497  0.52010  1.0000
  C   C789      1.0  0.65420  0.95286  0.54952  1.0000
  C   C790      1.0  0.74419  0.91360  0.62987  1.0000
  H   H785      1.0  0.59133  0.91995  0.71459  1.0000
  C   C791      1.0  0.95971  0.54940  0.71906  1.0000
  H   H786      1.0  0.62714  0.92167  0.57531  1.0000
  C   C792      1.0  0.71487  0.94692  0.55654  1.0000
  C   C793      1.0  0.70202  0.92399  0.54103  1.0000
  C   C794      1.0  0.68083  0.89801  0.54979  1.0000
  C   C795      1.0  0.67241  0.89473  0.57408  1.0000
  C   C796      1.0  0.68563  0.91752  0.58965  1.0000
  C   C797      1.0  0.70663  0.94352  0.58086  1.0000
  H   H787      1.0  0.70840  0.92631  0.52233  1.0000
  H   H788      1.0  0.67069  0.88044  0.53764  1.0000
  H   H789      1.0  0.67928  0.91533  0.60834  1.0000
  H   H790      1.0  0.71655  0.96114  0.59298  1.0000
  C   C798      1.0  0.51917  0.74294  0.66672  1.0000
  C   C799      1.0  0.70288  0.90945  0.71257  1.0000
  H   H791      1.0  0.89087  0.53513  0.71646  1.0000
  C   C800      1.0  0.55717  0.83623  0.70717  1.0000
  C   C801      1.0  0.55528  0.80937  0.70574  1.0000
  H   H792      1.0  0.53174  0.76559  0.71576  1.0000
  S   S275      1.0  0.50625  0.59878  0.73633  1.0000
  C   C802      1.0  0.93809  0.52227  0.71393  1.0000
  H   H793      1.0  0.57109  0.80639  0.69624  1.0000
  C   C803      1.0  0.74230  0.90146  0.58117  1.0000
  H   H794      1.0  0.62449  0.89302  0.50309  1.0000
  H   H795      1.0  0.71993  0.84716  0.57290  1.0000
  H   H796      1.0  0.71672  0.86942  0.63453  1.0000
  N   N65       1.0  0.72795  0.88026  0.59755  1.0000
  C   C804      1.0  0.71071  0.85139  0.58916  1.0000
  H   H797      1.0  0.49723  0.81917  0.73872  1.0000
  H   H798      1.0  0.68008  0.97836  0.52048  1.0000
  H   H799      1.0  0.70918  0.83570  0.60335  1.0000
  C   C805      1.0  0.66347  0.95771  0.52558  1.0000
  H   H800      1.0  0.65711  0.82452  0.73690  1.0000
  H   H801      1.0  0.91184  0.52594  0.54644  1.0000
  C   C806      1.0  0.72849  0.88608  0.62158  1.0000
  H   H802      1.0  0.74094  0.89711  0.56199  1.0000
  C   C807      1.0  0.87063  0.50208  0.56212  1.0000
  C   C808      1.0  0.51122  0.78937  0.72789  1.0000
  H   H803      1.0  0.51932  0.74360  0.64662  1.0000
  Fe  Fe138     1.0  0.75326  0.99440  0.50755  1.0000
  C   C809      1.0  0.75845  0.92921  0.58884  1.0000
  C   C810      1.0  0.51341  0.81632  0.72974  1.0000
  C   C811      1.0  0.53261  0.78610  0.71642  1.0000
  H   H804      1.0  0.78196  0.95224  0.73115  1.0000
  C   C812      1.0  0.97370  0.55537  0.74172  1.0000
  H   H805      1.0  0.76682  0.91153  0.70408  1.0000
  N   N66       1.0  0.65244  0.93652  0.50907  1.0000
  C   C813      1.0  0.85012  0.52497  0.68361  1.0000
  C   C814      1.0  0.63376  0.92606  0.55659  1.0000
  C   C815      1.0  0.62284  0.90449  0.53972  1.0000
  C   C816      1.0  0.87031  0.51892  0.72218  1.0000
  H   H806      1.0  0.74439  0.91798  0.64898  1.0000
  H   H807      1.0  0.68081  0.89735  0.70756  1.0000
  H   H808      1.0  0.66362  0.96954  0.56267  1.0000
  N   N67       1.0  0.84709  0.51121  0.70736  1.0000
  H   H809      1.0  0.68898  0.84800  0.58458  1.0000
  C   C817      1.0  0.75989  0.94042  0.72596  1.0000
  H   H810      1.0  0.69593  0.93781  0.73537  1.0000
  H   H811      1.0  0.50489  0.65137  0.66268  1.0000
  C   C818      1.0  0.56643  0.72957  0.73016  1.0000
  C   C819      1.0  0.59572  0.91803  0.73409  1.0000
  C   C820      1.0  0.71144  0.93233  0.72836  1.0000
  C   C821      1.0  0.51173  0.69441  0.66360  1.0000
  C   C822      1.0  0.55589  0.70018  0.73057  1.0000
  C   C823      1.0  0.88925  0.51845  0.54408  1.0000
  H   H812      1.0  0.83325  0.51117  0.67077  1.0000
  H   H813      1.0  0.96567  0.56593  0.70544  1.0000
  H   H814      1.0  0.52387  0.70042  0.64707  1.0000
  C   C824      1.0  0.73999  0.94768  0.73520  1.0000
  H   H815      1.0  0.89291  0.53807  0.50888  1.0000
  H   H816      1.0  0.79562  0.50609  0.53413  1.0000
  H   H817      1.0  0.54130  0.75536  0.67333  1.0000
  H   H818      1.0  0.77127  0.95679  0.61943  1.0000
  H   H819      1.0  0.50649  0.75330  0.67265  1.0000
  C   C825      1.0  0.50126  0.66672  0.67243  1.0000
  H   H820      1.0  0.84125  0.52015  0.50367  1.0000
  H   H821      1.0  0.61886  0.92640  0.73708  1.0000
  C   C826      1.0  0.63255  0.91010  0.51591  1.0000
  N   N68       1.0  0.50755  0.71393  0.67605  1.0000
  H   H822      1.0  0.70855  0.84072  0.73866  1.0000
  H   H823      1.0  0.58609  0.89529  0.73910  1.0000
  C   C827      1.0  0.93046  0.50109  0.73169  1.0000
  H   H824      1.0  0.82802  0.98633  0.88425  1.0000
  H   H825      1.0  0.54212  0.89876  0.74710  1.0000
  H   H826      1.0  0.99026  0.57636  0.74546  1.0000
  C   C828      1.0  0.75430  0.99922  0.91009  1.0000
  Fe  Fe139     1.0  0.50738  0.75646  0.96452  1.0000
  C   C829      1.0  0.70507  0.89001  0.77405  1.0000
  H   H827      1.0  0.97018  0.65725  0.97226  1.0000
  H   H828      1.0  0.55322  0.97038  0.78791  1.0000
  C   C830      1.0  0.69948  0.85172  0.74868  1.0000
  H   H829      1.0  0.60464  0.99385  0.77826  1.0000
  S   S276      1.0  0.66334  0.98288  0.81896  1.0000
  H   H830      1.0  0.95348  0.83838  0.98600  1.0000
  C   C831      1.0  0.58587  0.89210  0.79544  1.0000
  S   S277      1.0  0.50702  0.60927  0.79472  1.0000
  C   C832      1.0  0.78119  0.92472  0.96329  1.0000
  S   S278      1.0  0.51639  0.75602  0.92489  1.0000
  H   H831      1.0  0.59262  0.92706  0.81785  1.0000
  H   H832      1.0  0.73962  0.88304  0.76253  1.0000
  Fe  Fe140     1.0  0.70618  0.98695  0.83074  1.0000
  H   H833      1.0  0.71854  0.90894  0.78397  1.0000
  S   S279      1.0  0.52211  0.79856  0.98145  1.0000
  H   H834      1.0  0.83600  0.95467  0.95447  1.0000
  C   C833      1.0  0.77704  0.94207  0.92256  1.0000
  C   C834      1.0  0.60142  0.95903  0.75718  1.0000
  H   H835      1.0  0.54128  0.91013  0.82502  1.0000
  C   C835      1.0  0.50148  0.68357  0.80687  1.0000
  C   C836      1.0  0.71690  0.87546  0.76204  1.0000
  C   C837      1.0  0.94437  0.50710  0.75440  1.0000
  H   H836      1.0  0.52190  0.92255  0.77198  1.0000
  C   C838      1.0  0.81844  0.97293  0.89993  1.0000
  S   S280      1.0  0.51284  0.53988  0.77582  1.0000
  S   S281      1.0  0.96652  0.71037  0.97744  1.0000
  H   H837      1.0  0.61643  0.82753  0.74931  1.0000
  S   S282      1.0  0.69972  0.94823  0.81073  1.0000
  C   C839      1.0  0.62865  0.84919  0.75645  1.0000
  C   C840      1.0  0.52760  0.87303  0.80330  1.0000
  C   C841      1.0  0.56547  0.86685  0.78531  1.0000
  C   C842      1.0  0.53651  0.85744  0.78913  1.0000
  H   H838      1.0  0.57198  0.85472  0.77401  1.0000
  H   H839      1.0  0.52109  0.83834  0.78068  1.0000
  H   H840      1.0  0.96222  0.62978  0.89106  1.0000
  C   C843      1.0  0.55580  0.91983  0.75353  1.0000
  C   C844      1.0  0.83540  0.97173  0.91902  1.0000
  C   C845      1.0  0.54800  0.89798  0.81394  1.0000
  S   S283      1.0  0.67863  0.97282  0.76422  1.0000
  N   N69       1.0  0.97532  0.62044  0.92535  1.0000
  C   C846      1.0  0.96605  0.53423  0.75952  1.0000
  S   S284      1.0  0.98280  0.54084  0.78838  1.0000
  Fe  Fe141     1.0  0.65879  0.94623  0.79705  1.0000
  C   C847      1.0  0.67589  0.88077  0.77223  1.0000
  H   H841      1.0  0.95440  0.64575  0.92977  1.0000
  H   H842      1.0  0.79242  0.91259  0.96951  1.0000
  H   H843      1.0  0.51857  0.81431  0.92182  1.0000
  Fe  Fe142     1.0  0.51137  0.63427  0.76020  1.0000
  S   S285      1.0  0.75180  0.97591  0.75534  1.0000
  H   H844      1.0  0.51970  0.71522  0.77876  1.0000
  H   H845      1.0  0.75418  0.93122  0.92397  1.0000
  C   C848      1.0  0.67036  0.84291  0.74745  1.0000
  C   C849      1.0  0.56183  0.95998  0.77661  1.0000
  N   N70       1.0  0.79387  0.94071  0.94109  1.0000
  C   C850      1.0  0.82269  0.95535  0.93958  1.0000
  H   H846      1.0  0.75854  0.90941  0.96059  1.0000
  C   C851      1.0  0.50330  0.70593  0.79226  1.0000
  H   H847      1.0  0.66698  0.89257  0.78115  1.0000
  H   H848      1.0  0.62376  0.96941  0.75318  1.0000
  C   C852      1.0  0.78907  0.95790  0.90159  1.0000
  N   N71       1.0  0.65893  0.85748  0.75905  1.0000
  C   C853      1.0  0.57708  0.90762  0.80989  1.0000
  S   S286      1.0  0.62182  0.90363  0.78861  1.0000
  H   H849      1.0  0.77570  0.95948  0.88713  1.0000
  C   C854      1.0  0.50630  0.81577  0.90640  1.0000
  H   H850      1.0  0.50914  0.52328  0.85498  1.0000
  C   C855      1.0  0.96463  0.61248  0.90057  1.0000
  Fe  Fe143     1.0  0.71959  0.97788  0.77959  1.0000
  S   S287      1.0  0.71804  0.98906  0.87107  1.0000
  C   C856      1.0  0.59062  0.97306  0.77133  1.0000
  H   H851      1.0  0.54281  0.83534  0.88338  1.0000
  H   H852      1.0  0.51770  0.76679  0.87406  1.0000
  C   C857      1.0  0.96743  0.63720  0.93814  1.0000
  S   S288      1.0  0.54130  0.68118  0.75766  1.0000
  H   H853      1.0  0.56525  0.74009  0.74624  1.0000
  H   H854      1.0  0.97958  0.60824  0.88974  1.0000
  H   H855      1.0  0.61958  0.84966  0.77426  1.0000
  H   H856      1.0  0.78299  0.93942  0.97789  1.0000
  C   C858      1.0  0.86812  0.50548  0.74461  1.0000
  H   H857      1.0  0.94383  0.59329  0.90091  1.0000
  C   C859      1.0  0.50452  0.82918  0.86465  1.0000
  C   C860      1.0  0.54422  0.93328  0.76752  1.0000
  H   H858      1.0  0.51494  0.83835  0.84767  1.0000
  H   H859      1.0  0.73523  0.98720  0.92031  1.0000
  H   H860      1.0  0.88685  0.51109  0.75589  1.0000
  H   H861      1.0  0.51644  0.67531  0.80476  1.0000
  N   N72       1.0  0.58413  0.93257  0.74883  1.0000
  C   C861      1.0  0.97645  0.64400  0.96213  1.0000
  C   C862      1.0  0.52015  0.82764  0.88469  1.0000
  H   H862      1.0  0.92018  0.85902  0.98801  1.0000
  H   H863      1.0  0.85824  0.98403  0.91815  1.0000
  C   C863      1.0  0.99196  0.60992  0.93597  1.0000
  C   C864      1.0  0.99362  0.63361  0.97305  1.0000
  Fe  Fe144     1.0  0.49699  0.57234  0.77058  1.0000
  H   H864      1.0  0.62549  0.86401  0.74384  1.0000
