data_image0
_chemical_formula_structural       FeS2FeSCFeSFeS3FeS2FeS2FeSFeS3CH2S2FeSFeCH2CH2C5H3SC6H4C6H6C3HCHCNC6HCH5CNC4HCH4C2NH2CHSH3SHC3H5CNC6H9NSH2CH2CH2FeH2CFeH2CHSFeS2FeS2FeSFeS3HCSHSC7H4NHC2NH4C5H2C6H4C3FeH2SCH3CH2NC2HFeH3C5HCHCHCH3CNH4C2HC3S2HFeSFeSH2S3CH3SCFeNSCHC6H4C6H5CHNCHCH3SC3HCH2CHCNCH3N2C4FeC2HCH2CHC2HCH2CH2CH3C2HC4H3C3HCFeSHFeS2FeSFeS3FeS2FeS2FeSFeS3FeCSFeS3H3C2H2C3H2C4HCHS2HC7H4C6H4CHCHC2HCHCH3NCH2NC2H6CH3CHCNC5HCH4NC6H8CFeHCHSC2HCHC2FeH3FeSFeS2FeS2FeSFeS3FeCSH2C4H2C6H4C2HC3H4C4H3C7H2CHNHCH3SCHSHC2NH5N2CHCH2CHNC2HCSCHC2H5C3HC2HCHC2HCH2CHC2H3FeSFeSCHSHSHC2SHCH4CHC6H4C4H3SHNC2HCH2CHSHCH2CH3CSC3H2C2NFeC3HCNH2CHSHCH2CHNCHC2SHSFeSFeSCHC2H2C2H4SHC2HCHC6H3C6H4CSH2CH4NH2C2H2SCNC2HCHC2FeCH3FeSHC2HSC5H2SC3HCH2CNSCHSH2FeS2FeS2FeSFeS3FeS2FeS2C2HC6H6C3HCH2C6H5CNHC2HSH4CHCNC6H7CHC2HCH4CHNC3H2CFeHCNCH2CFeCHCHCH3SFeS2FeSFeS3FeS2FeS2FeSFeHS2FeSFeS2Fe2HS2H4CHCHCHC8HC2FeSC6H4C6H2CHC5HSCHSH2CHNC6H4NCHSC3H2C2FeCSH3NHCSH4CSH3CHCH4SH2CHCHCFeCHFeSFeSFeHS2HSHC2HSCHC4H2C2SH2CSCN2HC6HSH2C6H4CHC2NCH4CH4CHSHCSH4Fe2C3HCHSFeS2FeS2FeSFeS3FeS2FeS2C3H2CHC7H6C4H2CNC6H6CNHSHC2HCH2NC2H3NC6H8C2FeCHCH2CHFeH3CHSC3H2C2H3CSHFeS2C2FeCFeS3FeS2FeSCFeSFeS3FeSHFeSFeSFeS2CH2CS2C2H2C3HC2H2NC2H2SC4HC3HCHC6H4C7H4CHCH2NH3CHCHC2SHFeSCH3NC3HSH4C3SCH4SHCH2CHCHCHC2NHC2HCHCHFeH3FeHCH2C2H3
_chemical_formula_sum              "Fe96 S192 C576 H576 N48"
_cell_length_a       33.1962
_cell_length_b       51.3764
_cell_length_c       65.5004
_cell_angle_alpha    90.0169
_cell_angle_beta     102.66
_cell_angle_gamma    90.24

_space_group_name_H-M_alt    "P 1"
_space_group_IT_number       1

loop_
  _space_group_symop_operation_xyz
  'x, y, z'

loop_
  _atom_site_type_symbol
  _atom_site_label
  _atom_site_symmetry_multiplicity
  _atom_site_fract_x
  _atom_site_fract_y
  _atom_site_fract_z
  _atom_site_occupancy
  Fe  Fe1       1.0  0.33303  0.24399  0.25184  1.0000
  S   S1        1.0  0.33261  0.28751  0.25526  1.0000
  S   S2        1.0  0.27571  0.22012  0.25347  1.0000
  Fe  Fe2       1.0  0.42794  0.24223  0.25667  1.0000
  S   S3        1.0  0.43353  0.28587  0.26024  1.0000
  C   C1        1.0  0.42078  0.36971  0.31853  1.0000
  Fe  Fe3       1.0  0.38814  0.28252  0.28139  1.0000
  S   S4        1.0  0.40037  0.30202  0.31367  1.0000
  Fe  Fe4       1.0  0.37711  0.28773  0.23357  1.0000
  S   S5        1.0  0.36557  0.32120  0.20973  1.0000
  S   S6        1.0  0.38632  0.23887  0.27944  1.0000
  S   S7        1.0  0.37386  0.24419  0.22853  1.0000
  Fe  Fe5       1.0  0.28098  0.36980  0.05045  1.0000
  S   S8        1.0  0.32735  0.33752  0.05577  1.0000
  S   S9        1.0  0.21102  0.36308  0.04468  1.0000
  Fe  Fe6       1.0  0.34752  0.41156  0.06431  1.0000
  S   S10       1.0  0.39797  0.38133  0.07152  1.0000
  S   S11       1.0  0.37311  0.45322  0.06806  1.0000
  Fe  Fe7       1.0  0.36735  0.36369  0.04068  1.0000
  S   S12       1.0  0.40932  0.34565  0.02093  1.0000
  Fe  Fe8       1.0  0.35493  0.35753  0.08628  1.0000
  S   S13       1.0  0.37595  0.32866  0.11327  1.0000
  S   S14       1.0  0.31843  0.39467  0.03270  1.0000
  S   S15       1.0  0.30693  0.38904  0.08172  1.0000
  C   C2        1.0  0.12520  0.30110  0.00658  1.0000
  H   H1        1.0  0.28621  0.15698  0.21390  1.0000
  H   H2        1.0  0.02582  0.00748  0.21427  1.0000
  S   S16       1.0  0.05474  0.11786  0.16022  1.0000
  S   S17       1.0  0.05485  0.13130  0.20885  1.0000
  Fe  Fe9       1.0  0.07797  0.15058  0.18280  1.0000
  S   S18       1.0  0.13991  0.16854  0.18043  1.0000
  Fe  Fe10      1.0  0.02645  0.10062  0.18537  1.0000
  C   C3        1.0  0.44522  0.42844  0.04358  1.0000
  H   H3        1.0  0.30141  0.37302  0.26681  1.0000
  H   H4        1.0  0.13106  0.21194  0.14812  1.0000
  C   C4        1.0  0.32563  0.32437  0.31711  1.0000
  H   H5        1.0  0.44126  0.35289  0.32413  1.0000
  H   H6        1.0  0.41592  0.41840  0.03617  1.0000
  C   C5        1.0  0.19231  0.32344  0.01499  1.0000
  C   C6        1.0  0.17985  0.33794  0.03058  1.0000
  C   C7        1.0  0.14031  0.33344  0.03443  1.0000
  C   C8        1.0  0.36545  0.31684  0.32726  1.0000
  C   C9        1.0  0.01303  0.13029  0.26255  1.0000
  H   H7        1.0  0.22252  0.32677  0.01176  1.0000
  H   H8        1.0  0.43979  0.38761  0.31900  1.0000
  H   H9        1.0  0.06163  0.20126  0.06998  1.0000
  S   S19       1.0  0.47739  0.21052  0.25729  1.0000
  C   C10       1.0  0.23723  0.20734  0.23269  1.0000
  C   C11       1.0  0.20291  0.19457  0.23749  1.0000
  C   C12       1.0  0.17251  0.18294  0.22167  1.0000
  C   C13       1.0  0.17642  0.18372  0.20086  1.0000
  C   C14       1.0  0.21080  0.19646  0.19604  1.0000
  C   C15       1.0  0.24097  0.20836  0.21185  1.0000
  H   H10       1.0  0.19979  0.19365  0.25358  1.0000
  H   H11       1.0  0.14628  0.17318  0.22559  1.0000
  H   H12       1.0  0.21413  0.19710  0.17999  1.0000
  H   H13       1.0  0.26732  0.21803  0.20797  1.0000
  C   C16       1.0  0.36914  0.32292  0.18297  1.0000
  C   C17       1.0  0.35699  0.34595  0.17163  1.0000
  C   C18       1.0  0.35926  0.34828  0.15041  1.0000
  C   C19       1.0  0.37401  0.32759  0.14026  1.0000
  C   C20       1.0  0.38625  0.30460  0.15162  1.0000
  C   C21       1.0  0.38364  0.30219  0.17277  1.0000
  H   H14       1.0  0.34585  0.36217  0.17934  1.0000
  H   H15       1.0  0.34972  0.36608  0.14194  1.0000
  H   H16       1.0  0.39784  0.28848  0.14399  1.0000
  H   H17       1.0  0.39329  0.28441  0.18125  1.0000
  H   H18       1.0  0.31443  0.31975  0.30072  1.0000
  H   H19       1.0  0.28574  0.46850  0.06098  1.0000
  C   C22       1.0  0.04689  0.02833  0.16850  1.0000
  C   C23       1.0  0.03624  0.02976  0.18798  1.0000
  C   C24       1.0  0.35334  0.35724  0.25625  1.0000
  H   H20       1.0  0.08098  0.20731  0.15380  1.0000
  C   C25       1.0  0.06345  0.16570  0.08765  1.0000
  H   H21       1.0  0.37676  0.17158  0.29391  1.0000
  C   C26       1.0  0.11327  0.31496  0.02266  1.0000
  N   N1        1.0  0.34797  0.16940  0.26131  1.0000
  C   C27       1.0  0.31333  0.16268  0.24669  1.0000
  C   C28       1.0  0.38392  0.17529  0.25532  1.0000
  C   C29       1.0  0.31414  0.16163  0.22544  1.0000
  C   C30       1.0  0.38589  0.17436  0.23422  1.0000
  C   C31       1.0  0.35069  0.16758  0.21920  1.0000
  C   C32       1.0  0.34561  0.17181  0.28332  1.0000
  H   H22       1.0  0.28435  0.15913  0.25133  1.0000
  C   C33       1.0  0.35650  0.37203  0.29155  1.0000
  H   H23       1.0  0.44852  0.34851  0.28717  1.0000
  H   H24       1.0  0.05315  0.15350  0.07396  1.0000
  H   H25       1.0  0.34109  0.38027  0.30304  1.0000
  H   H26       1.0  0.32739  0.15552  0.28792  1.0000
  H   H27       1.0  0.27033  0.34483  0.31988  1.0000
  C   C34       1.0  0.43626  0.35916  0.00268  1.0000
  N   N2        1.0  0.08542  0.19727  0.12285  1.0000
  C   C35       1.0  0.08160  0.17099  0.12513  1.0000
  C   C36       1.0  0.07939  0.20808  0.10331  1.0000
  C   C37       1.0  0.07029  0.15483  0.10761  1.0000
  C   C38       1.0  0.06821  0.19248  0.08543  1.0000
  H   H28       1.0  0.33625  0.35380  0.24033  1.0000
  C   C39       1.0  0.09734  0.21368  0.14154  1.0000
  H   H29       1.0  0.08655  0.16244  0.14058  1.0000
  H   H30       1.0  0.08196  0.22894  0.10141  1.0000
  H   H31       1.0  0.06537  0.13417  0.10959  1.0000
  H   H32       1.0  0.40460  0.39585  0.99897  1.0000
  C   C40       1.0  0.30438  0.48588  0.06132  1.0000
  C   C41       1.0  0.34728  0.48373  0.06423  1.0000
  N   N3        1.0  0.48005  0.41626  0.03690  1.0000
  H   H33       1.0  0.47451  0.38098  0.05328  1.0000
  H   H34       1.0  0.35160  0.16732  0.20275  1.0000
  C   C42       1.0  0.41647  0.35444  0.28268  1.0000
  H   H35       1.0  0.03695  0.12192  0.27535  1.0000
  S   S20       1.0  0.02279  0.05961  0.19842  1.0000
  H   H36       1.0  0.08936  0.23442  0.13812  1.0000
  H   H37       1.0  0.49013  0.44830  0.01786  1.0000
  H   H38       1.0  0.41021  0.34214  0.25052  1.0000
  S   S21       1.0  0.02108  0.17510  0.17271  1.0000
  H   H39       1.0  0.08281  0.31197  0.02565  1.0000
  C   C43       1.0  0.03363  0.00660  0.19910  1.0000
  C   C44       1.0  0.39495  0.35057  0.26201  1.0000
  C   C45       1.0  0.33387  0.36801  0.27109  1.0000
  H   H40       1.0  0.04915  0.04597  0.15980  1.0000
  H   H41       1.0  0.33043  0.19049  0.28569  1.0000
  H   H42       1.0  0.41123  0.18113  0.26682  1.0000
  H   H43       1.0  0.13034  0.34455  0.04645  1.0000
  H   H44       1.0  0.06138  0.00296  0.14481  1.0000
  C   C46       1.0  0.05376  0.00391  0.16003  1.0000
  N   N4        1.0  0.27864  0.30123  0.09811  1.0000
  C   C47       1.0  0.25549  0.32107  0.08771  1.0000
  C   C48       1.0  0.28627  0.29990  0.11947  1.0000
  C   C49       1.0  0.23935  0.34030  0.09872  1.0000
  C   C50       1.0  0.27046  0.31873  0.13099  1.0000
  C   C51       1.0  0.24711  0.33915  0.12051  1.0000
  C   C52       1.0  0.29783  0.28230  0.08646  1.0000
  H   H45       1.0  0.24992  0.32238  0.07081  1.0000
  H   H46       1.0  0.30613  0.28485  0.12779  1.0000
  H   H47       1.0  0.22172  0.35626  0.09033  1.0000
  H   H48       1.0  0.27782  0.31804  0.14798  1.0000
  H   H49       1.0  0.23569  0.35430  0.12928  1.0000
  H   H50       1.0  0.33006  0.28853  0.08666  1.0000
  H   H51       1.0  0.29856  0.26265  0.09359  1.0000
  H   H52       1.0  0.28073  0.28075  0.06989  1.0000
  H   H53       1.0  0.41440  0.17944  0.22958  1.0000
  N   N5        1.0  0.39715  0.36498  0.29715  1.0000
  S   S22       1.0  0.01148  0.22824  0.00204  1.0000
  H   H54       1.0  0.03246  0.37680  0.01149  1.0000
  H   H55       1.0  0.02760  0.13629  0.24952  1.0000
  C   C53       1.0  0.30075  0.33868  0.32801  1.0000
  H   H56       1.0  0.44189  0.44939  0.03939  1.0000
  H   H57       1.0  0.44930  0.42721  0.06086  1.0000
  C   C54       1.0  0.16497  0.30529  0.00296  1.0000
  H   H58       1.0  0.00747  0.09584  0.23143  1.0000
  H   H59       1.0  0.09846  0.36807  0.00066  1.0000
  Fe  Fe11      1.0  0.99699  0.14189  0.15113  1.0000
  H   H60       1.0  0.47320  0.32476  0.00256  1.0000
  H   H61       1.0  0.00061  0.14846  0.26801  1.0000
  C   C55       1.0  0.49135  0.39152  0.04342  1.0000
  Fe  Fe12      1.0  0.99561  0.15309  0.19711  1.0000
  H   H62       1.0  0.40016  0.37184  0.32971  1.0000
  H   H63       1.0  0.19555  0.34900  0.37044  1.0000
  C   C56       1.0  0.37939  0.32306  0.34859  1.0000
  H   H64       1.0  0.30474  0.27655  0.36909  1.0000
  S   S23       1.0  0.10567  0.19409  0.63548  1.0000
  Fe  Fe13      1.0  0.28703  0.41162  0.43190  1.0000
  S   S24       1.0  0.30052  0.38115  0.45751  1.0000
  S   S25       1.0  0.28339  0.45284  0.44490  1.0000
  Fe  Fe14      1.0  0.29204  0.37127  0.39754  1.0000
  S   S26       1.0  0.30652  0.33905  0.42096  1.0000
  S   S27       1.0  0.28194  0.36296  0.36230  1.0000
  Fe  Fe15      1.0  0.25584  0.35520  0.43547  1.0000
  S   S28       1.0  0.21093  0.32347  0.44233  1.0000
  Fe  Fe16      1.0  0.34920  0.36766  0.44099  1.0000
  S   S29       1.0  0.41696  0.35874  0.45406  1.0000
  S   S30       1.0  0.23900  0.38638  0.41085  1.0000
  S   S31       1.0  0.33805  0.39910  0.41653  1.0000
  H   H65       1.0  0.17180  0.18667  0.61330  1.0000
  C   C57       1.0  0.27959  0.28361  0.37572  1.0000
  S   S32       1.0  0.02647  0.20851  0.53752  1.0000
  H   H66       1.0  0.19235  0.31167  0.39942  1.0000
  S   S33       1.0  0.05162  0.31606  0.48294  1.0000
  C   C58       1.0  0.15141  0.26989  0.50426  1.0000
  C   C59       1.0  0.16543  0.32242  0.45277  1.0000
  C   C60       1.0  0.14273  0.29896  0.45147  1.0000
  C   C61       1.0  0.10724  0.29679  0.46003  1.0000
  C   C62       1.0  0.09417  0.31800  0.47029  1.0000
  C   C63       1.0  0.11673  0.34147  0.47149  1.0000
  C   C64       1.0  0.15196  0.34373  0.46275  1.0000
  H   H67       1.0  0.15268  0.28232  0.44377  1.0000
  H   H68       1.0  0.09032  0.27862  0.45890  1.0000
  H   H69       1.0  0.10699  0.35808  0.47933  1.0000
  H   H70       1.0  0.16893  0.36190  0.46394  1.0000
  N   N6        1.0  0.43485  0.42889  0.47946  1.0000
  H   H71       1.0  0.29935  0.26339  0.40503  1.0000
  C   C65       1.0  0.35416  0.33683  0.35962  1.0000
  C   C66       1.0  0.31484  0.34504  0.34932  1.0000
  N   N7        1.0  0.21996  0.31088  0.37297  1.0000
  H   H72       1.0  0.17146  0.27396  0.49358  1.0000
  H   H73       1.0  0.37980  0.40965  0.46474  1.0000
  H   H74       1.0  0.36545  0.34146  0.37601  1.0000
  H   H75       1.0  0.09862  0.22046  0.52117  1.0000
  C   C67       1.0  0.44330  0.36065  0.48060  1.0000
  C   C68       1.0  0.28461  0.19450  0.64359  1.0000
  C   C69       1.0  0.44540  0.36843  0.51743  1.0000
  C   C70       1.0  0.42286  0.36634  0.49659  1.0000
  C   C71       1.0  0.09842  0.26062  0.53083  1.0000
  H   H76       1.0  0.42940  0.37271  0.52974  1.0000
  H   H77       1.0  0.38975  0.36899  0.49293  1.0000
  C   C72       1.0  0.08327  0.19738  0.60818  1.0000
  C   C73       1.0  0.08503  0.17762  0.59370  1.0000
  C   C74       1.0  0.06743  0.18143  0.57223  1.0000
  C   C75       1.0  0.04759  0.20490  0.56489  1.0000
  C   C76       1.0  0.04587  0.22468  0.57938  1.0000
  C   C77       1.0  0.06365  0.22092  0.60084  1.0000
  H   H78       1.0  0.09971  0.15934  0.59901  1.0000
  H   H79       1.0  0.06888  0.16595  0.56121  1.0000
  H   H80       1.0  0.03064  0.24280  0.57408  1.0000
  H   H81       1.0  0.06199  0.23636  0.61185  1.0000
  C   C78       1.0  0.25056  0.30081  0.36436  1.0000
  C   C79       1.0  0.24453  0.28604  0.40426  1.0000
  C   C80       1.0  0.27656  0.27626  0.39584  1.0000
  Fe  Fe17      1.0  0.00387  0.28594  0.48900  1.0000
  H   H82       1.0  0.28523  0.47075  0.40242  1.0000
  H   H83       1.0  0.07533  0.31886  0.52833  1.0000
  S   S34       1.0  0.19034  0.13340  0.65304  1.0000
  C   C81       1.0  0.28747  0.48755  0.41258  1.0000
  H   H84       1.0  0.31619  0.19583  0.65253  1.0000
  H   H85       1.0  0.08319  0.30047  0.55228  1.0000
  H   H86       1.0  0.49048  0.43452  0.52924  1.0000
  C   C82       1.0  0.19132  0.33029  0.36163  1.0000
  H   H87       1.0  0.29983  0.16618  0.62216  1.0000
  H   H88       1.0  0.24224  0.28094  0.42005  1.0000
  N   N8        1.0  0.25387  0.20806  0.64972  1.0000
  C   C83       1.0  0.13833  0.29017  0.51547  1.0000
  C   C84       1.0  0.09819  0.30721  0.53962  1.0000
  H   H89       1.0  0.15892  0.32352  0.35978  1.0000
  Fe  Fe18      1.0  0.14132  0.16223  0.65670  1.0000
  H   H90       1.0  0.22706  0.16144  0.60228  1.0000
  H   H91       1.0  0.39048  0.43909  0.45185  1.0000
  H   H92       1.0  0.07738  0.25670  0.54103  1.0000
  C   C85       1.0  0.20368  0.18895  0.62159  1.0000
  C   C86       1.0  0.28791  0.48411  0.43381  1.0000
  C   C87       1.0  0.13708  0.24466  0.50627  1.0000
  C   C88       1.0  0.23474  0.17484  0.61539  1.0000
  C   C89       1.0  0.21377  0.20537  0.63902  1.0000
  H   H93       1.0  0.37170  0.44113  0.47534  1.0000
  C   C90       1.0  0.27552  0.17758  0.62644  1.0000
  H   H94       1.0  0.14806  0.30993  0.51308  1.0000
  C   C91       1.0  0.11047  0.23994  0.51966  1.0000
  H   H95       1.0  0.41016  0.31739  0.35663  1.0000
  C   C92       1.0  0.21644  0.30352  0.39255  1.0000
  H   H96       1.0  0.19723  0.33443  0.34588  1.0000
  H   H97       1.0  0.14611  0.22886  0.49725  1.0000
  H   H98       1.0  0.12451  0.32005  0.54676  1.0000
  C   C93       1.0  0.39216  0.42976  0.46732  1.0000
  N   N9        1.0  0.11236  0.28537  0.52863  1.0000
  H   H99       1.0  0.18918  0.21560  0.64414  1.0000
  H   H100      1.0  0.04173  0.17866  0.65804  1.0000
  H   H101      1.0  0.25344  0.30663  0.34886  1.0000
  H   H102      1.0  0.41873  0.43802  0.50842  1.0000
  C   C94       1.0  0.48629  0.35707  0.48561  1.0000
  C   C95       1.0  0.44336  0.43342  0.50057  1.0000
  H   H103      1.0  0.45848  0.41679  0.45324  1.0000
  C   C96       1.0  0.46567  0.42183  0.46975  1.0000
  C   C97       1.0  0.48384  0.43156  0.51243  1.0000
  C   C98       1.0  0.48850  0.36522  0.52237  1.0000
  S   S35       1.0  0.99958  0.24250  0.48386  1.0000
  S   S36       1.0  0.99679  0.28357  0.52247  1.0000
  H   H104      1.0  0.48489  0.30417  0.60979  1.0000
  Fe  Fe19      1.0  0.22819  0.14930  0.68370  1.0000
  S   S37       1.0  0.29673  0.15843  0.68460  1.0000
  Fe  Fe20      1.0  0.15233  0.14963  0.70374  1.0000
  S   S38       1.0  0.12845  0.16534  0.73147  1.0000
  H   H105      1.0  0.09336  0.20688  0.67675  1.0000
  H   H106      1.0  0.02651  0.09734  0.73813  1.0000
  S   S39       1.0  0.20275  0.12023  0.70371  1.0000
  S   S40       1.0  0.18087  0.17953  0.68599  1.0000
  S   S41       1.0  0.43228  0.23692  0.73678  1.0000
  C   C99       1.0  0.03375  0.31851  0.94427  1.0000
  H   H107      1.0  0.10476  0.01327  0.66821  1.0000
  H   H108      1.0  0.45789  0.15113  0.71986  1.0000
  H   H109      1.0  0.06210  0.22967  0.68739  1.0000
  S   S42       1.0  0.11034  0.13421  0.67478  1.0000
  C   C100      1.0  0.48362  0.37992  0.97518  1.0000
  Fe  Fe21      1.0  0.02559  0.26899  0.99301  1.0000
  N   N10       1.0  0.04563  0.18937  0.93686  1.0000
  S   S43       1.0  0.09060  0.27986  0.98970  1.0000
  C   C101      1.0  0.20543  0.02999  0.67308  1.0000
  H   H110      1.0  0.43471  0.20299  0.77437  1.0000
  C   C102      1.0  0.33365  0.18071  0.69918  1.0000
  C   C103      1.0  0.32575  0.19549  0.71580  1.0000
  C   C104      1.0  0.35602  0.21285  0.72680  1.0000
  C   C105      1.0  0.39448  0.21594  0.72128  1.0000
  C   C106      1.0  0.40223  0.20137  0.70450  1.0000
  C   C107      1.0  0.37214  0.18378  0.69365  1.0000
  H   H111      1.0  0.29651  0.19333  0.72038  1.0000
  H   H112      1.0  0.34963  0.22389  0.73980  1.0000
  H   H113      1.0  0.43161  0.20343  0.70005  1.0000
  H   H114      1.0  0.05509  0.19005  0.88639  1.0000
  C   C108      1.0  0.08975  0.15042  0.74249  1.0000
  C   C109      1.0  0.07524  0.16357  0.75831  1.0000
  C   C110      1.0  0.04305  0.15305  0.76674  1.0000
  C   C111      1.0  0.02531  0.12908  0.75956  1.0000
  C   C112      1.0  0.03997  0.11589  0.74381  1.0000
  C   C113      1.0  0.07186  0.12652  0.73525  1.0000
  H   H115      1.0  0.08886  0.18207  0.76403  1.0000
  H   H116      1.0  0.05182  0.32816  0.93399  1.0000
  H   H117      1.0  0.07931  0.21886  0.95673  1.0000
  H   H118      1.0  0.08260  0.11621  0.72305  1.0000
  H   H119      1.0  0.29659  0.22969  0.67292  1.0000
  C   C114      1.0  0.05124  0.20649  0.95521  1.0000
  H   H120      1.0  0.10060  0.20995  0.70444  1.0000
  N   N11       1.0  0.03296  0.33488  0.96252  1.0000
  C   C115      1.0  0.03065  0.18650  0.70746  1.0000
  H   H121      1.0  0.25610  0.21310  0.68198  1.0000
  C   C116      1.0  0.06920  0.34489  0.97395  1.0000
  H   H122      1.0  0.47368  0.41023  0.86193  1.0000
  H   H123      1.0  0.48745  0.33403  0.88916  1.0000
  H   H124      1.0  0.49156  0.36348  0.85991  1.0000
  S   S44       1.0  0.13864  0.06434  0.66576  1.0000
  C   C117      1.0  0.26335  0.22420  0.66866  1.0000
  C   C118      1.0  0.07682  0.21023  0.68953  1.0000
  C   C119      1.0  0.46828  0.19931  0.78026  1.0000
  H   H125      1.0  0.47279  0.18721  0.79459  1.0000
  C   C120      1.0  0.47082  0.39704  0.87448  1.0000
  H   H126      1.0  0.05455  0.19510  0.96990  1.0000
  H   H127      1.0  0.37877  0.17243  0.68088  1.0000
  C   C121      1.0  0.16277  0.03328  0.67048  1.0000
  H   H128      1.0  0.03217  0.16339  0.77886  1.0000
  C   C122      1.0  0.45617  0.38915  0.90847  1.0000
  N   N12       1.0  0.04551  0.19009  0.68976  1.0000
  C   C123      1.0  0.03036  0.17560  0.67220  1.0000
  H   H129      1.0  0.17458  0.29468  0.99058  1.0000
  H   H130      1.0  0.42814  0.17240  0.74694  1.0000
  H   H131      1.0  0.44582  0.41404  0.97482  1.0000
  N   N13       1.0  0.46572  0.36340  0.90712  1.0000
  N   N14       1.0  0.48620  0.18639  0.76438  1.0000
  C   C124      1.0  0.45192  0.39450  0.98084  1.0000
  C   C125      1.0  0.47800  0.16094  0.73292  1.0000
  C   C126      1.0  0.99652  0.33950  0.96840  1.0000
  C   C127      1.0  0.46131  0.17307  0.74830  1.0000
  Fe  Fe22      1.0  0.16217  0.10616  0.67336  1.0000
  C   C128      1.0  0.04857  0.18269  0.90088  1.0000
  C   C129      1.0  0.01926  0.14964  0.91943  1.0000
  H   H132      1.0  0.04828  0.29952  0.94954  1.0000
  C   C130      1.0  0.05613  0.19808  0.91897  1.0000
  H   H133      1.0  0.02387  0.21927  0.95382  1.0000
  H   H134      1.0  0.06919  0.21737  0.91839  1.0000
  C   C131      1.0  0.48076  0.37082  0.87331  1.0000
  H   H135      1.0  0.45460  0.32602  0.91906  1.0000
  C   C132      1.0  0.03004  0.15833  0.90116  1.0000
  C   C133      1.0  0.02696  0.16561  0.93719  1.0000
  H   H136      1.0  0.24504  0.24242  0.66648  1.0000
  C   C134      1.0  0.46503  0.34585  0.92469  1.0000
  H   H137      1.0  0.04287  0.19787  0.72143  1.0000
  H   H138      1.0  0.48275  0.21876  0.78415  1.0000
  C   C135      1.0  0.06950  0.36043  0.99152  1.0000
  H   H139      1.0  0.44759  0.39666  0.92240  1.0000
  H   H140      1.0  0.01624  0.15939  0.95093  1.0000
  C   C136      1.0  0.45846  0.40633  0.89217  1.0000
  H   H141      1.0  0.02219  0.14682  0.88691  1.0000
  H   H142      1.0  0.00219  0.31466  0.93476  1.0000
  H   H143      1.0  0.09831  0.34039  0.96978  1.0000
  C   C137      1.0  0.47832  0.35421  0.88994  1.0000
  C   C138      1.0  0.49086  0.35461  0.98293  1.0000
  H   H144      1.0  0.44379  0.35299  0.93442  1.0000
  C   C139      1.0  0.42855  0.38429  0.99461  1.0000
  C   C140      1.0  0.22256  0.00473  0.67477  1.0000
  C   C141      1.0  0.13776  0.01098  0.67012  1.0000
  C   C142      1.0  0.03252  0.36520  0.99765  1.0000
  H   H145      1.0  0.25547  0.00246  0.67631  1.0000
  H   H146      1.0  0.22510  0.04687  0.67328  1.0000
  H   H147      1.0  0.45177  0.42683  0.89353  1.0000
  C   C143      1.0  0.00097  0.16731  0.70817  1.0000
  C   C144      1.0  0.00099  0.15603  0.67242  1.0000
  C   C145      1.0  0.99575  0.35467  0.98604  1.0000
  H   H148      1.0  0.00309  0.13126  0.91950  1.0000
  C   C146      1.0  0.46712  0.34428  0.99649  1.0000
  Fe  Fe23      1.0  0.43990  0.76703  0.25911  1.0000
  S   S45       1.0  0.41650  0.72552  0.25209  1.0000
  H   H149      1.0  0.19234  0.72374  0.00186  1.0000
  Fe  Fe24      1.0  0.35114  0.78810  0.24980  1.0000
  S   S46       1.0  0.32347  0.74866  0.24285  1.0000
  S   S47       1.0  0.30969  0.82378  0.24753  1.0000
  Fe  Fe25      1.0  0.36966  0.73524  0.27135  1.0000
  S   S48       1.0  0.34301  0.70593  0.29154  1.0000
  Fe  Fe26      1.0  0.37198  0.74224  0.22411  1.0000
  S   S49       1.0  0.34279  0.72898  0.19049  1.0000
  S   S50       1.0  0.39496  0.77556  0.27968  1.0000
  S   S51       1.0  0.39796  0.78291  0.22994  1.0000
  Fe  Fe27      1.0  0.36068  0.64993  0.08429  1.0000
  S   S52       1.0  0.29367  0.63894  0.07277  1.0000
  S   S53       1.0  0.39399  0.66193  0.11755  1.0000
  Fe  Fe28      1.0  0.38334  0.63464  0.04219  1.0000
  S   S54       1.0  0.31754  0.62333  0.02776  1.0000
  S   S55       1.0  0.43826  0.62416  0.02747  1.0000
  Fe  Fe29      1.0  0.29889  0.65940  0.04306  1.0000
  S   S56       1.0  0.25204  0.68798  0.02438  1.0000
  Fe  Fe30      1.0  0.31705  0.60361  0.05834  1.0000
  S   S57       1.0  0.28465  0.56435  0.05875  1.0000
  S   S58       1.0  0.36521  0.67241  0.05528  1.0000
  S   S59       1.0  0.38338  0.61281  0.07216  1.0000
  Fe  Fe31      1.0  0.07258  0.85730  0.18927  1.0000
  C   C147      1.0  0.34262  0.70306  0.31870  1.0000
  S   S60       1.0  0.12153  0.82532  0.19746  1.0000
  Fe  Fe32      1.0  0.04090  0.91013  0.17028  1.0000
  S   S61       1.0  0.05480  0.95038  0.15858  1.0000
  S   S62       1.0  0.05654  0.89518  0.20338  1.0000
  S   S63       1.0  0.06247  0.87365  0.15664  1.0000
  H   H150      1.0  0.18370  0.81263  0.25861  1.0000
  H   H151      1.0  0.32037  0.79483  0.29436  1.0000
  H   H152      1.0  0.40416  0.50521  0.06696  1.0000
  C   C148      1.0  0.04988  0.98069  0.17086  1.0000
  C   C149      1.0  0.37717  0.55613  0.11325  1.0000
  H   H153      1.0  0.02595  0.85755  0.10589  1.0000
  H   H154      1.0  0.25070  0.82804  0.18575  1.0000
  C   C150      1.0  0.30936  0.53352  0.05980  1.0000
  C   C151      1.0  0.35217  0.53134  0.06237  1.0000
  C   C152      1.0  0.01233  0.76404  0.10094  1.0000
  H   H155      1.0  0.37087  0.54871  0.06283  1.0000
  H   H156      1.0  0.25250  0.51209  0.05736  1.0000
  C   C153      1.0  0.19872  0.69239  0.02419  1.0000
  C   C154      1.0  0.17759  0.67652  0.03576  1.0000
  C   C155      1.0  0.06674  0.80397  0.14654  1.0000
  C   C156      1.0  0.11193  0.69758  0.01972  1.0000
  H   H157      1.0  0.03885  0.81269  0.15051  1.0000
  C   C157      1.0  0.46225  0.63858  0.00844  1.0000
  H   H158      1.0  0.19432  0.66193  0.04612  1.0000
  S   S64       1.0  0.05697  0.69747  0.01517  1.0000
  S   S65       1.0  0.00828  0.81667  0.03660  1.0000
  H   H159      1.0  0.15689  0.76942  0.24494  1.0000
  C   C158      1.0  0.20142  0.79518  0.26371  1.0000
  C   C159      1.0  0.25789  0.82429  0.23288  1.0000
  C   C160      1.0  0.23903  0.80218  0.22242  1.0000
  C   C161      1.0  0.19749  0.80307  0.21145  1.0000
  C   C162      1.0  0.17425  0.82602  0.21075  1.0000
  C   C163      1.0  0.19323  0.84825  0.22096  1.0000
  C   C164      1.0  0.23482  0.84733  0.23200  1.0000
  H   H160      1.0  0.25630  0.78433  0.22287  1.0000
  H   H161      1.0  0.18314  0.78576  0.20361  1.0000
  H   H162      1.0  0.17574  0.86604  0.22057  1.0000
  H   H163      1.0  0.24908  0.86457  0.24002  1.0000
  C   C165      1.0  0.35815  0.71042  0.17046  1.0000
  C   C166      1.0  0.32994  0.70719  0.15113  1.0000
  C   C167      1.0  0.34045  0.69281  0.13467  1.0000
  C   C168      1.0  0.37945  0.68138  0.13734  1.0000
  C   C169      1.0  0.40767  0.68464  0.15666  1.0000
  C   C170      1.0  0.39721  0.69911  0.17310  1.0000
  H   H164      1.0  0.29960  0.71580  0.14887  1.0000
  H   H165      1.0  0.31836  0.69054  0.11995  1.0000
  H   H166      1.0  0.43793  0.67590  0.15896  1.0000
  H   H167      1.0  0.41929  0.70138  0.18783  1.0000
  C   C171      1.0  0.00760  0.84409  0.09492  1.0000
  H   H168      1.0  0.39268  0.76705  0.17571  1.0000
  C   C172      1.0  0.21011  0.74868  0.26213  1.0000
  H   H169      1.0  0.10675  0.80972  0.11542  1.0000
  C   C173      1.0  0.28562  0.51065  0.05925  1.0000
  C   C174      1.0  0.13328  0.71397  0.00865  1.0000
  H   H170      1.0  0.26668  0.73377  0.28079  1.0000
  C   C175      1.0  0.04040  0.98220  0.19061  1.0000
  H   H171      1.0  0.30839  0.66698  0.31413  1.0000
  C   C176      1.0  0.32261  0.68149  0.32544  1.0000
  H   H172      1.0  0.28367  0.58185  0.11395  1.0000
  H   H173      1.0  0.25235  0.81604  0.28262  1.0000
  H   H174      1.0  0.07467  0.63794  0.01328  1.0000
  N   N15       1.0  0.05628  0.79213  0.12567  1.0000
  C   C177      1.0  0.18646  0.77089  0.25596  1.0000
  H   H175      1.0  0.03814  0.96455  0.19929  1.0000
  H   H176      1.0  0.37669  0.73820  0.32877  1.0000
  N   N16       1.0  0.26329  0.77513  0.28317  1.0000
  C   C178      1.0  0.24027  0.79698  0.27726  1.0000
  C   C179      1.0  0.24853  0.75114  0.27600  1.0000
  H   H177      1.0  0.19900  0.72968  0.25612  1.0000
  H   H178      1.0  0.13676  0.60469  0.01846  1.0000
  H   H179      1.0  0.39083  0.53927  0.10745  1.0000
  H   H180      1.0  0.43537  0.57538  0.12537  1.0000
  H   H181      1.0  0.00271  0.77321  0.13154  1.0000
  H   H182      1.0  0.41981  0.79510  0.18754  1.0000
  C   C180      1.0  0.08046  0.79666  0.11157  1.0000
  H   H183      1.0  0.04250  0.85018  0.07111  1.0000
  H   H184      1.0  0.31467  0.54261  0.10213  1.0000
  H   H185      1.0  0.11841  0.66646  0.04229  1.0000
  C   C181      1.0  0.02259  0.77608  0.12059  1.0000
  H   H186      1.0  0.08907  0.78944  0.08023  1.0000
  C   C182      1.0  0.13448  0.67911  0.03350  1.0000
  N   N17       1.0  0.34169  0.59955  0.12750  1.0000
  C   C183      1.0  0.38373  0.59796  0.13046  1.0000
  C   C184      1.0  0.31702  0.58017  0.11713  1.0000
  C   C185      1.0  0.40209  0.57630  0.12332  1.0000
  C   C186      1.0  0.33439  0.55798  0.11026  1.0000
  C   C187      1.0  0.32276  0.62269  0.13449  1.0000
  H   H187      1.0  0.40333  0.61364  0.13816  1.0000
  C   C188      1.0  0.30311  0.77747  0.29806  1.0000
  H   H188      1.0  0.39825  0.79485  0.15964  1.0000
  H   H189      1.0  0.31487  0.63682  0.12140  1.0000
  H   H190      1.0  0.29437  0.61756  0.13997  1.0000
  H   H191      1.0  0.34422  0.63252  0.14770  1.0000
  N   N18       1.0  0.35410  0.79935  0.17839  1.0000
  C   C189      1.0  0.31767  0.78765  0.16895  1.0000
  C   C190      1.0  0.35407  0.82136  0.19018  1.0000
  C   C191      1.0  0.27996  0.79772  0.17147  1.0000
  C   C192      1.0  0.31693  0.83187  0.19312  1.0000
  C   C193      1.0  0.27969  0.82009  0.18351  1.0000
  C   C194      1.0  0.39315  0.78870  0.17511  1.0000
  H   H192      1.0  0.31773  0.77004  0.15977  1.0000
  H   H193      1.0  0.38288  0.83056  0.19787  1.0000
  H   H194      1.0  0.25124  0.78797  0.16443  1.0000
  H   H195      1.0  0.31704  0.84869  0.20319  1.0000
  H   H196      1.0  0.04500  0.83025  0.00175  1.0000
  H   H197      1.0  0.29825  0.77915  0.31424  1.0000
  H   H198      1.0  0.32284  0.76020  0.29740  1.0000
  H   H199      1.0  0.42007  0.67054  0.00060  1.0000
  C   C195      1.0  0.07089  0.78510  0.09171  1.0000
  Fe  Fe33      1.0  0.99756  0.85913  0.15277  1.0000
  H   H200      1.0  0.02814  0.76030  0.07082  1.0000
  C   C196      1.0  0.37097  0.50661  0.06471  1.0000
  H   H201      1.0  0.21154  0.60501  0.01862  1.0000
  S   S66       1.0  0.00753  0.84157  0.18500  1.0000
  C   C197      1.0  0.14848  0.61834  0.00851  1.0000
  C   C198      1.0  0.01690  0.83986  0.07517  1.0000
  H   H202      1.0  0.08997  0.81982  0.14759  1.0000
  C   C199      1.0  0.19070  0.61833  0.00861  1.0000
  H   H203      1.0  0.07935  0.78912  0.15854  1.0000
  C   C200      1.0  0.03663  0.76867  0.08642  1.0000
  C   C201      1.0  0.17635  0.71133  0.01087  1.0000
  Fe  Fe34      1.0  0.01372  0.73067  0.00093  1.0000
  H   H204      1.0  0.11648  0.72822  0.99795  1.0000
  H   H205      1.0  0.12729  0.74891  0.57482  1.0000
  H   H206      1.0  0.15716  0.77196  0.60825  1.0000
  Fe  Fe35      1.0  0.15423  0.86276  0.64788  1.0000
  S   S67       1.0  0.14513  0.84532  0.61481  1.0000
  Fe  Fe36      1.0  0.33270  0.64568  0.45415  1.0000
  S   S68       1.0  0.35262  0.63155  0.42545  1.0000
  S   S69       1.0  0.37430  0.65417  0.48601  1.0000
  Fe  Fe37      1.0  0.24208  0.65224  0.43159  1.0000
  S   S70       1.0  0.25568  0.63849  0.40100  1.0000
  S   S71       1.0  0.17439  0.66320  0.43040  1.0000
  Fe  Fe38      1.0  0.29435  0.60720  0.42016  1.0000
  S   S72       1.0  0.29029  0.56644  0.40559  1.0000
  Fe  Fe39      1.0  0.31270  0.66358  0.40825  1.0000
  S   S73       1.0  0.33805  0.69422  0.38864  1.0000
  S   S74       1.0  0.27688  0.61921  0.45012  1.0000
  S   S75       1.0  0.29654  0.67945  0.43760  1.0000
  Fe  Fe40      1.0  0.02131  0.73582  0.49443  1.0000
  C   C202      1.0  0.16904  0.95661  0.62384  1.0000
  S   S76       1.0  0.08493  0.71712  0.49683  1.0000
  H   H207      1.0  0.20471  0.59154  0.38165  1.0000
  H   H208      1.0  0.20242  0.52935  0.44728  1.0000
  C   C203      1.0  0.19073  0.93397  0.62136  1.0000
  C   C204      1.0  0.29184  0.53502  0.41725  1.0000
  C   C205      1.0  0.29300  0.53157  0.43856  1.0000
  C   C206      1.0  0.28919  0.51285  0.40436  1.0000
  H   H209      1.0  0.29501  0.54838  0.44868  1.0000
  H   H210      1.0  0.28823  0.51525  0.38785  1.0000
  C   C207      1.0  0.10833  0.70040  0.47853  1.0000
  C   C208      1.0  0.08654  0.69379  0.45838  1.0000
  C   C209      1.0  0.10708  0.68182  0.44412  1.0000
  C   C210      1.0  0.14969  0.67648  0.44967  1.0000
  C   C211      1.0  0.17133  0.68266  0.46993  1.0000
  C   C212      1.0  0.15071  0.69442  0.48426  1.0000
  H   H211      1.0  0.05389  0.69793  0.45377  1.0000
  H   H212      1.0  0.08990  0.67699  0.42855  1.0000
  H   H213      1.0  0.20404  0.67861  0.47453  1.0000
  H   H214      1.0  0.16791  0.69928  0.49982  1.0000
  C   C213      1.0  0.05538  0.77399  0.60938  1.0000
  C   C214      1.0  0.16917  0.91212  0.61206  1.0000
  H   H215      1.0  0.15004  0.72636  0.41282  1.0000
  C   C215      1.0  0.33913  0.69692  0.36155  1.0000
  C   C216      1.0  0.35910  0.71853  0.35482  1.0000
  C   C217      1.0  0.18803  0.57372  0.38487  1.0000
  H   H216      1.0  0.05171  0.74305  0.56379  1.0000
  H   H217      1.0  0.37337  0.73302  0.36613  1.0000
  H   H218      1.0  0.46397  0.66344  0.40067  1.0000
  H   H219      1.0  0.11079  0.78831  0.63029  1.0000
  C   C218      1.0  0.44727  0.63395  0.47875  1.0000
  C   C219      1.0  0.42759  0.64665  0.49272  1.0000
  C   C220      1.0  0.45119  0.65493  0.51219  1.0000
  C   C221      1.0  0.16084  0.75163  0.46164  1.0000
  H   H220      1.0  0.42946  0.62738  0.46377  1.0000
  H   H221      1.0  0.43611  0.66472  0.52306  1.0000
  H   H222      1.0  0.04565  0.78180  0.44856  1.0000
  C   C222      1.0  0.12414  0.76847  0.60357  1.0000
  C   C223      1.0  0.10106  0.83561  0.59545  1.0000
  C   C224      1.0  0.10710  0.82374  0.57697  1.0000
  C   C225      1.0  0.07342  0.81438  0.56162  1.0000
  C   C226      1.0  0.03308  0.81713  0.56441  1.0000
  C   C227      1.0  0.02696  0.82961  0.58265  1.0000
  C   C228      1.0  0.06069  0.83867  0.59814  1.0000
  H   H223      1.0  0.13816  0.82136  0.57465  1.0000
  H   H224      1.0  0.07869  0.80499  0.54766  1.0000
  C   C229      1.0  0.17718  0.59307  0.43847  1.0000
  H   H225      1.0  0.05543  0.84781  0.61221  1.0000
  N   N19       1.0  0.09078  0.75545  0.44218  1.0000
  H   H226      1.0  0.11102  0.76685  0.47412  1.0000
  C   C230      1.0  0.10130  0.74408  0.42518  1.0000
  H   H227      1.0  0.07206  0.93627  0.60397  1.0000
  H   H228      1.0  0.42995  0.69115  0.39648  1.0000
  H   H229      1.0  0.18343  0.75372  0.47627  1.0000
  S   S77       1.0  0.01947  0.77953  0.49179  1.0000
  C   C231      1.0  0.47123  0.69457  0.47034  1.0000
  H   H230      1.0  0.07804  0.74032  0.41105  1.0000
  S   S78       1.0  0.21891  0.87728  0.66168  1.0000
  H   H231      1.0  0.20314  0.73319  0.44545  1.0000
  C   C232      1.0  0.09806  0.77760  0.61601  1.0000
  C   C233      1.0  0.32093  0.67837  0.34669  1.0000
  N   N20       1.0  0.45008  0.68037  0.42836  1.0000
  H   H232      1.0  0.40677  0.70386  0.46677  1.0000
  H   H233      1.0  0.18614  0.97335  0.63135  1.0000
  H   H234      1.0  0.03398  0.74768  0.45070  1.0000
  H   H235      1.0  0.18556  0.89430  0.61029  1.0000
  H   H236      1.0  0.38892  0.69206  0.42929  1.0000
  N   N21       1.0  0.12696  0.95737  0.61746  1.0000
  N   N22       1.0  0.18748  0.57225  0.40716  1.0000
  C   C234      1.0  0.42059  0.69008  0.43792  1.0000
  H   H237      1.0  0.08808  0.97735  0.63384  1.0000
  C   C235      1.0  0.12627  0.91307  0.60555  1.0000
  H   H238      1.0  0.18637  0.56894  0.46599  1.0000
  H   H239      1.0  0.02859  0.76283  0.42542  1.0000
  C   C236      1.0  0.06453  0.75248  0.57862  1.0000
  H   H240      1.0  0.48223  0.68835  0.55821  1.0000
  N   N23       1.0  0.03913  0.76180  0.59080  1.0000
  C   C237      1.0  0.19511  0.54912  0.41763  1.0000
  C   C238      1.0  0.19490  0.54756  0.43893  1.0000
  H   H241      1.0  0.17170  0.61232  0.40892  1.0000
  C   C239      1.0  0.17805  0.59398  0.41722  1.0000
  S   S79       1.0  0.12499  0.89845  0.65836  1.0000
  C   C240      1.0  0.43063  0.69719  0.45904  1.0000
  H   H242      1.0  0.15604  0.57390  0.37527  1.0000
  C   C241      1.0  0.17187  0.74011  0.44437  1.0000
  C   C242      1.0  0.43861  0.67338  0.40612  1.0000
  H   H243      1.0  0.22394  0.93323  0.62717  1.0000
  H   H244      1.0  0.20275  0.53186  0.40971  1.0000
  H   H245      1.0  0.10923  0.89593  0.59870  1.0000
  H   H246      1.0  0.30552  0.66163  0.35153  1.0000
  H   H247      1.0  0.17042  0.61051  0.44646  1.0000
  C   C243      1.0  0.11984  0.75908  0.46031  1.0000
  C   C244      1.0  0.49428  0.65121  0.51742  1.0000
  C   C245      1.0  0.04771  0.76222  0.44163  1.0000
  H   H248      1.0  0.20508  0.55706  0.37996  1.0000
  C   C246      1.0  0.10737  0.75571  0.58479  1.0000
  C   C247      1.0  0.14199  0.73629  0.42601  1.0000
  H   H249      1.0  0.47916  0.69920  0.48690  1.0000
  C   C248      1.0  0.29074  0.50629  0.44672  1.0000
  H   H250      1.0  0.41151  0.66001  0.40315  1.0000
  C   C249      1.0  0.10549  0.93592  0.60857  1.0000
  C   C250      1.0  0.10429  0.98082  0.62092  1.0000
  H   H251      1.0  0.08134  0.98613  0.60650  1.0000
  C   C251      1.0  0.18605  0.56975  0.44940  1.0000
  H   H252      1.0  0.29117  0.50389  0.46318  1.0000
  H   H253      1.0  0.99587  0.83202  0.58493  1.0000
  C   C252      1.0  0.36092  0.72160  0.33358  1.0000
  H   H254      1.0  0.03524  0.78174  0.61887  1.0000
  C   C253      1.0  0.49034  0.63030  0.48396  1.0000
  C   C254      1.0  0.48997  0.67759  0.43936  1.0000
  H   H255      1.0  0.12524  0.99786  0.62538  1.0000
  H   H256      1.0  0.47486  0.71475  0.57491  1.0000
  H   H257      1.0  0.49414  0.71025  0.61266  1.0000
  Fe  Fe41      1.0  0.12531  0.87579  0.68811  1.0000
  S   S80       1.0  0.06468  0.87805  0.69930  1.0000
  Fe  Fe42      1.0  0.21392  0.85582  0.69082  1.0000
  S   S81       1.0  0.26514  0.83163  0.71169  1.0000
  C   C255      1.0  0.04524  0.83975  0.96962  1.0000
  H   H258      1.0  0.13525  0.96887  0.67183  1.0000
  S   S82       1.0  0.18786  0.89057  0.70476  1.0000
  H   H259      1.0  0.40751  0.63899  0.94364  1.0000
  S   S83       1.0  0.44787  0.79847  0.70504  1.0000
  H   H260      1.0  0.01672  0.80037  0.89543  1.0000
  C   C256      1.0  0.01919  0.88609  0.72907  1.0000
  C   C257      1.0  0.49081  0.66595  0.75063  1.0000
  S   S84       1.0  0.03670  0.77084  0.99660  1.0000
  H   H261      1.0  0.29354  0.88340  0.69731  1.0000
  C   C258      1.0  0.45882  0.61892  0.93565  1.0000
  H   H262      1.0  0.09805  0.85396  0.77419  1.0000
  H   H263      1.0  0.45098  0.84540  0.74191  1.0000
  H   H264      1.0  0.99686  0.89485  0.71644  1.0000
  H   H265      1.0  0.03141  0.81178  0.77098  1.0000
  C   C259      1.0  0.39113  0.85563  0.74727  1.0000
  H   H266      1.0  0.45423  0.68833  0.97331  1.0000
  C   C260      1.0  0.39547  0.80479  0.70618  1.0000
  C   C261      1.0  0.37870  0.79708  0.72307  1.0000
  C   C262      1.0  0.33826  0.80467  0.72407  1.0000
  C   C263      1.0  0.31395  0.82004  0.70825  1.0000
  C   C264      1.0  0.33025  0.82708  0.69105  1.0000
  C   C265      1.0  0.37068  0.81950  0.69006  1.0000
  H   H267      1.0  0.39719  0.78575  0.73559  1.0000
  H   H268      1.0  0.32602  0.79900  0.73743  1.0000
  H   H269      1.0  0.47552  0.65098  0.75858  1.0000
  H   H270      1.0  0.46222  0.63267  0.92356  1.0000
  C   C266      1.0  0.05687  0.87710  0.72529  1.0000
  C   C267      1.0  0.08549  0.86586  0.74178  1.0000
  C   C268      1.0  0.07594  0.86304  0.76164  1.0000
  C   C269      1.0  0.03780  0.87144  0.76525  1.0000
  H   H271      1.0  0.37498  0.89273  0.69498  1.0000
  H   H272      1.0  0.11725  0.66783  0.97532  1.0000
  H   H273      1.0  0.11459  0.85883  0.73912  1.0000
  S   S85       1.0  0.15075  0.83926  0.67648  1.0000
  H   H274      1.0  0.31339  0.91480  0.70748  1.0000
  N   N24       1.0  0.34869  0.88188  0.72067  1.0000
  C   C270      1.0  0.99866  0.80554  0.76917  1.0000
  C   C271      1.0  0.42280  0.85639  0.73636  1.0000
  H   H275      1.0  0.40217  0.60818  0.97226  1.0000
  C   C272      1.0  0.42810  0.62243  0.94690  1.0000
  H   H276      1.0  0.02079  0.85712  0.91878  1.0000
  H   H277      1.0  0.38317  0.82548  0.67685  1.0000
  C   C273      1.0  0.02834  0.83924  0.98738  1.0000
  H   H278      1.0  0.32865  0.86647  0.74705  1.0000
  S   S86       1.0  0.02573  0.86533  0.78996  1.0000
  H   H279      1.0  0.01647  0.96499  0.78913  1.0000
  C   C274      1.0  0.17942  0.65379  0.98391  1.0000
  H   H280      1.0  0.39462  0.84413  0.76143  1.0000
  H   H281      1.0  0.28765  0.89378  0.72254  1.0000
  C   C275      1.0  0.30899  0.89416  0.71161  1.0000
  H   H282      1.0  0.48010  0.68548  0.75444  1.0000
  H   H283      1.0  0.44101  0.86978  0.70859  1.0000
  H   H284      1.0  0.45122  0.57175  0.98047  1.0000
  C   C276      1.0  0.42508  0.60513  0.96293  1.0000
  S   S87       1.0  0.00539  0.78690  0.93637  1.0000
  C   C277      1.0  0.04360  0.85233  0.93342  1.0000
  C   C278      1.0  0.41715  0.87009  0.71758  1.0000
  C   C279      1.0  0.48626  0.59812  0.94066  1.0000
  H   H285      1.0  0.19161  0.66855  0.97503  1.0000
  H   H286      1.0  0.31202  0.83872  0.67867  1.0000
  C   C280      1.0  0.45319  0.58462  0.96760  1.0000
  C   C281      1.0  0.37968  0.88284  0.70992  1.0000
  N   N25       1.0  0.48348  0.58147  0.95659  1.0000
  Fe  Fe43      1.0  0.18899  0.91112  0.67454  1.0000
  C   C282      1.0  0.46634  0.67097  0.98178  1.0000
  C   C283      1.0  0.35393  0.86840  0.73908  1.0000
  C   C284      1.0  0.00967  0.88332  0.74892  1.0000
  H   H287      1.0  0.07502  0.83076  0.97032  1.0000
  C   C285      1.0  0.19746  0.98245  0.67421  1.0000
  N   N26       1.0  0.02423  0.85099  0.95148  1.0000
  H   H288      1.0  0.06836  0.86732  0.93612  1.0000
  H   H289      1.0  0.48070  0.66281  0.73348  1.0000
  C   C286      1.0  0.13744  0.65336  0.98426  1.0000
  H   H290      1.0  0.05700  0.83311  0.93081  1.0000
  S   S88       1.0  0.22014  0.95100  0.67432  1.0000
  H   H291      1.0  0.06397  0.61693  0.99042  1.0000
  C   C287      1.0  0.15496  0.98576  0.67215  1.0000
  H   H292      1.0  0.02006  0.81957  0.73372  1.0000
  H   H293      1.0  0.06155  0.65188  0.98784  1.0000
  C   C288      1.0  0.20613  0.63621  0.99620  1.0000
  H   H294      1.0  0.23899  0.63719  0.99671  1.0000
  N   N27       1.0  0.12251  0.63576  0.99648  1.0000
  C   C289      1.0  0.07853  0.63549  0.99694  1.0000
  H   H295      1.0  0.99648  0.78406  0.76761  1.0000
  C   C290      1.0  0.44695  0.66098  0.99730  1.0000
  C   C291      1.0  0.91763  0.07467  0.24231  1.0000
  S   S89       1.0  0.72674  0.12860  0.28764  1.0000
  H   H296      1.0  0.89062  0.32932  0.02254  1.0000
  S   S90       1.0  0.78537  0.17947  0.30346  1.0000
  Fe  Fe44      1.0  0.72161  0.16537  0.30563  1.0000
  S   S91       1.0  0.67021  0.19643  0.30014  1.0000
  Fe  Fe45      1.0  0.79208  0.14130  0.28770  1.0000
  S   S92       1.0  0.81285  0.13315  0.25720  1.0000
  C   C292      1.0  0.95072  0.07634  0.23238  1.0000
  H   H297      1.0  0.74359  0.28292  0.00571  1.0000
  C   C293      1.0  0.78842  0.03566  0.31594  1.0000
  C   C294      1.0  0.86175  0.26991  0.03719  1.0000
  H   H298      1.0  0.95233  0.06362  0.21936  1.0000
  H   H299      1.0  0.80049  0.23305  0.25991  1.0000
  C   C295      1.0  0.81890  0.27306  0.03109  1.0000
  C   C296      1.0  0.80266  0.01042  0.31280  1.0000
  H   H300      1.0  0.95153  0.03131  0.13764  1.0000
  H   H301      1.0  0.95488  0.18694  0.04716  1.0000
  H   H302      1.0  0.89026  0.09048  0.26660  1.0000
  H   H303      1.0  0.74411  0.29834  0.03067  1.0000
  S   S93       1.0  0.96635  0.12187  0.17463  1.0000
  H   H304      1.0  0.74811  0.31743  0.00815  1.0000
  C   C297      1.0  0.52350  0.37900  0.03672  1.0000
  C   C298      1.0  0.77205  0.19663  0.24834  1.0000
  H   H305      1.0  0.79889  0.25702  0.03324  1.0000
  C   C299      1.0  0.96146  0.19002  0.06390  1.0000
  H   H306      1.0  0.98455  0.23807  0.10025  1.0000
  C   C300      1.0  0.61604  0.19941  0.28892  1.0000
  C   C301      1.0  0.59703  0.22383  0.28940  1.0000
  C   C302      1.0  0.55471  0.22755  0.28020  1.0000
  C   C303      1.0  0.53067  0.20690  0.27008  1.0000
  C   C304      1.0  0.54969  0.18247  0.26958  1.0000
  C   C305      1.0  0.59186  0.17866  0.27906  1.0000
  H   H307      1.0  0.61517  0.24006  0.29701  1.0000
  H   H308      1.0  0.53158  0.16628  0.26190  1.0000
  H   H309      1.0  0.60553  0.15964  0.27873  1.0000
  C   C306      1.0  0.85581  0.14480  0.24774  1.0000
  C   C307      1.0  0.88298  0.16365  0.25842  1.0000
  C   C308      1.0  0.91675  0.17216  0.25025  1.0000
  C   C309      1.0  0.92418  0.16159  0.23158  1.0000
  C   C310      1.0  0.89704  0.14270  0.22095  1.0000
  C   C311      1.0  0.86279  0.13462  0.22887  1.0000
  H   H310      1.0  0.87794  0.17175  0.27290  1.0000
  H   H311      1.0  0.93745  0.18689  0.25852  1.0000
  H   H312      1.0  0.90222  0.13450  0.20653  1.0000
  H   H313      1.0  0.84182  0.12014  0.22042  1.0000
  C   C312      1.0  0.77231  0.22156  0.25680  1.0000
  S   S94       1.0  0.97020  0.14472  0.11590  1.0000
  H   H314      1.0  0.92095  0.28807  0.03891  1.0000
  H   H315      1.0  0.80592  0.05257  0.31309  1.0000
  C   C313      1.0  0.88770  0.29036  0.03435  1.0000
  H   H316      1.0  0.66089  0.16209  0.23293  1.0000
  H   H317      1.0  0.73639  0.16199  0.23908  1.0000
  H   H318      1.0  0.54080  0.24646  0.28076  1.0000
  H   H319      1.0  0.89285  0.06080  0.23694  1.0000
  N   N28       1.0  0.80245  0.29598  0.02247  1.0000
  H   H320      1.0  0.56778  0.38202  0.01714  1.0000
  H   H321      1.0  0.53129  0.35905  0.04136  1.0000
  C   C314      1.0  0.93759  0.01924  0.16684  1.0000
  C   C315      1.0  0.73584  0.18170  0.24500  1.0000
  H   H322      1.0  0.93478  0.03898  0.17224  1.0000
  H   H323      1.0  0.66428  0.16358  0.26084  1.0000
  S   S95       1.0  0.73407  0.07030  0.32863  1.0000
  C   C316      1.0  0.87069  0.31359  0.02544  1.0000
  N   N29       1.0  0.70055  0.19163  0.24946  1.0000
  C   C317      1.0  0.96976  0.17232  0.09942  1.0000
  C   C318      1.0  0.70054  0.21606  0.25779  1.0000
  H   H324      1.0  0.92825  0.00156  0.19511  1.0000
  C   C319      1.0  0.94805  0.10939  0.26551  1.0000
  H   H325      1.0  0.73636  0.25044  0.26872  1.0000
  C   C320      1.0  0.82775  0.31616  0.01966  1.0000
  C   C321      1.0  0.73638  0.23135  0.26165  1.0000
  Fe  Fe46      1.0  0.75449  0.11022  0.31877  1.0000
  C   C322      1.0  0.53208  0.41703  0.01649  1.0000
  H   H326      1.0  0.87498  0.25170  0.04395  1.0000
  H   H327      1.0  0.67294  0.22360  0.26201  1.0000
  H   H328      1.0  0.79994  0.18864  0.24480  1.0000
  Fe  Fe47      1.0  0.96980  0.24690  0.02070  1.0000
  S   S96       1.0  0.81969  0.12080  0.31782  1.0000
  H   H329      1.0  0.81487  0.33414  0.01235  1.0000
  C   C323      1.0  0.75743  0.29882  0.01655  1.0000
  C   C324      1.0  0.66334  0.17537  0.24654  1.0000
  H   H330      1.0  0.63492  0.18745  0.24379  1.0000
  S   S97       1.0  0.96809  0.17225  0.22246  1.0000
  C   C325      1.0  0.96088  0.16881  0.07755  1.0000
  C   C326      1.0  0.91635  0.09117  0.25907  1.0000
  C   C327      1.0  0.97006  0.21514  0.07198  1.0000
  C   C328      1.0  0.97848  0.19743  0.10748  1.0000
  C   C329      1.0  0.72967  0.01660  0.32659  1.0000
  H   H331      1.0  0.95386  0.14949  0.07114  1.0000
  H   H332      1.0  0.98500  0.20049  0.12423  1.0000
  S   S98       1.0  0.97146  0.24272  0.05571  1.0000
  C   C330      1.0  0.94716  0.01494  0.14741  1.0000
  C   C331      1.0  0.97817  0.21872  0.09382  1.0000
  C   C332      1.0  0.98189  0.09475  0.23925  1.0000
  H   H333      1.0  0.83119  0.00818  0.30758  1.0000
  C   C333      1.0  0.54390  0.39186  0.02314  1.0000
  H   H334      1.0  0.94631  0.12255  0.27823  1.0000
  H   H335      1.0  0.54671  0.42673  0.00526  1.0000
  C   C334      1.0  0.75190  0.03894  0.32298  1.0000
  N   N30       1.0  0.97992  0.11126  0.25540  1.0000
  S   S99       1.0  0.98745  0.28773  0.01309  1.0000
  C   C335      1.0  0.49984  0.42902  0.02355  1.0000
  H   H336      1.0  0.80524  0.37126  0.62125  1.0000
  S   S100      1.0  0.86287  0.17329  0.35937  1.0000
  H   H337      1.0  0.77068  0.27165  0.47218  1.0000
  H   H338      1.0  0.68745  0.29460  0.58135  1.0000
  Fe  Fe48      1.0  0.65385  0.41398  0.56465  1.0000
  S   S101      1.0  0.63174  0.38430  0.53904  1.0000
  S   S102      1.0  0.66149  0.45489  0.55203  1.0000
  Fe  Fe49      1.0  0.64926  0.37374  0.59920  1.0000
  S   S103      1.0  0.62702  0.34213  0.57598  1.0000
  S   S104      1.0  0.65587  0.36816  0.63449  1.0000
  Fe  Fe50      1.0  0.67593  0.35649  0.55925  1.0000
  S   S105      1.0  0.71311  0.32396  0.54763  1.0000
  Fe  Fe51      1.0  0.58557  0.37258  0.55780  1.0000
  S   S106      1.0  0.51570  0.36865  0.54866  1.0000
  S   S107      1.0  0.70091  0.38671  0.58382  1.0000
  S   S108      1.0  0.60510  0.40362  0.58213  1.0000
  Fe  Fe52      1.0  0.93040  0.24798  0.47392  1.0000
  S   S109      1.0  0.93546  0.29170  0.47688  1.0000
  S   S110      1.0  0.87924  0.23024  0.44795  1.0000
  Fe  Fe53      1.0  0.92783  0.28628  0.50993  1.0000
  S   S111      1.0  0.88977  0.31717  0.52290  1.0000
  S   S112      1.0  0.92000  0.24280  0.50671  1.0000
  C   C336      1.0  0.50888  0.35953  0.50638  1.0000
  C   C337      1.0  0.84523  0.31990  0.45427  1.0000
  H   H339      1.0  0.54200  0.35686  0.51002  1.0000
  C   C338      1.0  0.76253  0.32262  0.54099  1.0000
  C   C339      1.0  0.77704  0.29846  0.53539  1.0000
  C   C340      1.0  0.81609  0.29623  0.53021  1.0000
  C   C341      1.0  0.84117  0.31826  0.53042  1.0000
  C   C342      1.0  0.82681  0.34235  0.53622  1.0000
  C   C343      1.0  0.78790  0.34454  0.54153  1.0000
  H   H340      1.0  0.75787  0.28130  0.53499  1.0000
  H   H341      1.0  0.82657  0.27755  0.52585  1.0000
  H   H342      1.0  0.84585  0.35955  0.53646  1.0000
  H   H343      1.0  0.77739  0.36325  0.54582  1.0000
  H   H344      1.0  0.50277  0.31559  0.64768  1.0000
  H   H345      1.0  0.53575  0.37703  0.59554  1.0000
  C   C344      1.0  0.61505  0.32098  0.63668  1.0000
  C   C345      1.0  0.63371  0.34303  0.64734  1.0000
  C   C346      1.0  0.77035  0.31565  0.59501  1.0000
  H   H346      1.0  0.70131  0.01886  0.33198  1.0000
  C   C347      1.0  0.79986  0.30933  0.47724  1.0000
  H   H347      1.0  0.61406  0.31876  0.62016  1.0000
  H   H348      1.0  0.91360  0.14185  0.39466  1.0000
  C   C348      1.0  0.86595  0.19121  0.38303  1.0000
  C   C349      1.0  0.83153  0.19548  0.39165  1.0000
  C   C350      1.0  0.83629  0.20758  0.41143  1.0000
  C   C351      1.0  0.87539  0.21572  0.42283  1.0000
  C   C352      1.0  0.90970  0.21186  0.41405  1.0000
  C   C353      1.0  0.90496  0.19968  0.39431  1.0000
  H   H349      1.0  0.80133  0.18911  0.38323  1.0000
  H   H350      1.0  0.80945  0.21050  0.41799  1.0000
  H   H351      1.0  0.93995  0.21804  0.42253  1.0000
  H   H352      1.0  0.93186  0.19651  0.38783  1.0000
  H   H353      1.0  0.58086  0.39230  0.65043  1.0000
  C   C354      1.0  0.66075  0.48622  0.56365  1.0000
  N   N31       1.0  0.83566  0.29677  0.44393  1.0000
  H   H354      1.0  0.67278  0.47304  0.59556  1.0000
  C   C355      1.0  0.80964  0.27939  0.45038  1.0000
  C   C356      1.0  0.70975  0.28864  0.59584  1.0000
  H   H355      1.0  0.53075  0.41387  0.47344  1.0000
  S   S113      1.0  0.74493  0.14629  0.33709  1.0000
  H   H356      1.0  0.82073  0.34182  0.59370  1.0000
  H   H357      1.0  0.83607  0.34449  0.47971  1.0000
  H   H358      1.0  0.77685  0.30320  0.58274  1.0000
  H   H359      1.0  0.85469  0.30716  0.41596  1.0000
  C   C357      1.0  0.49944  0.32272  0.61485  1.0000
  H   H360      1.0  0.78575  0.31435  0.49016  1.0000
  C   C358      1.0  0.82759  0.32649  0.47110  1.0000
  N   N32       1.0  0.85541  0.12521  0.39576  1.0000
  C   C359      1.0  0.85237  0.10847  0.37924  1.0000
  C   C360      1.0  0.82103  0.13182  0.40291  1.0000
  C   C361      1.0  0.81426  0.09756  0.36960  1.0000
  C   C362      1.0  0.78233  0.12152  0.39345  1.0000
  C   C363      1.0  0.77909  0.10410  0.37682  1.0000
  C   C364      1.0  0.89617  0.13505  0.40637  1.0000
  H   H361      1.0  0.87944  0.10370  0.37328  1.0000
  H   H362      1.0  0.82331  0.14539  0.41582  1.0000
  H   H363      1.0  0.81180  0.08438  0.35641  1.0000
  H   H364      1.0  0.75497  0.12714  0.39886  1.0000
  H   H365      1.0  0.74923  0.09606  0.36920  1.0000
  H   H366      1.0  0.72761  0.27177  0.59203  1.0000
  H   H367      1.0  0.89372  0.15202  0.41657  1.0000
  C   C365      1.0  0.55938  0.39439  0.63489  1.0000
  H   H368      1.0  0.69223  0.28208  0.60756  1.0000
  C   C366      1.0  0.85502  0.29021  0.42651  1.0000
  C   C367      1.0  0.78656  0.35400  0.61654  1.0000
  H   H369      1.0  0.86732  0.33316  0.44981  1.0000
  C   C368      1.0  0.79115  0.28548  0.46703  1.0000
  H   H370      1.0  0.88746  0.28405  0.43268  1.0000
  H   H371      1.0  0.83877  0.27383  0.41698  1.0000
  H   H372      1.0  0.80341  0.26056  0.44281  1.0000
  H   H373      1.0  0.58264  0.28490  0.63896  1.0000
  C   C369      1.0  0.59721  0.30178  0.64740  1.0000
  H   H374      1.0  0.70150  0.32308  0.62527  1.0000
  N   N33       1.0  0.73723  0.31056  0.60369  1.0000
  C   C370      1.0  0.75295  0.34854  0.62546  1.0000
  C   C371      1.0  0.72824  0.32674  0.61866  1.0000
  C   C372      1.0  0.79535  0.33749  0.60118  1.0000
  H   H375      1.0  0.91386  0.11950  0.41612  1.0000
  H   H376      1.0  0.74522  0.36150  0.63712  1.0000
  C   C373      1.0  0.66789  0.48979  0.58533  1.0000
  Fe  Fe54      1.0  0.98956  0.24046  0.51700  1.0000
  H   H377      1.0  0.57872  0.40108  0.62401  1.0000
  C   C374      1.0  0.50910  0.32921  0.63606  1.0000
  N   N34       1.0  0.53898  0.36957  0.62796  1.0000
  C   C375      1.0  0.52889  0.35290  0.64237  1.0000
  H   H378      1.0  0.54697  0.42286  0.51171  1.0000
  H   H379      1.0  0.50161  0.33538  0.58363  1.0000
  C   C376      1.0  0.52863  0.36365  0.60708  1.0000
  Fe  Fe55      1.0  0.80856  0.15825  0.33395  1.0000
  C   C377      1.0  0.50903  0.34009  0.60022  1.0000
  H   H380      1.0  0.53602  0.40947  0.63582  1.0000
  C   C378      1.0  0.50653  0.41998  0.48110  1.0000
  H   H381      1.0  0.50227  0.35257  0.47333  1.0000
  C   C379      1.0  0.51560  0.42492  0.50258  1.0000
  H   H382      1.0  0.53731  0.35745  0.65895  1.0000
  H   H383      1.0  0.99012  0.14401  0.65868  1.0000
  H   H384      1.0  0.81605  0.08889  0.83975  1.0000
  S   S114      1.0  0.51107  0.29237  0.72687  1.0000
  Fe  Fe56      1.0  0.59144  0.24127  0.75424  1.0000
  S   S115      1.0  0.61027  0.28090  0.74498  1.0000
  S   S116      1.0  0.63281  0.21435  0.77752  1.0000
  Fe  Fe57      1.0  0.55690  0.29558  0.75791  1.0000
  S   S117      1.0  0.56666  0.33126  0.77941  1.0000
  Fe  Fe58      1.0  0.56334  0.27451  0.71471  1.0000
  S   S118      1.0  0.57046  0.28076  0.68083  1.0000
  S   S119      1.0  0.54034  0.25649  0.76846  1.0000
  S   S120      1.0  0.54795  0.23321  0.72318  1.0000
  Fe  Fe59      1.0  0.63147  0.41092  0.92543  1.0000
  S   S121      1.0  0.56562  0.39912  0.91237  1.0000
  S   S122      1.0  0.65869  0.45075  0.92069  1.0000
  Fe  Fe60      1.0  0.65431  0.35801  0.94610  1.0000
  S   S123      1.0  0.58885  0.34333  0.93530  1.0000
  S   S124      1.0  0.69986  0.32801  0.96383  1.0000
  Fe  Fe61      1.0  0.59159  0.36098  0.90410  1.0000
  S   S125      1.0  0.56698  0.33260  0.87713  1.0000
  Fe  Fe62      1.0  0.56800  0.38232  0.94450  1.0000
  H   H385      1.0  0.99013  0.07502  0.80149  1.0000
  S   S126      1.0  0.65768  0.37393  0.91459  1.0000
  S   S127      1.0  0.63317  0.39584  0.95790  1.0000
  Fe  Fe63      1.0  0.89832  0.10151  0.82066  1.0000
  S   S128      1.0  0.88971  0.06216  0.83510  1.0000
  Fe  Fe64      1.0  0.85879  0.14755  0.79370  1.0000
  S   S129      1.0  0.91983  0.16839  0.79765  1.0000
  S   S130      1.0  0.80266  0.16178  0.76958  1.0000
  Fe  Fe65      1.0  0.94727  0.12953  0.79258  1.0000
  Fe  Fe66      1.0  0.92898  0.15674  0.83178  1.0000
  H   H386      1.0  0.96432  0.13637  0.69120  1.0000
  S   S131      1.0  0.88544  0.10935  0.78635  1.0000
  S   S132      1.0  0.86628  0.13805  0.82791  1.0000
  H   H387      1.0  0.96673  0.35800  0.99069  1.0000
  H   H388      1.0  0.64907  0.36232  0.67731  1.0000
  H   H389      1.0  0.53390  0.15308  0.72235  1.0000
  H   H390      1.0  0.98970  0.00884  0.76152  1.0000
  C   C380      1.0  0.65833  0.27519  0.84160  1.0000
  H   H391      1.0  0.65881  0.31741  0.79297  1.0000
  C   C381      1.0  0.94445  0.19058  0.88232  1.0000
  H   H392      1.0  0.83171  0.28142  0.97417  1.0000
  C   C382      1.0  0.59704  0.30450  0.66880  1.0000
  H   H393      1.0  0.89326  0.00906  0.84911  1.0000
  C   C383      1.0  0.93834  0.19551  0.92475  1.0000
  C   C384      1.0  0.66612  0.31374  0.86417  1.0000
  C   C385      1.0  0.75346  0.32617  0.96412  1.0000
  C   C386      1.0  0.77722  0.34844  0.96293  1.0000
  C   C387      1.0  0.82057  0.34661  0.96618  1.0000
  C   C388      1.0  0.84063  0.32252  0.97048  1.0000
  C   C389      1.0  0.81678  0.30011  0.97098  1.0000
  C   C390      1.0  0.77348  0.30199  0.96790  1.0000
  H   H394      1.0  0.76232  0.36721  0.96017  1.0000
  C   C391      1.0  0.52053  0.16206  0.73431  1.0000
  C   C392      1.0  0.65522  0.26315  0.82213  1.0000
  Fe  Fe67      1.0  0.95685  0.23031  0.97453  1.0000
  S   S133      1.0  0.96161  0.11950  0.82693  1.0000
  C   C393      1.0  0.68131  0.20151  0.77533  1.0000
  C   C394      1.0  0.69341  0.20069  0.75620  1.0000
  C   C395      1.0  0.73092  0.18876  0.75486  1.0000
  C   C396      1.0  0.75718  0.17802  0.77264  1.0000
  C   C397      1.0  0.74551  0.17936  0.79189  1.0000
  C   C398      1.0  0.70754  0.19079  0.79315  1.0000
  H   H395      1.0  0.67358  0.20878  0.74235  1.0000
  H   H396      1.0  0.73965  0.18782  0.73989  1.0000
  H   H397      1.0  0.76546  0.17135  0.80573  1.0000
  H   H398      1.0  0.69846  0.19133  0.80802  1.0000
  C   C399      1.0  0.56551  0.33153  0.80645  1.0000
  C   C400      1.0  0.57631  0.35449  0.81817  1.0000
  C   C401      1.0  0.57717  0.35525  0.83982  1.0000
  C   C402      1.0  0.56670  0.33307  0.84994  1.0000
  C   C403      1.0  0.55570  0.31017  0.83821  1.0000
  C   C404      1.0  0.55538  0.30932  0.81665  1.0000
  H   H399      1.0  0.58427  0.37178  0.81044  1.0000
  H   H400      1.0  0.58569  0.37303  0.84860  1.0000
  C   C405      1.0  0.59322  0.48307  0.92404  1.0000
  H   H401      1.0  0.54708  0.29152  0.80790  1.0000
  C   C406      1.0  0.92370  0.17308  0.91305  1.0000
  C   C407      1.0  0.63450  0.34546  0.66884  1.0000
  C   C408      1.0  0.88922  0.03241  0.82138  1.0000
  C   C409      1.0  0.88620  0.03182  0.79976  1.0000
  C   C410      1.0  0.89095  0.00879  0.83237  1.0000
  H   H402      1.0  0.88516  0.04983  0.79113  1.0000
  S   S134      1.0  0.91356  0.24573  0.99407  1.0000
  C   C411      1.0  0.63440  0.48128  0.92230  1.0000
  H   H403      1.0  0.79664  0.03052  0.78078  1.0000
  S   S135      1.0  0.95565  0.18675  0.85712  1.0000
  H   H404      1.0  0.57553  0.46549  0.92471  1.0000
  H   H405      1.0  0.51504  0.34310  0.97873  1.0000
  C   C412      1.0  0.98647  0.15179  0.69060  1.0000
  H   H406      1.0  0.91621  0.15298  0.88334  1.0000
  N   N35       1.0  0.78471  0.08491  0.80800  1.0000
  C   C413      1.0  0.79132  0.05930  0.80409  1.0000
  C   C414      1.0  0.77761  0.10262  0.79202  1.0000
  C   C415      1.0  0.79077  0.05081  0.78373  1.0000
  C   C416      1.0  0.77719  0.09485  0.77150  1.0000
  C   C417      1.0  0.78393  0.06878  0.76738  1.0000
  C   C418      1.0  0.78534  0.09311  0.82952  1.0000
  H   H407      1.0  0.79803  0.04538  0.81685  1.0000
  H   H408      1.0  0.77278  0.12300  0.79504  1.0000
  H   H409      1.0  0.54752  0.29290  0.84586  1.0000
  H   H410      1.0  0.77243  0.10914  0.75899  1.0000
  N   N36       1.0  0.98630  0.00048  0.79301  1.0000
  C   C419      1.0  0.54581  0.17498  0.75111  1.0000
  H   H411      1.0  0.97150  0.22894  0.88649  1.0000
  S   S136      1.0  0.51367  0.39471  0.95890  1.0000
  C   C420      1.0  0.98717  0.03739  0.81570  1.0000
  C   C421      1.0  0.98582  0.01045  0.81234  1.0000
  C   C422      1.0  0.98944  0.05409  0.79920  1.0000
  H   H412      1.0  0.83865  0.36408  0.96570  1.0000
  H   H413      1.0  0.96551  0.23341  0.92349  1.0000
  C   C423      1.0  0.61607  0.32644  0.67949  1.0000
  C   C424      1.0  0.66285  0.31674  0.82637  1.0000
  Fe  Fe68      1.0  0.93404  0.28510  0.98528  1.0000
  C   C425      1.0  0.65955  0.30534  0.80666  1.0000
  S   S137      1.0  0.97384  0.26967  0.96425  1.0000
  H   H414      1.0  0.54791  0.19735  0.77899  1.0000
  H   H415      1.0  0.76127  0.08245  0.83560  1.0000
  H   H416      1.0  0.57896  0.17608  0.75235  1.0000
  N   N37       1.0  0.66177  0.30169  0.84349  1.0000
  H   H417      1.0  0.77970  0.11433  0.83061  1.0000
  C   C426      1.0  0.92650  0.17065  0.89193  1.0000
  S   S138      1.0  0.89550  0.32167  0.97657  1.0000
  H   H418      1.0  0.61636  0.32883  0.69594  1.0000
  H   H419      1.0  0.91104  0.15719  0.92053  1.0000
  H   H420      1.0  0.98528  0.04531  0.83083  1.0000
  H   H421      1.0  0.69832  0.31173  0.87332  1.0000
  C   C427      1.0  0.52803  0.18707  0.76612  1.0000
  S   S139      1.0  0.98476  0.11470  0.76949  1.0000
  H   H422      1.0  0.65227  0.24214  0.82051  1.0000
  H   H423      1.0  0.65810  0.33477  0.86297  1.0000
  H   H424      1.0  0.64467  0.30452  0.87295  1.0000
  C   C428      1.0  0.95449  0.21594  0.91483  1.0000
  H   H425      1.0  0.75538  0.28460  0.96867  1.0000
  C   C429      1.0  0.65577  0.27838  0.80459  1.0000
  H   H426      1.0  0.65311  0.26928  0.78940  1.0000
  H   H427      1.0  0.66516  0.33777  0.82774  1.0000
  H   H428      1.0  0.99033  0.16395  0.72250  1.0000
  H   H429      1.0  0.78434  0.06259  0.75158  1.0000
  S   S140      1.0  0.94004  0.19587  0.95213  1.0000
  H   H430      1.0  0.65783  0.26325  0.85519  1.0000
  H   H431      1.0  0.88097  0.00755  0.77240  1.0000
  C   C430      1.0  0.95775  0.21338  0.89380  1.0000
  H   H432      1.0  0.96774  0.33132  0.95956  1.0000
  C   C431      1.0  0.98897  0.01674  0.77680  1.0000
  H   H433      1.0  0.49648  0.34459  0.93486  1.0000
  C   C432      1.0  0.88389  0.00782  0.78918  1.0000
  Fe  Fe69      1.0  0.49803  0.25158  0.73665  1.0000
  C   C433      1.0  0.99046  0.04377  0.77963  1.0000
  H   H434      1.0  0.99223  0.05676  0.76676  1.0000
  Fe  Fe70      1.0  0.80425  0.86257  0.29729  1.0000
  S   S141      1.0  0.84269  0.84182  0.27726  1.0000
  Fe  Fe71      1.0  0.71542  0.86990  0.30322  1.0000
  S   S142      1.0  0.64572  0.86515  0.28891  1.0000
  Fe  Fe72      1.0  0.78043  0.91428  0.31467  1.0000
  H   H435      1.0  0.91806  0.93531  0.17898  1.0000
  S   S143      1.0  0.75514  0.89198  0.28497  1.0000
  S   S144      1.0  0.76290  0.83866  0.31349  1.0000
  H   H436      1.0  0.68702  0.64277  0.00331  1.0000
  S   S145      1.0  0.96540  0.74405  0.01825  1.0000
  H   H437      1.0  0.95573  0.94930  0.14966  1.0000
  C   C434      1.0  0.55810  0.70201  0.00862  1.0000
  C   C435      1.0  0.68211  0.86434  0.24282  1.0000
  H   H438      1.0  0.50945  0.60916  0.01247  1.0000
  S   S146      1.0  0.80176  0.95682  0.31348  1.0000
  C   C436      1.0  0.75663  0.84209  0.24003  1.0000
  H   H439      1.0  0.94225  0.79555  0.05526  1.0000
  C   C437      1.0  0.74608  0.86655  0.23112  1.0000
  C   C438      1.0  0.66054  0.65468  0.00434  1.0000
  C   C439      1.0  0.95087  0.81359  0.08584  1.0000
  C   C440      1.0  0.96052  0.80909  0.06620  1.0000
  H   H440      1.0  0.77713  0.80305  0.26615  1.0000
  H   H441      1.0  0.96962  0.94302  0.19319  1.0000
  C   C441      1.0  0.93816  0.95107  0.18734  1.0000
  C   C442      1.0  0.95306  0.98958  0.14109  1.0000
  S   S147      1.0  0.97492  0.89668  0.16367  1.0000
  H   H442      1.0  0.92514  0.80338  0.08988  1.0000
  H   H443      1.0  0.70034  0.89695  0.22618  1.0000
  C   C443      1.0  0.97458  0.83088  0.10039  1.0000
  S   S148      1.0  0.83207  0.88567  0.32613  1.0000
  C   C444      1.0  0.69387  0.84003  0.25171  1.0000
  N   N38       1.0  0.93989  0.97315  0.17338  1.0000
  N   N39       1.0  0.59253  0.68511  0.00662  1.0000
  H   H444      1.0  0.97580  0.84921  0.00006  1.0000
  C   C445      1.0  0.60860  0.83910  0.28431  1.0000
  C   C446      1.0  0.56671  0.84494  0.27609  1.0000
  C   C447      1.0  0.53629  0.82509  0.27164  1.0000
  C   C448      1.0  0.54734  0.79892  0.27514  1.0000
  C   C449      1.0  0.58930  0.79308  0.28329  1.0000
  C   C450      1.0  0.61965  0.81294  0.28795  1.0000
  H   H445      1.0  0.55761  0.86502  0.27318  1.0000
  S   S149      1.0  0.96291  0.83430  0.12547  1.0000
  H   H446      1.0  0.59833  0.77297  0.28612  1.0000
  H   H447      1.0  0.65153  0.80797  0.29434  1.0000
  C   C451      1.0  0.87158  0.85697  0.26054  1.0000
  C   C452      1.0  0.89498  0.84141  0.24977  1.0000
  C   C453      1.0  0.91813  0.85262  0.23627  1.0000
  C   C454      1.0  0.91800  0.87960  0.23330  1.0000
  C   C455      1.0  0.89425  0.89511  0.24392  1.0000
  C   C456      1.0  0.87121  0.88392  0.25745  1.0000
  H   H448      1.0  0.89549  0.82054  0.25200  1.0000
  H   H449      1.0  0.93612  0.84041  0.22822  1.0000
  H   H450      1.0  0.89388  0.91598  0.24179  1.0000
  H   H451      1.0  0.85338  0.89617  0.26557  1.0000
  C   C457      1.0  0.74307  0.80411  0.26024  1.0000
  H   H452      1.0  0.50434  0.83004  0.26540  1.0000
  C   C458      1.0  0.70860  0.87776  0.23262  1.0000
  C   C459      1.0  0.94936  0.96881  0.15436  1.0000
  N   N40       1.0  0.73114  0.82951  0.25066  1.0000
  C   C460      1.0  0.74353  0.99134  0.32307  1.0000
  H   H453      1.0  0.64042  0.62972  0.02662  1.0000
  H   H454      1.0  0.76731  0.87686  0.22349  1.0000
  H   H455      1.0  0.92576  0.95650  0.20118  1.0000
  H   H456      1.0  0.65314  0.87295  0.24445  1.0000
  C   C461      1.0  0.78037  0.98809  0.31632  1.0000
  H   H457      1.0  0.73304  0.78839  0.24860  1.0000
  H   H458      1.0  0.67328  0.82992  0.25984  1.0000
  H   H459      1.0  0.72902  0.80078  0.27396  1.0000
  H   H460      1.0  0.78590  0.83356  0.23886  1.0000
  C   C462      1.0  0.63441  0.64738  0.01740  1.0000
  H   H461      1.0  0.58036  0.65726  0.02871  1.0000
  S   S150      1.0  0.51067  0.77271  0.26925  1.0000
  H   H462      1.0  0.98483  0.75202  0.09672  1.0000
  C   C463      1.0  0.60051  0.66303  0.01849  1.0000
  S   S151      1.0  0.94642  0.89511  0.21651  1.0000
  H   H463      1.0  0.53422  0.69117  0.01479  1.0000
  H   H464      1.0  0.56958  0.71849  0.01930  1.0000
  H   H465      1.0  0.72589  0.97443  0.32576  1.0000
  H   H466      1.0  0.96228  0.98601  0.12644  1.0000
  Fe  Fe73      1.0  0.98679  0.78441  0.01253  1.0000
  Fe  Fe74      1.0  0.99049  0.88050  0.19643  1.0000
  C   C464      1.0  0.49733  0.62648  0.00394  1.0000
  C   C465      1.0  0.93416  0.99799  0.17973  1.0000
  C   C466      1.0  0.99377  0.82212  0.06081  1.0000
  H   H467      1.0  0.81700  0.83837  0.41977  1.0000
  C   C467      1.0  0.58267  0.72129  0.65962  1.0000
  H   H468      1.0  0.98463  0.75315  0.56740  1.0000
  S   S152      1.0  0.80002  0.85061  0.37596  1.0000
  Fe  Fe75      1.0  0.62855  0.66346  0.58460  1.0000
  S   S153      1.0  0.63995  0.67846  0.55387  1.0000
  S   S154      1.0  0.60139  0.69331  0.60401  1.0000
  Fe  Fe76      1.0  0.65798  0.60835  0.57622  1.0000
  S   S155      1.0  0.67222  0.61962  0.54540  1.0000
  S   S156      1.0  0.67057  0.56883  0.59242  1.0000
  Fe  Fe77      1.0  0.69997  0.65650  0.56128  1.0000
  S   S157      1.0  0.76403  0.67435  0.56182  1.0000
  Fe  Fe78      1.0  0.61118  0.64083  0.54013  1.0000
  S   S158      1.0  0.56856  0.63707  0.50788  1.0000
  S   S159      1.0  0.69017  0.64373  0.59290  1.0000
  S   S160      1.0  0.59532  0.62725  0.57005  1.0000
  Fe  Fe79      1.0  0.92892  0.73291  0.49711  1.0000
  S   S161      1.0  0.92171  0.77639  0.49396  1.0000
  S   S162      1.0  0.87135  0.70705  0.49513  1.0000
  Fe  Fe80      1.0  0.95838  0.77371  0.46890  1.0000
  S   S163      1.0  0.94918  0.79011  0.43562  1.0000
  S   S164      1.0  0.96226  0.72997  0.47047  1.0000
  C   C468      1.0  0.66430  0.53726  0.58082  1.0000
  C   C469      1.0  0.78951  0.91754  0.38289  1.0000
  C   C470      1.0  0.65607  0.53367  0.55912  1.0000
  H   H469      1.0  0.98357  0.74297  0.59368  1.0000
  H   H470      1.0  0.65127  0.55042  0.54889  1.0000
  C   C471      1.0  0.78766  0.76832  0.43111  1.0000
  H   H471      1.0  0.84607  0.76537  0.39453  1.0000
  C   C472      1.0  0.65482  0.50834  0.55064  1.0000
  C   C473      1.0  0.79222  0.68411  0.54271  1.0000
  C   C474      1.0  0.77981  0.67743  0.52152  1.0000
  C   C475      1.0  0.80434  0.68466  0.50726  1.0000
  C   C476      1.0  0.84137  0.69886  0.51387  1.0000
  C   C477      1.0  0.85355  0.70573  0.53501  1.0000
  C   C478      1.0  0.82930  0.69823  0.54930  1.0000
  H   H472      1.0  0.75150  0.66656  0.51614  1.0000
  H   H473      1.0  0.79455  0.67913  0.49099  1.0000
  H   H474      1.0  0.88186  0.71658  0.54041  1.0000
  H   H475      1.0  0.83933  0.70348  0.56563  1.0000
  H   H476      1.0  0.89386  0.91612  0.36239  1.0000
  H   H477      1.0  0.75891  0.77660  0.43330  1.0000
  C   C479      1.0  0.61353  0.67549  0.64529  1.0000
  C   C480      1.0  0.60167  0.69602  0.63124  1.0000
  C   C481      1.0  0.58639  0.71893  0.63860  1.0000
  C   C482      1.0  0.99426  0.75841  0.58425  1.0000
  H   H478      1.0  0.62516  0.65770  0.63992  1.0000
  H   H479      1.0  0.57713  0.73497  0.62794  1.0000
  C   C483      1.0  0.84899  0.74439  0.44406  1.0000
  N   N41       1.0  0.84152  0.93745  0.36759  1.0000
  C   C484      1.0  0.84276  0.83471  0.39241  1.0000
  C   C485      1.0  0.87617  0.82523  0.38486  1.0000
  C   C486      1.0  0.90865  0.81204  0.39841  1.0000
  C   C487      1.0  0.90822  0.80807  0.41964  1.0000
  C   C488      1.0  0.87506  0.81784  0.42726  1.0000
  C   C489      1.0  0.84259  0.83107  0.41371  1.0000
  H   H480      1.0  0.87684  0.82782  0.36854  1.0000
  H   H481      1.0  0.93413  0.80464  0.39231  1.0000
  H   H482      1.0  0.87426  0.81506  0.44354  1.0000
  H   H483      1.0  0.84469  0.89842  0.37904  1.0000
  H   H484      1.0  0.86870  0.73353  0.45654  1.0000
  H   H485      1.0  0.79397  0.72957  0.46884  1.0000
  C   C490      1.0  0.86145  0.74794  0.42519  1.0000
  N   N42       1.0  0.81266  0.75468  0.44688  1.0000
  H   H486      1.0  0.51332  0.66955  0.43195  1.0000
  S   S165      1.0  0.73776  0.89446  0.33224  1.0000
  H   H487      1.0  0.77290  0.76196  0.46813  1.0000
  C   C491      1.0  0.78146  0.96184  0.37062  1.0000
  C   C492      1.0  0.83622  0.76183  0.40904  1.0000
  H   H488      1.0  0.89101  0.74056  0.42330  1.0000
  C   C493      1.0  0.79905  0.77210  0.41197  1.0000
  H   H489      1.0  0.67652  0.51768  0.61064  1.0000
  H   H490      1.0  0.90346  0.94976  0.36989  1.0000
  N   N43       1.0  0.50135  0.68058  0.59093  1.0000
  C   C494      1.0  0.67004  0.51516  0.59384  1.0000
  C   C495      1.0  0.81946  0.96009  0.36479  1.0000
  H   H491      1.0  0.77789  0.90056  0.38967  1.0000
  H   H492      1.0  0.77982  0.78352  0.39965  1.0000
  H   H493      1.0  0.82616  0.75645  0.48012  1.0000
  N   N44       1.0  0.76986  0.59378  0.56898  1.0000
  C   C496      1.0  0.75138  0.56999  0.56447  1.0000
  C   C497      1.0  0.78209  0.60792  0.55368  1.0000
  C   C498      1.0  0.74272  0.56039  0.54397  1.0000
  C   C499      1.0  0.77361  0.59906  0.53298  1.0000
  C   C500      1.0  0.75351  0.57520  0.52811  1.0000
  C   C501      1.0  0.77814  0.60366  0.59050  1.0000
  H   H494      1.0  0.74271  0.55844  0.57670  1.0000
  H   H495      1.0  0.79803  0.62635  0.55737  1.0000
  H   H496      1.0  0.72729  0.54172  0.54044  1.0000
  H   H497      1.0  0.78228  0.61081  0.52085  1.0000
  H   H498      1.0  0.74631  0.56819  0.51209  1.0000
  H   H499      1.0  0.75344  0.59740  0.59856  1.0000
  H   H500      1.0  0.80830  0.59632  0.59936  1.0000
  H   H501      1.0  0.77860  0.62534  0.59075  1.0000
  C   C502      1.0  0.80059  0.75055  0.46688  1.0000
  C   C503      1.0  0.88060  0.93605  0.36068  1.0000
  Fe  Fe81      1.0  0.98348  0.77845  0.51718  1.0000
  C   C504      1.0  0.82729  0.91641  0.37676  1.0000
  H   H502      1.0  0.52709  0.63488  0.63884  1.0000
  C   C505      1.0  0.76633  0.94033  0.37960  1.0000
  H   H503      1.0  0.83052  0.97665  0.35727  1.0000
  H   H504      1.0  0.52963  0.61838  0.60339  1.0000
  C   C506      1.0  0.49580  0.69851  0.57313  1.0000
  H   H505      1.0  0.87541  0.94122  0.34380  1.0000
  Fe  Fe82      1.0  0.78774  0.86408  0.34160  1.0000
  H   H506      1.0  0.53244  0.68158  0.46944  1.0000
  H   H507      1.0  0.73647  0.94117  0.38376  1.0000
  H   H508      1.0  0.51236  0.65823  0.53218  1.0000
  C   C507      1.0  0.51882  0.64750  0.62530  1.0000
  H   H509      1.0  0.51360  0.64807  0.57302  1.0000
  S   S166      1.0  0.98941  0.80463  0.54613  1.0000
  C   C508      1.0  0.50822  0.67337  0.62780  1.0000
  C   C509      1.0  0.52034  0.63827  0.60545  1.0000
  C   C510      1.0  0.49993  0.68982  0.61037  1.0000
  H   H510      1.0  0.97833  0.77701  0.58606  1.0000
  H   H511      1.0  0.50868  0.68104  0.64330  1.0000
  C   C511      1.0  0.51409  0.63920  0.50318  1.0000
  C   C512      1.0  0.50115  0.68466  0.46049  1.0000
  H   H512      1.0  0.50544  0.62091  0.47289  1.0000
  H   H513      1.0  0.64918  0.50583  0.53385  1.0000
  H   H514      1.0  0.52635  0.70676  0.57208  1.0000
  C   C513      1.0  0.51136  0.65518  0.58832  1.0000
  S   S167      1.0  0.98864  0.73496  0.52142  1.0000
  H   H515      1.0  0.76348  0.97958  0.36769  1.0000
  Fe  Fe83      1.0  0.59388  0.78261  0.74772  1.0000
  S   S168      1.0  0.60379  0.73960  0.75319  1.0000
  S   S169      1.0  0.63870  0.81498  0.76209  1.0000
  C   C514      1.0  0.80811  0.66130  0.92968  1.0000
  C   C515      1.0  0.56038  0.67052  0.74391  1.0000
  Fe  Fe84      1.0  0.54190  0.73977  0.76179  1.0000
  C   C516      1.0  0.97436  0.80533  0.91581  1.0000
  Fe  Fe85      1.0  0.56839  0.73491  0.71956  1.0000
  S   S170      1.0  0.58830  0.70192  0.70010  1.0000
  S   S171      1.0  0.53352  0.78315  0.75831  1.0000
  S   S172      1.0  0.56278  0.77809  0.71364  1.0000
  Fe  Fe86      1.0  0.61361  0.65402  0.90427  1.0000
  S   S173      1.0  0.65504  0.62018  0.91695  1.0000
  S   S174      1.0  0.62996  0.67526  0.87622  1.0000
  Fe  Fe87      1.0  0.57362  0.65324  0.94289  1.0000
  S   S175      1.0  0.61351  0.62057  0.95809  1.0000
  C   C517      1.0  0.57472  0.50768  0.92457  1.0000
  Fe  Fe88      1.0  0.66546  0.64151  0.94769  1.0000
  S   S176      1.0  0.72995  0.64410  0.96862  1.0000
  Fe  Fe89      1.0  0.59964  0.60217  0.92613  1.0000
  S   S177      1.0  0.57184  0.56121  0.92383  1.0000
  S   S178      1.0  0.62674  0.67585  0.93496  1.0000
  S   S179      1.0  0.55700  0.63436  0.91106  1.0000
  Fe  Fe90      1.0  0.91387  0.87119  0.83242  1.0000
  S   S180      1.0  0.85550  0.88495  0.81035  1.0000
  H   H516      1.0  0.61134  0.70969  0.98413  1.0000
  Fe  Fe91      1.0  0.96316  0.87321  0.79766  1.0000
  S   S181      1.0  0.90834  0.88595  0.77356  1.0000
  Fe  Fe92      1.0  0.89678  0.91355  0.79846  1.0000
  S   S182      1.0  0.88238  0.95469  0.78592  1.0000
  Fe  Fe93      1.0  0.87207  0.85653  0.78756  1.0000
  S   S183      1.0  0.83232  0.82535  0.76813  1.0000
  S   S184      1.0  0.92815  0.84133  0.81005  1.0000
  C   C518      1.0  0.98947  0.84996  0.98644  1.0000
  H   H517      1.0  0.75400  0.78293  0.79911  1.0000
  H   H518      1.0  0.57079  0.73902  0.66495  1.0000
  C   C519      1.0  0.71444  0.71408  0.90125  1.0000
  S   S185      1.0  0.52371  0.71704  0.78862  1.0000
  S   S186      1.0  0.96894  0.73045  0.96939  1.0000
  C   C520      1.0  0.88560  0.98419  0.80015  1.0000
  C   C521      1.0  0.65689  0.50439  0.92140  1.0000
  H   H519      1.0  0.88917  0.84406  0.90444  1.0000
  H   H520      1.0  0.89083  0.96668  0.83045  1.0000
  C   C522      1.0  0.76702  0.79773  0.81050  1.0000
  C   C523      1.0  0.93149  0.83906  0.88404  1.0000
  C   C524      1.0  0.96725  0.82632  0.88152  1.0000
  H   H521      1.0  0.70657  0.66325  0.90591  1.0000
  C   C525      1.0  0.98858  0.80965  0.89735  1.0000
  C   C526      1.0  0.62127  0.66492  0.77140  1.0000
  H   H522      1.0  0.61859  0.66170  0.67692  1.0000
  H   H523      1.0  0.86550  0.68710  0.98968  1.0000
  N   N45       1.0  0.53586  0.66455  0.75755  1.0000
  C   C527      1.0  0.59720  0.53078  0.92360  1.0000
  C   C528      1.0  0.63852  0.52901  0.92216  1.0000
  H   H524      1.0  0.65455  0.66555  0.77686  1.0000
  H   H525      1.0  0.65620  0.54656  0.92135  1.0000
  S   S187      1.0  0.95392  0.90221  0.82214  1.0000
  C   C529      1.0  0.76340  0.67154  0.97111  1.0000
  C   C530      1.0  0.74926  0.69604  0.96350  1.0000
  C   C531      1.0  0.77689  0.71727  0.96554  1.0000
  C   C532      1.0  0.81908  0.71420  0.97476  1.0000
  H   H526      1.0  0.67253  0.68302  0.98222  1.0000
  C   C533      1.0  0.80535  0.66858  0.98082  1.0000
  C   C534      1.0  0.60340  0.67062  0.75057  1.0000
  C   C535      1.0  0.90616  0.83454  0.73343  1.0000
  H   H527      1.0  0.87425  0.83890  0.73366  1.0000
  C   C536      1.0  0.82683  0.82124  0.82930  1.0000
  H   H528      1.0  0.82945  0.79040  0.80734  1.0000
  C   C537      1.0  0.69190  0.81815  0.76205  1.0000
  C   C538      1.0  0.71372  0.79871  0.75420  1.0000
  C   C539      1.0  0.75658  0.80146  0.75573  1.0000
  C   C540      1.0  0.77805  0.82349  0.76531  1.0000
  C   C541      1.0  0.75619  0.84297  0.77307  1.0000
  C   C542      1.0  0.71332  0.84035  0.77133  1.0000
  H   H529      1.0  0.69760  0.78155  0.74699  1.0000
  H   H530      1.0  0.77321  0.78631  0.74963  1.0000
  H   H531      1.0  0.77228  0.86006  0.78041  1.0000
  H   H532      1.0  0.69667  0.85557  0.77734  1.0000
  C   C543      1.0  0.55381  0.70649  0.81321  1.0000
  C   C544      1.0  0.53411  0.69308  0.82708  1.0000
  C   C545      1.0  0.55671  0.68349  0.84641  1.0000
  C   C546      1.0  0.59951  0.68709  0.85212  1.0000
  C   C547      1.0  0.61927  0.70038  0.83819  1.0000
  C   C548      1.0  0.59663  0.71007  0.81889  1.0000
  C   C549      1.0  0.59409  0.70066  0.67362  1.0000
  H   H533      1.0  0.54099  0.67333  0.85689  1.0000
  H   H534      1.0  0.84844  0.69485  0.93483  1.0000
  H   H535      1.0  0.61229  0.72020  0.80838  1.0000
  H   H536      1.0  0.85993  0.82467  0.83303  1.0000
  C   C550      1.0  0.80978  0.80178  0.81515  1.0000
  H   H537      1.0  0.72391  0.73472  0.90431  1.0000
  C   C551      1.0  0.93794  0.81749  0.91806  1.0000
  H   H538      1.0  0.68071  0.82660  0.80845  1.0000
  H   H539      1.0  0.54272  0.50878  0.92559  1.0000
  N   N46       1.0  0.97233  0.81793  0.75089  1.0000
  H   H540      1.0  0.54539  0.56805  0.96432  1.0000
  H   H541      1.0  0.75990  0.63221  0.92333  1.0000
  H   H542      1.0  0.70583  0.71071  0.88407  1.0000
  C   C552      1.0  0.88960  0.98475  0.82185  1.0000
  H   H543      1.0  0.50102  0.69015  0.82287  1.0000
  C   C553      1.0  0.83319  0.68972  0.98247  1.0000
  H   H544      1.0  0.76568  0.73616  0.95962  1.0000
  C   C554      1.0  0.98787  0.82331  0.73363  1.0000
  C   C555      1.0  0.92198  0.84062  0.71595  1.0000
  S   S188      1.0  0.50672  0.73198  0.72862  1.0000
  H   H545      1.0  0.98955  0.81159  0.78383  1.0000
  Fe  Fe94      1.0  0.92259  0.74719  0.98626  1.0000
  S   S189      1.0  0.52453  0.67220  0.95756  1.0000
  C   C556      1.0  0.81765  0.68757  0.92798  1.0000
  H   H546      1.0  0.97895  0.82970  0.86757  1.0000
  H   H547      1.0  0.68640  0.71080  0.90764  1.0000
  H   H548      1.0  0.79414  0.72529  0.91790  1.0000
  N   N47       1.0  0.74192  0.81286  0.81957  1.0000
  C   C557      1.0  0.75838  0.83217  0.83333  1.0000
  C   C558      1.0  0.80106  0.83660  0.83845  1.0000
  C   C559      1.0  0.69712  0.80850  0.81475  1.0000
  H   H549      1.0  0.73847  0.84436  0.84033  1.0000
  S   S190      1.0  0.94070  0.78903  0.98189  1.0000
  H   H550      1.0  0.68747  0.79327  0.80255  1.0000
  H   H551      1.0  0.68668  0.80236  0.82900  1.0000
  H   H552      1.0  0.91927  0.81840  0.76435  1.0000
  H   H553      1.0  0.97605  0.83998  0.70265  1.0000
  C   C560      1.0  0.59604  0.65899  0.78524  1.0000
  C   C561      1.0  0.61787  0.69232  0.99368  1.0000
  C   C562      1.0  0.93187  0.82301  0.75082  1.0000
  S   S191      1.0  0.85262  0.74131  0.97523  1.0000
  C   C563      1.0  0.96805  0.86117  0.96783  1.0000
  H   H554      1.0  0.92657  0.81437  0.93214  1.0000
  H   H555      1.0  0.93749  0.86915  0.96685  1.0000
  H   H556      1.0  0.53370  0.65543  0.78906  1.0000
  H   H557      1.0  0.81426  0.85198  0.84929  1.0000
  S   S192      1.0  0.90492  0.86176  0.86536  1.0000
  H   H558      1.0  0.62259  0.67576  0.73969  1.0000
  C   C564      1.0  0.76797  0.65247  0.92160  1.0000
  H   H559      1.0  0.71713  0.69867  0.95602  1.0000
  H   H560      1.0  0.54309  0.62660  0.98489  1.0000
  C   C565      1.0  0.96302  0.83483  0.71595  1.0000
  H   H561      1.0  0.65235  0.70324  0.84236  1.0000
  C   C566      1.0  0.65232  0.67729  0.99243  1.0000
  H   H562      1.0  0.83145  0.64796  0.93779  1.0000
  C   C567      1.0  0.73778  0.67017  0.91206  1.0000
  H   H563      1.0  0.90255  0.84997  0.70249  1.0000
  C   C568      1.0  0.91686  0.83438  0.90234  1.0000
  C   C569      1.0  0.78661  0.70477  0.91846  1.0000
  N   N48       1.0  0.74714  0.69600  0.91090  1.0000
  H   H564      1.0  0.60944  0.65530  0.80164  1.0000
  C   C570      1.0  0.55314  0.65890  0.77800  1.0000
  C   C571      1.0  0.51641  0.63628  0.98826  1.0000
  H   H565      1.0  0.81655  0.64974  0.98686  1.0000
  C   C572      1.0  0.60957  0.67779  0.66628  1.0000
  H   H566      1.0  0.98322  0.99764  0.82515  1.0000
  C   C573      1.0  0.50095  0.65859  0.97705  1.0000
  H   H567      1.0  0.54677  0.67566  0.72782  1.0000
  Fe  Fe95      1.0  0.50265  0.77557  0.72466  1.0000
  H   H568      1.0  0.98030  0.88997  0.75142  1.0000
  H   H569      1.0  0.96924  0.87038  0.93599  1.0000
  H   H570      1.0  0.96330  0.96716  0.77472  1.0000
  Fe  Fe96      1.0  0.98843  0.77210  0.96641  1.0000
  H   H571      1.0  0.68872  0.50322  0.92002  1.0000
  C   C574      1.0  0.98617  0.86175  0.95044  1.0000
  H   H572      1.0  0.50911  0.54625  0.94838  1.0000
  H   H573      1.0  0.51032  0.54948  0.97596  1.0000
  C   C575      1.0  0.51334  0.56022  0.96166  1.0000
  C   C576      1.0  0.98522  0.97223  0.78964  1.0000
  H   H574      1.0  0.97408  0.96167  0.80218  1.0000
  H   H575      1.0  0.51022  0.59558  0.93194  1.0000
  H   H576      1.0  0.54240  0.70979  0.99306  1.0000
