data_image0
_chemical_formula_structural       HCSFeS2CHSFeSHFeS2FeS2NS2CSC7HNH2C6H2CHC6H4C2FeHCH2NC3H3FeHC3HCH3CHFeHSCHCH2CHC3SNH8SC2HCH2CHFeCHC2HCSHC2SH3SCS2FeS2FeS2FeS2FeCSFeS4CHCFeC3HCH2C6H3C7H4C7H3CNCHC2HFeSH3C2HCH3CFeCH2CH3C4SNH3SH4NCHCH3CHCHNCFeS2FeS2FeS2FeHSFeS2CSHFeHSFeSC7H2C8H2FeHC3HC2HC8H4SHNSH3CH3CHCH5CH5NCH2C2H2C2H2S3HCNCH2C3H4CNCH2CSH3FeS2HSHFeS2FeS2FeS2NS2C6H4NC8H2C6H3C8NH2CHSCHSH3CH3FeH3SCFeCHCHC2HSFeHSH5CFeHCHC4HC2H3CHC2H3CHSNFeS2FeS2FeSFeS3FeHSCHSH2C7H4C2FeS2CHFeH2C3HFeCH2C9H4SH3C2H3CH2C2H2C5HNCH2CHCHCHCH5CHCHCHCN2H4CHC2FeSHFeS2FeS2H3FeS2FeS2FeSFeS3HC5H5C4SCH2C7H4C6H4CHC2HCH2CH4CHNC2H2C2HC2H3C2HCHCH2CHNCHCH3CNHFeNCHCNC3HC2SHC3H3CH3CNH2FeSCFeSHCHSHC2FeS2FeS2FeSFeS3C7H4C6H4C6H5C6H2CNHC4H3CH2CHCNCHSHNCNHCSH3NC3HCH4CH2CH5CHCH2CHCH2CHCHCH2C2HC2HCSHFeHCHFeCFeS2FeS2FeSFeS3H2Fe2SH2NS2CSC6H4C6H4C6H4C3HNCH3C3H3CHC2HCHNCHC2HFeCHCSC2H6C2N2CFeCSHCSH5CHCH2C2H5CH2C3H3CFeS2FeHSHS2CSHFeS2FeS2HS2CSC7H4C6H4C6H4FeHFeHC2H4C3SHNHC2SHCSH2CHSCHNC2HC4H4CH3NCHC2H2CHCHFeCH2NFeHCHC3HC3H3CHSFeSFeSCSCS2FeS2FeS2FeS2FeSC7FeH3C6H4C6H4C5HFeH3NHCHCHCH6CSH2CSH3CHSHNCH4CNH4CHC2H2FeS2FeS2CS2FeHSNCSFeS5HCHC6H5C3HNHFeSHC6H4C6H2SFeSHSH3CHCNC6H9FeHFeCH3CH6CFeSHFeS2FeS2FeS2HCSFeS2FeS2FeS2C6H4C6H4C2HC2H2C6H2C2H3C2HNCHC2H3CNC6H2SH5CH2C2HC2H3C4NCHFeSH4CH3C
_chemical_formula_sum              "H576 C576 S192 Fe96 N48"
_cell_length_a       42.076
_cell_length_b       41.3799
_cell_length_c       41.3277
_cell_angle_alpha    90.696
_cell_angle_beta     90.0025
_cell_angle_gamma    89.928

_space_group_name_H-M_alt    "P 1"
_space_group_IT_number       1

loop_
  _space_group_symop_operation_xyz
  'x, y, z'

loop_
  _atom_site_type_symbol
  _atom_site_label
  _atom_site_symmetry_multiplicity
  _atom_site_fract_x
  _atom_site_fract_y
  _atom_site_fract_z
  _atom_site_occupancy
  H   H1        1.0  0.14213  0.32681  0.31118  1.0000
  C   C1        1.0  0.14750  0.46304  0.11155  1.0000
  S   S1        1.0  0.18465  0.44751  0.23347  1.0000
  Fe  Fe1       1.0  0.12585  0.50170  0.32228  1.0000
  S   S2        1.0  0.09881  0.47566  0.36136  1.0000
  S   S3        1.0  0.17799  0.49221  0.31685  1.0000
  C   C2        1.0  0.33916  0.13780  0.40882  1.0000
  H   H2        1.0  0.13992  0.33349  0.37044  1.0000
  S   S4        1.0  0.32655  0.34657  0.06398  1.0000
  Fe  Fe2       1.0  0.25354  0.44350  0.05628  1.0000
  S   S5        1.0  0.23565  0.47951  0.09366  1.0000
  H   H3        1.0  0.17162  0.52077  0.09655  1.0000
  Fe  Fe3       1.0  0.29067  0.12572  0.51901  1.0000
  S   S6        1.0  0.29963  0.17904  0.51992  1.0000
  S   S7        1.0  0.31911  0.08877  0.49067  1.0000
  Fe  Fe4       1.0  0.24610  0.18334  0.51966  1.0000
  S   S8        1.0  0.22396  0.21897  0.48507  1.0000
  S   S9        1.0  0.23777  0.13001  0.51471  1.0000
  N   N1        1.0  0.14633  0.49279  0.13115  1.0000
  S   S10       1.0  0.05517  0.30309  0.42712  1.0000
  S   S11       1.0  0.06862  0.32802  0.33483  1.0000
  C   C3        1.0  0.31339  0.06015  0.14755  1.0000
  S   S12       1.0  0.07644  0.20969  0.45204  1.0000
  C   C4        1.0  0.35185  0.44067  0.14388  1.0000
  C   C5        1.0  0.11736  0.21317  0.46133  1.0000
  C   C6        1.0  0.13172  0.18953  0.48062  1.0000
  C   C7        1.0  0.16425  0.19127  0.48837  1.0000
  C   C8        1.0  0.18279  0.21657  0.47662  1.0000
  C   C9        1.0  0.16855  0.24008  0.45707  1.0000
  C   C10       1.0  0.13590  0.23850  0.44957  1.0000
  H   H4        1.0  0.11752  0.16994  0.48991  1.0000
  N   N2        1.0  0.32896  0.05795  0.11852  1.0000
  H   H5        1.0  0.18273  0.25973  0.44792  1.0000
  H   H6        1.0  0.12508  0.25680  0.43469  1.0000
  C   C11       1.0  0.20192  0.45585  0.19565  1.0000
  C   C12       1.0  0.20747  0.43060  0.17332  1.0000
  C   C13       1.0  0.21929  0.43721  0.14222  1.0000
  C   C14       1.0  0.22569  0.46911  0.13352  1.0000
  C   C15       1.0  0.22126  0.49408  0.15628  1.0000
  C   C16       1.0  0.20928  0.48752  0.18715  1.0000
  H   H7        1.0  0.20185  0.40601  0.17979  1.0000
  H   H8        1.0  0.22222  0.41784  0.12464  1.0000
  C   C17       1.0  0.16139  0.37067  0.26779  1.0000
  H   H9        1.0  0.17872  0.42216  0.30184  1.0000
  C   C18       1.0  0.09104  0.43451  0.35390  1.0000
  C   C19       1.0  0.08144  0.41480  0.37947  1.0000
  C   C20       1.0  0.07350  0.38228  0.37374  1.0000
  C   C21       1.0  0.07553  0.36926  0.34244  1.0000
  C   C22       1.0  0.08509  0.38898  0.31688  1.0000
  C   C23       1.0  0.09295  0.42149  0.32260  1.0000
  H   H10       1.0  0.08009  0.42471  0.40379  1.0000
  H   H11       1.0  0.29024  0.04909  0.15058  1.0000
  H   H12       1.0  0.08663  0.37897  0.29262  1.0000
  H   H13       1.0  0.10020  0.43650  0.30273  1.0000
  C   C24       1.0  0.33106  0.09864  0.45118  1.0000
  C   C25       1.0  0.32927  0.13043  0.44030  1.0000
  Fe  Fe5       1.0  0.04912  0.24904  0.42606  1.0000
  H   H14       1.0  0.22637  0.51878  0.14973  1.0000
  C   C26       1.0  0.30583  0.40787  0.13201  1.0000
  H   H15       1.0  0.32027  0.14937  0.45605  1.0000
  H   H16       1.0  0.16727  0.46364  0.09366  1.0000
  N   N3        1.0  0.16157  0.37379  0.30316  1.0000
  C   C27       1.0  0.15872  0.38198  0.36998  1.0000
  C   C28       1.0  0.15097  0.34906  0.32204  1.0000
  C   C29       1.0  0.23557  0.15457  0.42539  1.0000
  H   H17       1.0  0.23320  0.20576  0.41630  1.0000
  H   H18       1.0  0.31292  0.35658  0.13684  1.0000
  H   H19       1.0  0.17576  0.43023  0.36131  1.0000
  Fe  Fe6       1.0  0.04361  0.30013  0.37406  1.0000
  H   H20       1.0  0.22106  0.15669  0.44705  1.0000
  C   C30       1.0  0.17092  0.40243  0.31698  1.0000
  C   C31       1.0  0.13108  0.49269  0.16039  1.0000
  C   C32       1.0  0.24104  0.09633  0.43458  1.0000
  H   H21       1.0  0.23985  0.07433  0.41896  1.0000
  C   C33       1.0  0.35509  0.38370  0.14939  1.0000
  H   H22       1.0  0.18479  0.37799  0.25774  1.0000
  H   H23       1.0  0.12476  0.45975  0.09830  1.0000
  H   H24       1.0  0.14288  0.38684  0.25759  1.0000
  C   C34       1.0  0.26622  0.12291  0.38856  1.0000
  H   H25       1.0  0.28922  0.14848  0.34980  1.0000
  Fe  Fe7       1.0  0.16829  0.49063  0.26345  1.0000
  H   H26       1.0  0.26038  0.09309  0.45257  1.0000
  S   S13       1.0  0.11568  0.49635  0.26942  1.0000
  C   C35       1.0  0.27346  0.15038  0.37059  1.0000
  H   H27       1.0  0.20550  0.50707  0.20424  1.0000
  C   C36       1.0  0.26149  0.18037  0.38049  1.0000
  H   H28       1.0  0.27669  0.09993  0.38138  1.0000
  H   H29       1.0  0.15651  0.38555  0.39594  1.0000
  C   C37       1.0  0.32754  0.07577  0.17410  1.0000
  H   H30       1.0  0.21803  0.09834  0.44771  1.0000
  C   C38       1.0  0.16951  0.40704  0.35055  1.0000
  C   C39       1.0  0.14961  0.35270  0.35572  1.0000
  C   C40       1.0  0.24239  0.18253  0.40803  1.0000
  S   S14       1.0  0.30641  0.43951  0.05122  1.0000
  N   N4        1.0  0.24724  0.12521  0.41539  1.0000
  H   H31       1.0  0.26741  0.20195  0.36714  1.0000
  H   H32       1.0  0.06631  0.36718  0.39362  1.0000
  H   H33       1.0  0.31564  0.07654  0.19742  1.0000
  H   H34       1.0  0.15643  0.34552  0.25959  1.0000
  H   H35       1.0  0.17488  0.17312  0.50358  1.0000
  H   H36       1.0  0.15182  0.44175  0.12709  1.0000
  H   H37       1.0  0.34425  0.04967  0.43880  1.0000
  H   H38       1.0  0.30643  0.45971  0.12813  1.0000
  S   S15       1.0  0.04183  0.24575  0.37224  1.0000
  C   C41       1.0  0.12831  0.52111  0.17883  1.0000
  C   C42       1.0  0.35761  0.08948  0.17066  1.0000
  H   H39       1.0  0.33773  0.16246  0.40049  1.0000
  C   C43       1.0  0.32340  0.38041  0.13966  1.0000
  H   H40       1.0  0.28149  0.40556  0.12366  1.0000
  H   H41       1.0  0.12114  0.47053  0.16978  1.0000
  C   C44       1.0  0.34991  0.11334  0.38768  1.0000
  H   H42       1.0  0.11604  0.52105  0.20189  1.0000
  Fe  Fe8       1.0  0.29755  0.38687  0.04239  1.0000
  C   C45       1.0  0.34274  0.07431  0.43043  1.0000
  H   H43       1.0  0.03129  0.45806  0.32839  1.0000
  C   C46       1.0  0.31333  0.04236  0.09071  1.0000
  C   C47       1.0  0.35193  0.08158  0.39862  1.0000
  H   H44       1.0  0.03617  0.13159  0.43099  1.0000
  C   C48       1.0  0.31998  0.43827  0.13434  1.0000
  S   S16       1.0  0.24488  0.39000  0.05175  1.0000
  H   H45       1.0  0.29854  0.06015  0.07759  1.0000
  C   C49       1.0  0.15906  0.52079  0.11952  1.0000
  C   C50       1.0  0.35846  0.07140  0.11495  1.0000
  S   S17       1.0  0.35836  0.12327  0.34731  1.0000
  H   H46       1.0  0.36022  0.06260  0.38248  1.0000
  H   H47       1.0  0.04952  0.13961  0.90606  1.0000
  H   H48       1.0  0.10548  0.25259  0.93302  1.0000
  S   S18       1.0  0.08072  0.24606  0.86491  1.0000
  C   C51       1.0  0.34249  0.46832  0.86279  1.0000
  S   S19       1.0  0.05932  0.36601  0.97205  1.0000
  S   S20       1.0  0.04262  0.32744  0.88599  1.0000
  Fe  Fe9       1.0  0.11334  0.06768  0.82927  1.0000
  S   S21       1.0  0.16654  0.06847  0.82669  1.0000
  S   S22       1.0  0.08471  0.09298  0.86838  1.0000
  Fe  Fe10      1.0  0.15908  0.07190  0.77283  1.0000
  S   S23       1.0  0.18751  0.10949  0.74614  1.0000
  S   S24       1.0  0.10594  0.07502  0.77618  1.0000
  Fe  Fe11      1.0  0.24105  0.39930  0.99830  1.0000
  S   S25       1.0  0.24531  0.45332  0.00343  1.0000
  S   S26       1.0  0.20936  0.37262  0.96256  1.0000
  Fe  Fe12      1.0  0.29777  0.44523  0.99806  1.0000
  C   C52       1.0  0.04531  0.41329  0.85898  1.0000
  S   S27       1.0  0.29326  0.39200  0.98872  1.0000
  Fe  Fe13      1.0  0.23736  0.13041  0.56913  1.0000
  S   S28       1.0  0.24164  0.18437  0.57402  1.0000
  S   S29       1.0  0.20323  0.09727  0.59480  1.0000
  S   S30       1.0  0.28967  0.12139  0.57297  1.0000
  S   S31       1.0  0.32753  0.19570  0.61225  1.0000
  C   C53       1.0  0.15170  0.25996  0.91261  1.0000
  H   H49       1.0  0.09558  0.30296  0.98426  1.0000
  C   C54       1.0  0.28215  0.11175  0.69885  1.0000
  Fe  Fe14      1.0  0.29449  0.17535  0.57381  1.0000
  C   C55       1.0  0.33375  0.47572  0.93000  1.0000
  C   C56       1.0  0.31855  0.45059  0.91325  1.0000
  C   C57       1.0  0.32303  0.44685  0.87974  1.0000
  H   H50       1.0  0.15771  0.06663  0.69883  1.0000
  C   C58       1.0  0.18867  0.28952  0.94629  1.0000
  H   H51       1.0  0.30359  0.43386  0.92616  1.0000
  H   H52       1.0  0.31149  0.42715  0.86692  1.0000
  C   C59       1.0  0.19427  0.10448  0.63591  1.0000
  C   C60       1.0  0.20824  0.13007  0.65307  1.0000
  C   C61       1.0  0.20442  0.13245  0.68681  1.0000
  C   C62       1.0  0.18683  0.10918  0.70352  1.0000
  C   C63       1.0  0.17154  0.08453  0.68616  1.0000
  C   C64       1.0  0.17509  0.08235  0.65238  1.0000
  H   H53       1.0  0.22283  0.14741  0.64053  1.0000
  H   H54       1.0  0.21610  0.15171  0.70014  1.0000
  H   H55       1.0  0.35641  0.20946  0.55005  1.0000
  C   C65       1.0  0.26529  0.09073  0.71864  1.0000
  C   C66       1.0  0.10085  0.36974  0.96839  1.0000
  C   C67       1.0  0.11676  0.35735  0.94129  1.0000
  C   C68       1.0  0.14996  0.35992  0.93918  1.0000
  C   C69       1.0  0.16755  0.37409  0.96448  1.0000
  C   C70       1.0  0.15161  0.38692  0.99141  1.0000
  C   C71       1.0  0.11827  0.38495  0.99321  1.0000
  H   H56       1.0  0.10360  0.34567  0.92198  1.0000
  H   H57       1.0  0.16216  0.35022  0.91816  1.0000
  H   H58       1.0  0.04708  0.19961  0.90482  1.0000
  H   H59       1.0  0.10601  0.39459  0.01423  1.0000
  C   C72       1.0  0.08283  0.20366  0.86776  1.0000
  C   C73       1.0  0.06340  0.18667  0.88907  1.0000
  C   C74       1.0  0.06483  0.15270  0.88978  1.0000
  C   C75       1.0  0.08539  0.13560  0.86895  1.0000
  C   C76       1.0  0.10511  0.15268  0.84798  1.0000
  C   C77       1.0  0.10393  0.18662  0.84753  1.0000
  C   C78       1.0  0.35616  0.28741  0.61993  1.0000
  H   H60       1.0  0.36028  0.14366  0.57024  1.0000
  H   H61       1.0  0.12105  0.13970  0.83187  1.0000
  H   H62       1.0  0.11907  0.19963  0.83102  1.0000
  C   C79       1.0  0.04793  0.41565  0.89269  1.0000
  N   N5        1.0  0.13596  0.27839  0.96563  1.0000
  C   C80       1.0  0.12891  0.26278  0.93713  1.0000
  H   H63       1.0  0.07080  0.19778  0.76012  1.0000
  C   C81       1.0  0.04164  0.13339  0.80041  1.0000
  C   C82       1.0  0.35739  0.49371  0.87945  1.0000
  H   H64       1.0  0.19943  0.27201  0.89820  1.0000
  Fe  Fe15      1.0  0.04219  0.27359  0.89162  1.0000
  S   S32       1.0  0.03827  0.27624  0.94554  1.0000
  H   H65       1.0  0.26286  0.09581  0.74437  1.0000
  H   H66       1.0  0.20552  0.53585  0.55533  1.0000
  H   H67       1.0  0.34189  0.28920  0.66969  1.0000
  C   C83       1.0  0.03569  0.44023  0.84151  1.0000
  C   C84       1.0  0.05672  0.18444  0.77740  1.0000
  H   H68       1.0  0.04415  0.10731  0.80186  1.0000
  C   C85       1.0  0.04249  0.44500  0.94396  1.0000
  H   H69       1.0  0.06624  0.43659  0.95226  1.0000
  H   H70       1.0  0.03851  0.46972  0.95391  1.0000
  H   H71       1.0  0.16502  0.39786  0.01100  1.0000
  C   C86       1.0  0.11126  0.28229  0.99041  1.0000
  Fe  Fe16      1.0  0.03442  0.32980  0.93940  1.0000
  C   C87       1.0  0.28362  0.10573  0.66559  1.0000
  H   H72       1.0  0.12165  0.28703  0.01472  1.0000
  H   H73       1.0  0.14584  0.24773  0.88998  1.0000
  C   C88       1.0  0.02894  0.46914  0.85783  1.0000
  H   H74       1.0  0.05889  0.24665  0.79541  1.0000
  H   H75       1.0  0.07522  0.13824  0.76136  1.0000
  H   H76       1.0  0.33477  0.27498  0.61190  1.0000
  C   C89       1.0  0.03484  0.23572  0.79740  1.0000
  C   C90       1.0  0.18173  0.27349  0.91725  1.0000
  C   C91       1.0  0.36045  0.29535  0.65264  1.0000
  C   C92       1.0  0.16533  0.29187  0.97032  1.0000
  S   S33       1.0  0.33095  0.47929  0.97235  1.0000
  N   N6        1.0  0.03726  0.20041  0.79879  1.0000
  H   H77       1.0  0.21158  0.30113  0.94981  1.0000
  H   H78       1.0  0.05523  0.39463  0.90627  1.0000
  H   H79       1.0  0.17060  0.30556  0.99223  1.0000
  S   S34       1.0  0.35018  0.46087  0.82153  1.0000
  H   H80       1.0  0.29334  0.13311  0.70916  1.0000
  H   H81       1.0  0.16390  0.06272  0.63913  1.0000
  H   H82       1.0  0.35191  0.36047  0.95409  1.0000
  H   H83       1.0  0.03272  0.43851  0.81546  1.0000
  N   N7        1.0  0.04083  0.44394  0.90853  1.0000
  C   C93       1.0  0.05924  0.15074  0.77791  1.0000
  H   H84       1.0  0.29594  0.12244  0.64989  1.0000
  C   C94       1.0  0.26785  0.07880  0.65254  1.0000
  H   H85       1.0  0.09647  0.26013  0.99208  1.0000
  H   H86       1.0  0.05002  0.39053  0.84656  1.0000
  H   H87       1.0  0.23581  0.04857  0.72026  1.0000
  C   C95       1.0  0.35306  0.49735  0.91302  1.0000
  H   H88       1.0  0.12452  0.04736  0.95599  1.0000
  C   C96       1.0  0.03135  0.47051  0.89159  1.0000
  H   H89       1.0  0.26810  0.07486  0.62653  1.0000
  N   N8        1.0  0.25086  0.05867  0.67206  1.0000
  C   C97       1.0  0.24985  0.06404  0.70479  1.0000
  Fe  Fe17      1.0  0.29633  0.69407  0.50216  1.0000
  S   S35       1.0  0.29643  0.64002  0.49702  1.0000
  S   S36       1.0  0.31979  0.72569  0.46495  1.0000
  Fe  Fe18      1.0  0.24419  0.64362  0.50667  1.0000
  S   S37       1.0  0.20568  0.61524  0.48126  1.0000
  S   S38       1.0  0.24318  0.69778  0.50759  1.0000
  Fe  Fe19      1.0  0.25146  0.89808  0.06529  1.0000
  S   S39       1.0  0.25912  0.95176  0.06851  1.0000
  S   S40       1.0  0.22259  0.87214  0.10340  1.0000
  Fe  Fe20      1.0  0.31073  0.94013  0.06208  1.0000
  H   H90       1.0  0.04975  0.90857  0.11237  1.0000
  S   S41       1.0  0.30375  0.88645  0.06302  1.0000
  Fe  Fe21      1.0  0.05468  0.80406  0.12545  1.0000
  S   S42       1.0  0.06765  0.80397  0.17801  1.0000
  S   S43       1.0  0.07623  0.83866  0.08953  1.0000
  C   C98       1.0  0.33492  0.99575  0.19444  1.0000
  S   S44       1.0  0.11044  0.72295  0.19278  1.0000
  H   H91       1.0  0.22263  0.78938  0.12612  1.0000
  Fe  Fe22      1.0  0.12497  0.54978  0.26669  1.0000
  H   H92       1.0  0.34757  0.92306  0.23141  1.0000
  S   S45       1.0  0.22262  0.57302  0.33478  1.0000
  Fe  Fe23      1.0  0.18213  0.54582  0.31096  1.0000
  S   S46       1.0  0.09059  0.57712  0.23498  1.0000
  C   C99       1.0  0.04954  0.90005  0.19406  1.0000
  C   C100      1.0  0.10461  0.68259  0.20499  1.0000
  C   C101      1.0  0.12898  0.66634  0.22146  1.0000
  C   C102      1.0  0.12492  0.63409  0.23122  1.0000
  C   C103      1.0  0.09653  0.61787  0.22425  1.0000
  C   C104      1.0  0.07234  0.63406  0.20754  1.0000
  C   C105      1.0  0.07627  0.66633  0.19809  1.0000
  H   H93       1.0  0.15097  0.67878  0.22687  1.0000
  H   H94       1.0  0.14373  0.62179  0.24400  1.0000
  C   C106      1.0  0.34375  0.97709  0.12933  1.0000
  C   C107      1.0  0.15696  0.54961  0.13753  1.0000
  C   C108      1.0  0.18117  0.86656  0.10002  1.0000
  C   C109      1.0  0.16478  0.85301  0.12612  1.0000
  C   C110      1.0  0.13254  0.84471  0.12326  1.0000
  C   C111      1.0  0.11629  0.85034  0.09438  1.0000
  C   C112      1.0  0.13235  0.86500  0.06862  1.0000
  C   C113      1.0  0.16479  0.87293  0.07133  1.0000
  H   H95       1.0  0.17732  0.84815  0.14840  1.0000
  H   H96       1.0  0.12047  0.83360  0.14329  1.0000
  Fe  Fe24      1.0  0.06808  0.74983  0.17255  1.0000
  H   H97       1.0  0.31300  0.54427  0.46695  1.0000
  C   C114      1.0  0.20013  0.78337  0.11475  1.0000
  C   C115      1.0  0.31123  0.97840  0.17785  1.0000
  C   C116      1.0  0.31559  0.96911  0.14532  1.0000
  H   H98       1.0  0.17153  0.56255  0.38069  1.0000
  C   C117      1.0  0.20486  0.67759  0.41768  1.0000
  C   C118      1.0  0.18032  0.65285  0.37077  1.0000
  H   H99       1.0  0.29737  0.95542  0.13278  1.0000
  C   C119      1.0  0.14196  0.77119  0.08555  1.0000
  C   C120      1.0  0.26001  0.69646  0.41672  1.0000
  C   C121      1.0  0.21918  0.58092  0.37659  1.0000
  C   C122      1.0  0.24438  0.59599  0.39311  1.0000
  C   C123      1.0  0.24089  0.60578  0.42561  1.0000
  C   C124      1.0  0.21214  0.60055  0.44166  1.0000
  C   C125      1.0  0.18748  0.58421  0.42559  1.0000
  C   C126      1.0  0.19099  0.57438  0.39314  1.0000
  H   H100      1.0  0.26633  0.60088  0.38044  1.0000
  H   H101      1.0  0.26016  0.61797  0.43793  1.0000
  H   H102      1.0  0.16524  0.57990  0.43797  1.0000
  H   H103      1.0  0.05645  0.88270  0.21227  1.0000
  S   S47       1.0  0.17707  0.54371  0.25657  1.0000
  H   H104      1.0  0.11986  0.86951  0.04624  1.0000
  N   N9        1.0  0.23218  0.68247  0.40046  1.0000
  S   S48       1.0  0.05864  0.75023  0.11910  1.0000
  H   H105      1.0  0.21367  0.54346  0.49036  1.0000
  H   H106      1.0  0.12842  0.75234  0.13177  1.0000
  H   H107      1.0  0.25298  0.71579  0.43422  1.0000
  C   C127      1.0  0.20838  0.65757  0.35351  1.0000
  H   H108      1.0  0.05742  0.67854  0.18529  1.0000
  H   H109      1.0  0.16206  0.77445  0.18125  1.0000
  H   H110      1.0  0.27672  0.70770  0.39933  1.0000
  C   C128      1.0  0.19563  0.79133  0.08226  1.0000
  H   H111      1.0  0.13928  0.57188  0.18158  1.0000
  C   C129      1.0  0.23430  0.67238  0.36886  1.0000
  H   H112      1.0  0.11875  0.76730  0.07473  1.0000
  H   H113      1.0  0.28954  0.97191  0.19026  1.0000
  H   H114      1.0  0.27308  0.67747  0.43008  1.0000
  H   H115      1.0  0.05037  0.62161  0.20200  1.0000
  H   H116      1.0  0.15724  0.65812  0.41712  1.0000
  C   C130      1.0  0.02943  0.93572  0.23721  1.0000
  H   H117      1.0  0.16050  0.64027  0.35946  1.0000
  H   H118      1.0  0.20368  0.68400  0.44319  1.0000
  H   H119      1.0  0.20417  0.76936  0.17556  1.0000
  H   H120      1.0  0.25635  0.67494  0.35557  1.0000
  H   H121      1.0  0.21047  0.64843  0.32884  1.0000
  N   N10       1.0  0.17609  0.76958  0.13213  1.0000
  C   C131      1.0  0.14742  0.76315  0.11786  1.0000
  H   H122      1.0  0.16746  0.57166  0.12851  1.0000
  H   H123      1.0  0.17772  0.73543  0.16998  1.0000
  C   C132      1.0  0.04572  0.91439  0.13776  1.0000
  C   C133      1.0  0.17847  0.66291  0.40306  1.0000
  H   H124      1.0  0.33106  0.03169  0.07367  1.0000
  H   H125      1.0  0.34153  0.90471  0.17443  1.0000
  C   C134      1.0  0.18046  0.76188  0.16637  1.0000
  C   C135      1.0  0.03074  0.94320  0.14693  1.0000
  H   H126      1.0  0.18240  0.76311  0.52130  1.0000
  H   H127      1.0  0.21434  0.80347  0.06899  1.0000
  S   S49       1.0  0.35053  0.96544  0.08892  1.0000
  S   S50       1.0  0.13045  0.55587  0.32056  1.0000
  S   S51       1.0  0.32927  0.00625  0.23544  1.0000
  H   H128      1.0  0.16203  0.79279  0.04297  1.0000
  C   C136      1.0  0.26244  0.54226  0.47511  1.0000
  N   N11       1.0  0.03464  0.92825  0.20284  1.0000
  C   C137      1.0  0.05535  0.89278  0.16143  1.0000
  H   H129      1.0  0.17729  0.88328  0.05107  1.0000
  H   H130      1.0  0.06701  0.87042  0.15436  1.0000
  C   C138      1.0  0.30097  0.55389  0.51683  1.0000
  C   C139      1.0  0.16624  0.78545  0.06772  1.0000
  C   C140      1.0  0.29400  0.54645  0.48459  1.0000
  H   H131      1.0  0.32542  0.55746  0.52449  1.0000
  H   H132      1.0  0.05125  0.94633  0.24799  1.0000
  H   H133      1.0  0.29806  0.02195  0.09851  1.0000
  H   H134      1.0  0.12367  0.76959  0.52577  1.0000
  C   C141      1.0  0.14135  0.54972  0.16733  1.0000
  N   N12       1.0  0.24522  0.55383  0.52950  1.0000
  C   C142      1.0  0.23823  0.54584  0.49809  1.0000
  H   H135      1.0  0.25660  0.53705  0.44999  1.0000
  H   H136      1.0  0.09172  0.79080  0.78050  1.0000
  C   C143      1.0  0.12659  0.79963  0.56866  1.0000
  S   S52       1.0  0.22770  0.72339  0.59925  1.0000
  H   H137      1.0  0.30639  0.69666  0.69087  1.0000
  H   H138      1.0  0.03804  0.89521  0.68635  1.0000
  H   H139      1.0  0.22784  0.56636  0.57690  1.0000
  Fe  Fe25      1.0  0.04937  0.76255  0.62582  1.0000
  S   S53       1.0  0.05936  0.76993  0.67849  1.0000
  S   S54       1.0  0.07744  0.72970  0.59220  1.0000
  H   H140      1.0  0.12671  0.97387  0.88171  1.0000
  S   S55       1.0  0.09340  0.85301  0.68978  1.0000
  H   H141      1.0  0.19075  0.03125  0.88631  1.0000
  Fe  Fe26      1.0  0.29811  0.89006  0.00921  1.0000
  S   S56       1.0  0.30933  0.94300  0.00783  1.0000
  S   S57       1.0  0.31954  0.85429  0.97346  1.0000
  Fe  Fe27      1.0  0.25684  0.95019  0.01410  1.0000
  S   S58       1.0  0.23050  0.99082  0.98952  1.0000
  S   S59       1.0  0.24489  0.89725  0.01129  1.0000
  Fe  Fe28      1.0  0.10726  0.02076  0.77175  1.0000
  S   S60       1.0  0.16010  0.01816  0.76404  1.0000
  S   S61       1.0  0.06875  0.99500  0.74323  1.0000
  N   N13       1.0  0.14605  0.81357  0.59137  1.0000
  S   S62       1.0  0.19267  0.97615  0.84184  1.0000
  S   S63       1.0  0.11001  0.01365  0.82529  1.0000
  C   C144      1.0  0.22399  0.98779  0.94745  1.0000
  C   C145      1.0  0.21043  0.01401  0.93121  1.0000
  C   C146      1.0  0.20173  0.01111  0.89845  1.0000
  C   C147      1.0  0.20646  0.98188  0.88179  1.0000
  C   C148      1.0  0.22097  0.95600  0.89776  1.0000
  C   C149      1.0  0.22978  0.95893  0.93049  1.0000
  H   H142      1.0  0.28910  0.61926  0.68149  1.0000
  H   H143      1.0  0.02907  0.95095  0.70768  1.0000
  H   H144      1.0  0.22491  0.93340  0.88492  1.0000
  H   H145      1.0  0.24042  0.93865  0.94275  1.0000
  N   N14       1.0  0.06120  0.82820  0.76417  1.0000
  C   C150      1.0  0.08667  0.89322  0.70242  1.0000
  C   C151      1.0  0.05707  0.90805  0.69850  1.0000
  C   C152      1.0  0.05202  0.93954  0.71065  1.0000
  C   C153      1.0  0.07643  0.95625  0.72688  1.0000
  C   C154      1.0  0.10610  0.94149  0.73051  1.0000
  C   C155      1.0  0.11123  0.91012  0.71817  1.0000
  C   C156      1.0  0.12316  0.01298  0.91653  1.0000
  C   C157      1.0  0.07841  0.85461  0.77390  1.0000
  H   H146      1.0  0.12503  0.95419  0.74296  1.0000
  H   H147      1.0  0.13418  0.89876  0.72127  1.0000
  C   C158      1.0  0.18579  0.72154  0.59959  1.0000
  C   C159      1.0  0.16871  0.73848  0.62358  1.0000
  C   C160      1.0  0.13532  0.74009  0.62236  1.0000
  C   C161      1.0  0.11885  0.72483  0.59706  1.0000
  C   C162      1.0  0.13588  0.70691  0.57377  1.0000
  C   C163      1.0  0.16924  0.70524  0.57502  1.0000
  H   H148      1.0  0.18138  0.75087  0.64282  1.0000
  H   H149      1.0  0.12235  0.75347  0.64069  1.0000
  H   H150      1.0  0.11310  0.84767  0.61107  1.0000
  C   C164      1.0  0.14289  0.95975  0.92902  1.0000
  C   C165      1.0  0.33304  0.59850  0.61523  1.0000
  C   C166      1.0  0.12920  0.02261  0.94840  1.0000
  C   C167      1.0  0.17223  0.77808  0.54038  1.0000
  C   C168      1.0  0.33142  0.58992  0.68267  1.0000
  C   C169      1.0  0.13007  0.98135  0.90673  1.0000
  C   C170      1.0  0.30843  0.61216  0.63357  1.0000
  C   C171      1.0  0.19190  0.79228  0.56368  1.0000
  N   N15       1.0  0.14874  0.96938  0.96024  1.0000
  H   H151      1.0  0.29051  0.62681  0.62202  1.0000
  H   H152      1.0  0.18214  0.69193  0.55654  1.0000
  C   C172      1.0  0.21914  0.55862  0.55261  1.0000
  H   H153      1.0  0.17125  0.95803  0.00525  1.0000
  S   S64       1.0  0.04727  0.81543  0.61531  1.0000
  C   C173      1.0  0.13191  0.83068  0.61911  1.0000
  H   H154      1.0  0.25059  0.00954  0.65688  1.0000
  S   S65       1.0  0.24906  0.63916  0.56057  1.0000
  H   H155      1.0  0.28188  0.56391  0.56401  1.0000
  H   H156      1.0  0.34648  0.66635  0.72223  1.0000
  H   H157      1.0  0.11383  0.03025  0.89930  1.0000
  C   C174      1.0  0.30767  0.60790  0.66724  1.0000
  H   H158      1.0  0.12111  0.81303  0.63590  1.0000
  H   H159      1.0  0.14966  0.84510  0.63296  1.0000
  H   H160      1.0  0.10096  0.80107  0.57113  1.0000
  Fe  Fe29      1.0  0.30147  0.64048  0.55121  1.0000
  H   H161      1.0  0.14741  0.00824  0.99462  1.0000
  H   H162      1.0  0.09368  0.79914  0.73766  1.0000
  H   H163      1.0  0.31284  0.70224  0.63141  1.0000
  S   S66       1.0  0.33268  0.58920  0.72522  1.0000
  C   C175      1.0  0.14205  0.00036  0.97010  1.0000
  Fe  Fe30      1.0  0.05359  0.82281  0.66867  1.0000
  C   C176      1.0  0.34994  0.66950  0.69644  1.0000
  H   H164      1.0  0.21739  0.78822  0.56284  1.0000
  C   C177      1.0  0.32714  0.68661  0.67884  1.0000
  H   H165      1.0  0.14907  0.93553  0.92089  1.0000
  C   C178      1.0  0.33077  0.68972  0.64545  1.0000
  C   C179      1.0  0.16140  0.94592  0.98327  1.0000
  H   H166      1.0  0.21292  0.02447  0.67225  1.0000
  S   S67       1.0  0.30551  0.69444  0.55565  1.0000
  Fe  Fe31      1.0  0.16284  0.01493  0.81842  1.0000
  H   H167      1.0  0.07749  0.90577  0.78527  1.0000
  S   S68       1.0  0.33669  0.60630  0.57363  1.0000
  H   H168      1.0  0.12324  0.69485  0.55429  1.0000
  H   H169      1.0  0.35527  0.60790  0.85719  1.0000
  H   H170      1.0  0.10393  0.85281  0.77716  1.0000
  H   H171      1.0  0.18142  0.93211  0.97221  1.0000
  H   H172      1.0  0.19375  0.81969  0.60797  1.0000
  C   C180      1.0  0.35710  0.67585  0.63012  1.0000
  Fe  Fe32      1.0  0.25223  0.69321  0.56079  1.0000
  H   H173      1.0  0.35972  0.67726  0.60404  1.0000
  C   C181      1.0  0.17833  0.80991  0.58927  1.0000
  H   H174      1.0  0.06055  0.77717  0.75396  1.0000
  C   C182      1.0  0.23438  0.03069  0.65788  1.0000
  C   C183      1.0  0.06362  0.88463  0.77848  1.0000
  C   C184      1.0  0.13935  0.78177  0.54281  1.0000
  C   C185      1.0  0.07754  0.79727  0.75887  1.0000
  H   H175      1.0  0.14246  0.92891  0.99071  1.0000
  C   C186      1.0  0.35525  0.57511  0.66413  1.0000
  C   C187      1.0  0.35609  0.57948  0.63048  1.0000
  H   H176      1.0  0.36052  0.66519  0.87462  1.0000
  H   H177      1.0  0.35987  0.81420  0.93392  1.0000
  H   H178      1.0  0.20285  0.57784  0.54379  1.0000
  C   C188      1.0  0.27615  0.55756  0.53912  1.0000
  H   H179      1.0  0.22582  0.03610  0.63301  1.0000
  C   C189      1.0  0.02928  0.83086  0.75838  1.0000
  C   C190      1.0  0.03118  0.88767  0.77230  1.0000
  H   H180      1.0  0.20604  0.03644  0.94416  1.0000
  H   H181      1.0  0.69074  0.28190  0.52391  1.0000
  H   H182      1.0  0.53817  0.21165  0.18107  1.0000
  C   C191      1.0  0.54039  0.19967  0.15691  1.0000
  H   H183      1.0  0.65870  0.16113  0.13045  1.0000
  S   S69       1.0  0.58538  0.50995  0.24860  1.0000
  N   N16       1.0  0.57295  0.18898  0.15005  1.0000
  Fe  Fe33      1.0  0.55816  0.33900  0.17714  1.0000
  S   S70       1.0  0.54915  0.34031  0.12377  1.0000
  S   S71       1.0  0.59998  0.36492  0.19983  1.0000
  Fe  Fe34      1.0  0.50643  0.28852  0.18795  1.0000
  S   S72       1.0  0.49301  0.28590  0.13534  1.0000
  S   S73       1.0  0.48584  0.25979  0.22898  1.0000
  Fe  Fe35      1.0  0.54590  0.28639  0.12668  1.0000
  S   S74       1.0  0.56951  0.25356  0.08976  1.0000
  Fe  Fe36      1.0  0.49728  0.34011  0.13726  1.0000
  S   S75       1.0  0.46560  0.37766  0.11408  1.0000
  S   S76       1.0  0.55883  0.28483  0.17911  1.0000
  S   S77       1.0  0.50678  0.34290  0.19085  1.0000
  Fe  Fe37      1.0  0.41645  0.08906  0.24814  1.0000
  H   H184      1.0  0.63439  0.45624  0.32790  1.0000
  S   S78       1.0  0.43393  0.11740  0.20509  1.0000
  C   C192      1.0  0.37983  0.38486  0.07044  1.0000
  H   H185      1.0  0.67149  0.20519  0.05820  1.0000
  S   S79       1.0  0.43269  0.08959  0.29991  1.0000
  H   H186      1.0  0.54216  0.43451  0.28927  1.0000
  H   H187      1.0  0.37084  0.06961  0.09199  1.0000
  C   C193      1.0  0.62771  0.40788  0.30930  1.0000
  C   C194      1.0  0.47071  0.22058  0.22180  1.0000
  C   C195      1.0  0.46178  0.20160  0.24820  1.0000
  C   C196      1.0  0.45024  0.17002  0.24335  1.0000
  C   C197      1.0  0.44766  0.15718  0.21201  1.0000
  C   C198      1.0  0.45634  0.17625  0.18556  1.0000
  C   C199      1.0  0.46766  0.20792  0.19041  1.0000
  H   H188      1.0  0.46389  0.21131  0.27253  1.0000
  H   H189      1.0  0.44349  0.15561  0.26388  1.0000
  H   H190      1.0  0.45411  0.16655  0.16125  1.0000
  H   H191      1.0  0.47383  0.22260  0.16990  1.0000
  C   C200      1.0  0.42822  0.36742  0.09770  1.0000
  C   C201      1.0  0.41075  0.39125  0.08159  1.0000
  Fe  Fe38      1.0  0.67669  0.51788  0.32691  1.0000
  S   S80       1.0  0.62481  0.52964  0.33105  1.0000
  S   S81       1.0  0.36461  0.09049  0.26056  1.0000
  C   C202      1.0  0.41481  0.33688  0.10208  1.0000
  H   H192      1.0  0.41411  0.39301  0.16408  1.0000
  Fe  Fe39      1.0  0.38059  0.08715  0.31231  1.0000
  H   H193      1.0  0.36896  0.10164  0.19096  1.0000
  H   H194      1.0  0.42806  0.31840  0.11455  1.0000
  C   C203      1.0  0.61008  0.24495  0.09546  1.0000
  C   C204      1.0  0.62628  0.25656  0.12272  1.0000
  C   C205      1.0  0.65872  0.24978  0.12668  1.0000
  H   H195      1.0  0.39689  0.09753  0.13853  1.0000
  Fe  Fe40      1.0  0.62601  0.53249  0.27685  1.0000
  C   C206      1.0  0.62646  0.22634  0.07225  1.0000
  H   H196      1.0  0.61394  0.27094  0.14066  1.0000
  H   H197      1.0  0.36642  0.40357  0.05861  1.0000
  C   C207      1.0  0.62800  0.18497  0.16511  1.0000
  C   C208      1.0  0.67517  0.23136  0.10342  1.0000
  C   C209      1.0  0.36622  0.35448  0.07519  1.0000
  C   C210      1.0  0.59061  0.47075  0.23208  1.0000
  C   C211      1.0  0.56489  0.45512  0.21694  1.0000
  C   C212      1.0  0.56774  0.42293  0.20587  1.0000
  C   C213      1.0  0.59635  0.40624  0.21001  1.0000
  C   C214      1.0  0.62226  0.42211  0.22437  1.0000
  C   C215      1.0  0.61940  0.45421  0.23540  1.0000
  H   H198      1.0  0.54259  0.46782  0.21413  1.0000
  H   H199      1.0  0.54768  0.41096  0.19458  1.0000
  H   H200      1.0  0.64448  0.40937  0.22758  1.0000
  H   H201      1.0  0.63933  0.46590  0.24699  1.0000
  S   S82       1.0  0.67713  0.51750  0.27242  1.0000
  H   H202      1.0  0.56035  0.16896  0.10405  1.0000
  H   H203      1.0  0.41605  0.42975  0.14215  1.0000
  H   H204      1.0  0.37349  0.30687  0.09450  1.0000
  C   C216      1.0  0.55334  0.37295  0.27323  1.0000
  C   C217      1.0  0.58680  0.44871  0.31001  1.0000
  H   H205      1.0  0.64713  0.19054  0.18186  1.0000
  H   H206      1.0  0.53838  0.36206  0.29233  1.0000
  H   H207      1.0  0.63023  0.32975  0.14590  1.0000
  C   C218      1.0  0.56599  0.42662  0.29535  1.0000
  H   H208      1.0  0.53255  0.21724  0.13839  1.0000
  H   H209      1.0  0.40403  0.43044  0.18430  1.0000
  C   C219      1.0  0.41159  0.15864  0.48481  1.0000
  C   C220      1.0  0.57916  0.17290  0.12162  1.0000
  H   H210      1.0  0.62006  0.36392  0.12129  1.0000
  H   H211      1.0  0.42103  0.41491  0.07813  1.0000
  C   C221      1.0  0.63963  0.34727  0.12815  1.0000
  C   C222      1.0  0.59689  0.19519  0.17167  1.0000
  C   C223      1.0  0.67559  0.29348  0.04800  1.0000
  C   C224      1.0  0.61783  0.43921  0.31701  1.0000
  C   C225      1.0  0.63234  0.32083  0.07528  1.0000
  H   H212      1.0  0.40472  0.16183  0.45971  1.0000
  N   N17       1.0  0.57589  0.39596  0.28769  1.0000
  C   C226      1.0  0.37328  0.08721  0.14101  1.0000
  H   H213      1.0  0.36289  0.46432  0.14511  1.0000
  H   H214      1.0  0.56583  0.35326  0.25976  1.0000
  C   C227      1.0  0.60995  0.16216  0.11440  1.0000
  H   H215      1.0  0.45720  0.18179  0.47967  1.0000
  C   C228      1.0  0.64368  0.30269  0.04891  1.0000
  H   H216      1.0  0.53780  0.38511  0.25533  1.0000
  C   C229      1.0  0.63450  0.16835  0.13628  1.0000
  H   H217      1.0  0.61427  0.36222  0.28816  1.0000
  C   C230      1.0  0.60627  0.38637  0.29463  1.0000
  H   H218      1.0  0.36875  0.36208  0.15446  1.0000
  H   H219      1.0  0.65199  0.40059  0.31426  1.0000
  H   H220      1.0  0.67119  0.25902  0.14773  1.0000
  H   H221      1.0  0.59211  0.20848  0.19393  1.0000
  H   H222      1.0  0.41076  0.22729  0.53555  1.0000
  C   C231      1.0  0.44102  0.16963  0.49595  1.0000
  H   H223      1.0  0.52396  0.17866  0.15660  1.0000
  C   C232      1.0  0.38391  0.33043  0.09074  1.0000
  H   H224      1.0  0.36774  0.13586  0.49777  1.0000
  C   C233      1.0  0.40232  0.41689  0.16103  1.0000
  H   H225      1.0  0.57919  0.47337  0.31487  1.0000
  C   C234      1.0  0.65896  0.21946  0.07624  1.0000
  N   N18       1.0  0.65236  0.32990  0.09986  1.0000
  N   N19       1.0  0.36897  0.41356  0.15116  1.0000
  H   H226      1.0  0.60720  0.32667  0.07646  1.0000
  H   H227      1.0  0.61403  0.21727  0.05109  1.0000
  H   H228      1.0  0.65809  0.36226  0.14033  1.0000
  H   H229      1.0  0.61496  0.15005  0.09151  1.0000
  C   C235      1.0  0.44927  0.16556  0.52836  1.0000
  H   H230      1.0  0.66418  0.31437  0.53627  1.0000
  C   C236      1.0  0.39078  0.14377  0.50640  1.0000
  C   C237      1.0  0.68362  0.32068  0.09932  1.0000
  Fe  Fe41      1.0  0.66306  0.07361  0.81822  1.0000
  S   S83       1.0  0.61054  0.06519  0.82024  1.0000
  H   H231      1.0  0.62042  0.24593  0.61480  1.0000
  Fe  Fe42      1.0  0.61256  0.06308  0.76602  1.0000
  S   S84       1.0  0.57350  0.08768  0.73757  1.0000
  S   S85       1.0  0.66433  0.07552  0.76387  1.0000
  Fe  Fe43      1.0  0.42042  0.50532  0.73547  1.0000
  S   S86       1.0  0.42926  0.49840  0.78844  1.0000
  S   S87       1.0  0.44768  0.48005  0.69535  1.0000
  H   H232      1.0  0.43337  0.32819  0.64980  1.0000
  H   H233      1.0  0.52049  0.14436  0.77952  1.0000
  H   H234      1.0  0.58072  0.38070  0.65653  1.0000
  Fe  Fe44      1.0  0.55538  0.25537  0.65681  1.0000
  S   S88       1.0  0.55254  0.26102  0.60287  1.0000
  S   S89       1.0  0.59548  0.22682  0.67921  1.0000
  Fe  Fe45      1.0  0.50405  0.30585  0.66910  1.0000
  S   S90       1.0  0.49760  0.31585  0.61643  1.0000
  S   S91       1.0  0.47523  0.33041  0.70832  1.0000
  Fe  Fe46      1.0  0.49955  0.26197  0.61032  1.0000
  S   S92       1.0  0.46652  0.23927  0.57328  1.0000
  Fe  Fe47      1.0  0.55088  0.31412  0.61377  1.0000
  S   S93       1.0  0.57727  0.35039  0.58354  1.0000
  S   S94       1.0  0.50243  0.25167  0.66357  1.0000
  S   S95       1.0  0.55719  0.30884  0.66720  1.0000
  H   H235      1.0  0.40090  0.44793  0.98007  1.0000
  C   C238      1.0  0.66939  0.37691  0.57259  1.0000
  C   C239      1.0  0.63629  0.37396  0.56869  1.0000
  C   C240      1.0  0.61830  0.35556  0.59033  1.0000
  C   C241      1.0  0.63333  0.34114  0.61664  1.0000
  C   C242      1.0  0.66632  0.34437  0.62072  1.0000
  H   H236      1.0  0.63032  0.27515  0.56376  1.0000
  H   H237      1.0  0.61869  0.13827  0.83434  1.0000
  H   H238      1.0  0.61970  0.32704  0.63353  1.0000
  H   H239      1.0  0.37267  0.51012  0.86654  1.0000
  H   H240      1.0  0.43403  0.14850  0.57464  1.0000
  C   C243      1.0  0.38883  0.21372  0.62535  1.0000
  C   C244      1.0  0.41966  0.22386  0.61719  1.0000
  C   C245      1.0  0.42774  0.22843  0.58476  1.0000
  C   C246      1.0  0.40474  0.22336  0.56065  1.0000
  S   S96       1.0  0.36743  0.50159  0.73953  1.0000
  C   C247      1.0  0.36599  0.20813  0.60117  1.0000
  H   H241      1.0  0.43724  0.22771  0.63592  1.0000
  H   H242      1.0  0.67792  0.33268  0.64080  1.0000
  C   C248      1.0  0.53039  0.41987  0.72999  1.0000
  C   C249      1.0  0.45215  0.43787  0.69801  1.0000
  C   C250      1.0  0.46628  0.42076  0.67224  1.0000
  C   C251      1.0  0.47307  0.38766  0.67497  1.0000
  C   C252      1.0  0.46572  0.37151  0.70352  1.0000
  C   C253      1.0  0.45076  0.38837  0.72893  1.0000
  C   C254      1.0  0.44399  0.42149  0.72621  1.0000
  H   H243      1.0  0.47253  0.43335  0.65035  1.0000
  H   H244      1.0  0.48446  0.37489  0.65520  1.0000
  H   H245      1.0  0.44483  0.37594  0.75101  1.0000
  H   H246      1.0  0.43299  0.43450  0.74614  1.0000
  C   C255      1.0  0.58080  0.12491  0.71853  1.0000
  C   C256      1.0  0.55580  0.14061  0.70254  1.0000
  C   C257      1.0  0.56015  0.17159  0.68956  1.0000
  C   C258      1.0  0.58964  0.18691  0.69239  1.0000
  C   C259      1.0  0.61487  0.17082  0.70751  1.0000
  C   C260      1.0  0.61046  0.13998  0.72061  1.0000
  H   H247      1.0  0.53283  0.12902  0.70077  1.0000
  H   H248      1.0  0.54060  0.18375  0.67782  1.0000
  H   H249      1.0  0.63779  0.18247  0.70960  1.0000
  H   H250      1.0  0.62993  0.12804  0.73258  1.0000
  C   C261      1.0  0.59690  0.19557  0.78324  1.0000
  H   H251      1.0  0.52225  0.49269  0.69392  1.0000
  C   C262      1.0  0.62458  0.15278  0.81267  1.0000
  C   C263      1.0  0.37398  0.21314  0.56880  1.0000
  H   H252      1.0  0.54879  0.37720  0.70658  1.0000
  C   C264      1.0  0.39423  0.42991  0.96203  1.0000
  H   H253      1.0  0.52421  0.40747  0.75208  1.0000
  H   H254      1.0  0.64119  0.17204  0.82090  1.0000
  C   C265      1.0  0.56876  0.14788  0.79671  1.0000
  H   H255      1.0  0.36491  0.51676  0.92596  1.0000
  H   H256      1.0  0.36973  0.31680  0.71120  1.0000
  H   H257      1.0  0.37737  0.28789  0.57248  1.0000
  H   H258      1.0  0.40104  0.34373  0.69998  1.0000
  C   C266      1.0  0.57004  0.20792  0.76769  1.0000
  H   H259      1.0  0.61883  0.20928  0.78270  1.0000
  N   N20       1.0  0.55084  0.41812  0.67568  1.0000
  C   C267      1.0  0.54329  0.45003  0.67192  1.0000
  C   C268      1.0  0.54427  0.40288  0.70412  1.0000
  H   H260      1.0  0.51088  0.46570  0.74577  1.0000
  H   H261      1.0  0.62749  0.29469  0.03002  1.0000
  C   C269      1.0  0.52298  0.45252  0.72649  1.0000
  C   C270      1.0  0.56368  0.39944  0.64830  1.0000
  H   H262      1.0  0.54724  0.46179  0.64895  1.0000
  C   C271      1.0  0.64981  0.27135  0.58049  1.0000
  C   C272      1.0  0.68524  0.29979  0.54333  1.0000
  H   H263      1.0  0.38270  0.21004  0.65046  1.0000
  H   H264      1.0  0.57130  0.23074  0.75505  1.0000
  H   H265      1.0  0.56846  0.12371  0.80662  1.0000
  C   C273      1.0  0.54215  0.18974  0.76687  1.0000
  C   C274      1.0  0.54147  0.15948  0.78140  1.0000
  H   H266      1.0  0.62472  0.38538  0.54841  1.0000
  C   C275      1.0  0.37608  0.40329  0.97094  1.0000
  H   H267      1.0  0.68324  0.39031  0.55525  1.0000
  C   C276      1.0  0.52942  0.46774  0.69730  1.0000
  H   H268      1.0  0.42729  0.31373  0.59169  1.0000
  H   H269      1.0  0.66923  0.06441  0.89140  1.0000
  C   C277      1.0  0.68455  0.36160  0.59833  1.0000
  H   H270      1.0  0.38286  0.40796  0.85587  1.0000
  N   N21       1.0  0.59586  0.16608  0.79784  1.0000
  C   C278      1.0  0.68002  0.08426  0.90469  1.0000
  H   H271      1.0  0.57683  0.41496  0.63109  1.0000
  C   C279      1.0  0.37650  0.12478  0.56035  1.0000
  H   H272      1.0  0.52157  0.19849  0.75380  1.0000
  H   H273      1.0  0.63719  0.13695  0.79498  1.0000
  H   H274      1.0  0.54401  0.38735  0.63492  1.0000
  C   C280      1.0  0.38013  0.29452  0.59781  1.0000
  N   N22       1.0  0.38770  0.31037  0.66291  1.0000
  H   H275      1.0  0.66402  0.23855  0.65410  1.0000
  Fe  Fe48      1.0  0.37612  0.49896  0.79313  1.0000
  N   N23       1.0  0.67946  0.28320  0.57392  1.0000
  C   C281      1.0  0.42789  0.15044  0.54923  1.0000
  H   H276      1.0  0.40647  0.44190  0.86690  1.0000
  C   C282      1.0  0.39220  0.31851  0.69722  1.0000
  N   N24       1.0  0.39245  0.41218  0.90645  1.0000
  C   C283      1.0  0.40813  0.30910  0.60860  1.0000
  C   C284      1.0  0.64396  0.25502  0.60934  1.0000
  C   C285      1.0  0.68937  0.11212  0.88847  1.0000
  H   H277      1.0  0.41589  0.45510  0.92272  1.0000
  C   C286      1.0  0.68542  0.08168  0.93815  1.0000
  C   C287      1.0  0.37479  0.38588  0.91502  1.0000
  S   S97       1.0  0.68678  0.11461  0.84598  1.0000
  H   H278      1.0  0.41007  0.30198  0.70798  1.0000
  C   C288      1.0  0.40238  0.43395  0.92950  1.0000
  C   C289      1.0  0.41152  0.31695  0.64145  1.0000
  C   C290      1.0  0.40207  0.41608  0.87262  1.0000
  H   H279      1.0  0.67855  0.05986  0.95053  1.0000
  H   H280      1.0  0.42396  0.40194  0.86754  1.0000
  H   H281      1.0  0.38881  0.11294  0.58082  1.0000
  C   C291      1.0  0.66857  0.25081  0.63147  1.0000
  H   H282      1.0  0.36678  0.36872  0.89675  1.0000
  H   H283      1.0  0.68448  0.27836  0.02833  1.0000
  H   H284      1.0  0.36906  0.40025  0.99601  1.0000
  C   C292      1.0  0.36634  0.38104  0.94735  1.0000
  N   N25       1.0  0.39922  0.13944  0.53802  1.0000
  H   H285      1.0  0.36199  0.10595  0.54779  1.0000
  H   H286      1.0  0.47161  0.17509  0.53757  1.0000
  Fe  Fe49      1.0  0.68748  0.57070  0.27645  1.0000
  S   S98       1.0  0.63627  0.58607  0.27665  1.0000
  C   C293      1.0  0.50521  0.98371  0.39016  1.0000
  Fe  Fe50      1.0  0.63989  0.58162  0.33055  1.0000
  S   S99       1.0  0.62312  0.61791  0.36821  1.0000
  H   H287      1.0  0.51500  0.69134  0.45957  1.0000
  C   C294      1.0  0.61899  0.74789  0.04670  1.0000
  H   H288      1.0  0.67791  0.69634  0.06764  1.0000
  S   S100      1.0  0.46935  0.00265  0.31310  1.0000
  H   H289      1.0  0.62769  0.74244  0.30904  1.0000
  C   C295      1.0  0.63988  0.64763  0.05146  1.0000
  C   C296      1.0  0.36381  0.91513  0.18266  1.0000
  Fe  Fe51      1.0  0.49230  0.77797  0.43235  1.0000
  S   S101      1.0  0.47934  0.77683  0.37986  1.0000
  S   S102      1.0  0.46993  0.74398  0.46823  1.0000
  Fe  Fe52      1.0  0.54237  0.83067  0.42284  1.0000
  S   S103      1.0  0.53319  0.83332  0.36932  1.0000
  S   S104      1.0  0.57309  0.86904  0.44689  1.0000
  Fe  Fe53      1.0  0.48167  0.83101  0.38285  1.0000
  S   S105      1.0  0.44146  0.86183  0.36397  1.0000
  Fe  Fe54      1.0  0.53200  0.77889  0.37116  1.0000
  S   S106      1.0  0.55156  0.74684  0.33095  1.0000
  S   S107      1.0  0.49061  0.83192  0.43636  1.0000
  S   S108      1.0  0.54520  0.77636  0.42381  1.0000
  C   C297      1.0  0.53464  0.96814  0.39048  1.0000
  C   C298      1.0  0.46080  0.96274  0.32452  1.0000
  C   C299      1.0  0.48572  0.94031  0.32692  1.0000
  C   C300      1.0  0.48007  0.90911  0.33866  1.0000
  C   C301      1.0  0.44934  0.90002  0.34754  1.0000
  C   C302      1.0  0.42428  0.92216  0.34430  1.0000
  C   C303      1.0  0.43003  0.95355  0.33316  1.0000
  H   H290      1.0  0.50959  0.94730  0.32024  1.0000
  H   H291      1.0  0.49949  0.89214  0.34085  1.0000
  H   H292      1.0  0.40045  0.91522  0.35120  1.0000
  H   H293      1.0  0.41074  0.97076  0.33179  1.0000
  C   C304      1.0  0.60464  0.65410  0.35672  1.0000
  C   C305      1.0  0.60116  0.67894  0.37983  1.0000
  C   C306      1.0  0.58474  0.70740  0.37223  1.0000
  C   C307      1.0  0.57185  0.71125  0.34138  1.0000
  C   C308      1.0  0.57559  0.68654  0.31811  1.0000
  C   C309      1.0  0.59201  0.65800  0.32572  1.0000
  H   H294      1.0  0.61088  0.67600  0.40387  1.0000
  H   H295      1.0  0.58232  0.72641  0.39020  1.0000
  H   H296      1.0  0.56573  0.68946  0.29413  1.0000
  H   H297      1.0  0.59442  0.63888  0.30781  1.0000
  C   C310      1.0  0.64857  0.73743  0.05770  1.0000
  C   C311      1.0  0.66475  0.88334  0.47300  1.0000
  C   C312      1.0  0.63296  0.88834  0.46390  1.0000
  C   C313      1.0  0.61405  0.86239  0.45328  1.0000
  C   C314      1.0  0.62750  0.83154  0.45059  1.0000
  C   C315      1.0  0.65941  0.82658  0.45960  1.0000
  H   H298      1.0  0.45480  0.89488  0.42548  1.0000
  H   H299      1.0  0.62277  0.91229  0.46586  1.0000
  H   H300      1.0  0.61314  0.81138  0.44240  1.0000
  H   H301      1.0  0.38103  0.01775  0.19048  1.0000
  H   H302      1.0  0.63736  0.63940  0.07685  1.0000
  C   C316      1.0  0.37629  0.75144  0.44438  1.0000
  C   C317      1.0  0.40947  0.75581  0.44483  1.0000
  C   C318      1.0  0.42816  0.73920  0.46716  1.0000
  C   C319      1.0  0.41344  0.71819  0.48898  1.0000
  C   C320      1.0  0.38024  0.71389  0.48859  1.0000
  C   C321      1.0  0.60105  0.84564  0.52982  1.0000
  H   H303      1.0  0.42049  0.77217  0.42799  1.0000
  H   H304      1.0  0.42774  0.70525  0.50631  1.0000
  C   C322      1.0  0.67797  0.85233  0.47144  1.0000
  N   N26       1.0  0.50889  0.67309  0.37979  1.0000
  H   H305      1.0  0.55989  0.92486  0.40405  1.0000
  C   C323      1.0  0.52758  0.64601  0.37845  1.0000
  C   C324      1.0  0.51878  0.67839  0.43687  1.0000
  C   C325      1.0  0.54282  0.63481  0.40625  1.0000
  C   C326      1.0  0.53852  0.65128  0.43558  1.0000
  H   H306      1.0  0.38902  0.00104  0.13348  1.0000
  H   H307      1.0  0.46798  0.67606  0.35000  1.0000
  H   H308      1.0  0.53162  0.63340  0.35565  1.0000
  C   C327      1.0  0.41963  0.94406  0.20375  1.0000
  H   H309      1.0  0.55865  0.61407  0.40477  1.0000
  H   H310      1.0  0.55058  0.64315  0.45721  1.0000
  C   C328      1.0  0.66006  0.70247  0.31600  1.0000
  H   H311      1.0  0.38579  0.91249  0.13558  1.0000
  C   C329      1.0  0.50392  0.68891  0.40861  1.0000
  N   N27       1.0  0.63253  0.68220  0.04962  1.0000
  C   C330      1.0  0.36154  0.73055  0.46628  1.0000
  H   H312      1.0  0.51230  0.89851  0.42618  1.0000
  S   S109      1.0  0.37842  0.03279  0.31286  1.0000
  H   H313      1.0  0.45561  0.97993  0.40144  1.0000
  N   N28       1.0  0.48114  0.93757  0.41503  1.0000
  C   C331      1.0  0.47855  0.96802  0.40273  1.0000
  N   N29       1.0  0.39500  0.93985  0.22492  1.0000
  H   H314      1.0  0.61860  0.72921  0.25100  1.0000
  C   C332      1.0  0.49298  0.68460  0.35055  1.0000
  S   S110      1.0  0.69196  0.56962  0.33069  1.0000
  H   H315      1.0  0.42031  0.96388  0.26338  1.0000
  H   H316      1.0  0.50272  0.00724  0.37904  1.0000
  H   H317      1.0  0.66254  0.61356  0.15109  1.0000
  N   N30       1.0  0.67497  0.67642  0.30203  1.0000
  C   C333      1.0  0.66987  0.66877  0.27014  1.0000
  C   C334      1.0  0.51006  0.92245  0.41611  1.0000
  C   C335      1.0  0.53718  0.93737  0.40368  1.0000
  H   H318      1.0  0.57594  0.89052  0.52625  1.0000
  C   C336      1.0  0.63470  0.71455  0.26518  1.0000
  H   H319      1.0  0.66953  0.80255  0.45815  1.0000
  H   H320      1.0  0.68123  0.64785  0.25912  1.0000
  H   H321      1.0  0.64574  0.68134  0.22599  1.0000
  H   H322      1.0  0.55531  0.97971  0.38008  1.0000
  C   C337      1.0  0.36284  0.00401  0.17822  1.0000
  H   H323      1.0  0.63307  0.80508  0.53306  1.0000
  H   H324      1.0  0.44149  0.95556  0.21173  1.0000
  C   C338      1.0  0.63998  0.72212  0.29773  1.0000
  H   H325      1.0  0.49320  0.71145  0.34988  1.0000
  H   H326      1.0  0.50545  0.67623  0.32826  1.0000
  H   H327      1.0  0.67882  0.90339  0.48173  1.0000
  H   H328      1.0  0.48849  0.70991  0.40987  1.0000
  H   H329      1.0  0.67099  0.59405  0.20701  1.0000
  C   C339      1.0  0.36725  0.99469  0.14580  1.0000
  H   H330      1.0  0.39866  0.92830  0.27462  1.0000
  C   C340      1.0  0.39816  0.94989  0.25889  1.0000
  H   H331      1.0  0.43116  0.92870  0.41500  1.0000
  H   H332      1.0  0.36914  0.69768  0.50552  1.0000
  C   C341      1.0  0.65485  0.70430  0.05925  1.0000
  H   H333      1.0  0.66691  0.75481  0.06411  1.0000
  C   C342      1.0  0.62995  0.83085  0.53713  1.0000
  H   H334      1.0  0.58154  0.83147  0.51995  1.0000
  H   H335      1.0  0.43607  0.93798  0.15445  1.0000
  C   C343      1.0  0.45300  0.92159  0.42829  1.0000
  H   H336      1.0  0.45030  0.92780  0.45433  1.0000
  C   C344      1.0  0.41683  0.93401  0.17140  1.0000
  H   H337      1.0  0.66318  0.70782  0.34158  1.0000
  C   C345      1.0  0.38871  0.91946  0.16085  1.0000
  H   H338      1.0  0.66481  0.64287  0.04376  1.0000
  H   H339      1.0  0.61412  0.77352  0.04448  1.0000
  C   C346      1.0  0.68994  0.60639  0.19453  1.0000
  C   C347      1.0  0.64973  0.68770  0.25123  1.0000
  H   H340      1.0  0.37784  0.96559  0.26615  1.0000
  C   C348      1.0  0.60326  0.69222  0.03928  1.0000
  C   C349      1.0  0.36735  0.92561  0.21479  1.0000
  H   H341      1.0  0.68093  0.64190  0.33892  1.0000
  C   C350      1.0  0.68521  0.61745  0.16282  1.0000
  S   S111      1.0  0.41804  0.03495  0.24375  1.0000
  H   H342      1.0  0.36201  0.76446  0.42710  1.0000
  Fe  Fe55      1.0  0.42939  0.03526  0.29670  1.0000
  H   H343      1.0  0.59859  0.94192  0.53494  1.0000
  C   C351      1.0  0.59808  0.87919  0.53332  1.0000
  H   H344      1.0  0.64114  0.94441  0.53438  1.0000
  Fe  Fe56      1.0  0.36731  0.03649  0.25971  1.0000
  C   C352      1.0  0.59608  0.72519  0.03756  1.0000
  Fe  Fe57      1.0  0.48356  0.75632  0.87594  1.0000
  S   S112      1.0  0.48679  0.75302  0.93005  1.0000
  S   S113      1.0  0.44601  0.73006  0.84660  1.0000
  Fe  Fe58      1.0  0.53773  0.80521  0.87191  1.0000
  S   S114      1.0  0.54561  0.80587  0.92556  1.0000
  S   S115      1.0  0.56899  0.83111  0.83598  1.0000
  Fe  Fe59      1.0  0.53974  0.75205  0.92218  1.0000
  S   S116      1.0  0.57063  0.71440  0.94615  1.0000
  Fe  Fe60      1.0  0.49210  0.80699  0.92894  1.0000
  S   S117      1.0  0.46956  0.84157  0.96502  1.0000
  S   S118      1.0  0.53593  0.75100  0.86800  1.0000
  S   S119      1.0  0.48476  0.81070  0.87532  1.0000
  H   H345      1.0  0.39936  0.64751  0.63620  1.0000
  H   H346      1.0  0.49112  0.88805  0.87275  1.0000
  Fe  Fe61      1.0  0.67219  0.02197  0.76580  1.0000
  Fe  Fe62      1.0  0.62261  0.01220  0.81815  1.0000
  S   S120      1.0  0.59716  0.98096  0.85465  1.0000
  H   H347      1.0  0.67900  0.68968  0.98123  1.0000
  H   H348      1.0  0.44851  0.64405  0.92065  1.0000
  N   N31       1.0  0.37551  0.65571  0.68114  1.0000
  S   S121      1.0  0.46057  0.57899  0.82425  1.0000
  S   S122      1.0  0.68916  0.95855  0.59011  1.0000
  C   C353      1.0  0.37940  0.65889  0.64845  1.0000
  S   S123      1.0  0.42112  0.55966  0.73880  1.0000
  C   C354      1.0  0.60915  0.72516  0.95875  1.0000
  C   C355      1.0  0.63119  0.70074  0.96575  1.0000
  C   C356      1.0  0.66199  0.70862  0.97632  1.0000
  C   C357      1.0  0.67085  0.74101  0.97994  1.0000
  C   C358      1.0  0.64872  0.76540  0.97318  1.0000
  C   C359      1.0  0.61799  0.75753  0.96248  1.0000
  H   H349      1.0  0.62444  0.67564  0.96289  1.0000
  H   H350      1.0  0.46152  0.93009  0.94685  1.0000
  H   H351      1.0  0.65546  0.79051  0.97603  1.0000
  H   H352      1.0  0.60112  0.77651  0.95744  1.0000
  C   C360      1.0  0.45173  0.68857  0.83834  1.0000
  C   C361      1.0  0.47736  0.67177  0.85163  1.0000
  C   C362      1.0  0.48032  0.63828  0.84632  1.0000
  C   C363      1.0  0.45770  0.62140  0.82777  1.0000
  C   C364      1.0  0.43228  0.63826  0.81411  1.0000
  C   C365      1.0  0.42929  0.67176  0.81946  1.0000
  H   H353      1.0  0.49472  0.68451  0.86627  1.0000
  H   H354      1.0  0.50000  0.62533  0.85697  1.0000
  H   H355      1.0  0.41467  0.62538  0.79992  1.0000
  H   H356      1.0  0.40939  0.68466  0.80921  1.0000
  C   C366      1.0  0.58967  0.93933  0.84876  1.0000
  C   C367      1.0  0.57387  0.92233  0.87318  1.0000
  C   C368      1.0  0.56734  0.88917  0.86947  1.0000
  C   C369      1.0  0.57653  0.87280  0.84122  1.0000
  C   C370      1.0  0.59256  0.88968  0.81687  1.0000
  C   C371      1.0  0.59907  0.92290  0.82056  1.0000
  H   H357      1.0  0.56683  0.93491  0.89515  1.0000
  H   H358      1.0  0.55553  0.87624  0.88858  1.0000
  H   H359      1.0  0.59976  0.87707  0.79499  1.0000
  H   H360      1.0  0.61121  0.93583  0.80164  1.0000
  C   C372      1.0  0.42781  0.84253  0.96897  1.0000
  C   C373      1.0  0.40820  0.82457  0.94820  1.0000
  C   C374      1.0  0.44390  0.91825  0.93168  1.0000
  H   H361      1.0  0.64693  0.98518  0.63824  1.0000
  N   N32       1.0  0.40472  0.65788  0.89875  1.0000
  C   C375      1.0  0.41399  0.86302  0.99238  1.0000
  H   H362      1.0  0.41863  0.80870  0.93011  1.0000
  H   H363      1.0  0.60261  0.77830  0.86559  1.0000
  H   H364      1.0  0.42905  0.87688  0.00858  1.0000
  C   C376      1.0  0.38076  0.86625  0.99450  1.0000
  C   C377      1.0  0.39901  0.59341  0.87987  1.0000
  C   C378      1.0  0.41170  0.92120  0.93974  1.0000
  H   H365      1.0  0.66202  0.90871  0.67554  1.0000
  H   H366      1.0  0.39616  0.70818  0.89154  1.0000
  H   H367      1.0  0.49921  0.92075  0.90021  1.0000
  C   C379      1.0  0.43112  0.88329  0.88761  1.0000
  H   H368      1.0  0.37505  0.56863  0.61636  1.0000
  C   C380      1.0  0.62057  0.93271  0.54649  1.0000
  C   C381      1.0  0.62560  0.77953  0.87740  1.0000
  H   H369      1.0  0.38134  0.87174  0.88140  1.0000
  C   C382      1.0  0.68459  0.78342  0.90705  1.0000
  H   H370      1.0  0.68368  0.73160  0.90552  1.0000
  N   N33       1.0  0.64158  0.75186  0.88510  1.0000
  C   C383      1.0  0.42522  0.60364  0.89792  1.0000
  H   H371      1.0  0.65524  0.00163  0.69564  1.0000
  C   C384      1.0  0.42766  0.63614  0.90733  1.0000
  C   C385      1.0  0.48711  0.89696  0.89792  1.0000
  H   H372      1.0  0.57333  0.73305  0.02803  1.0000
  Fe  Fe63      1.0  0.36862  0.55529  0.74718  1.0000
  C   C386      1.0  0.63847  0.80987  0.88490  1.0000
  H   H373      1.0  0.67805  0.83513  0.90648  1.0000
  C   C387      1.0  0.37550  0.61562  0.87162  1.0000
  S   S124      1.0  0.62026  0.00910  0.76383  1.0000
  C   C388      1.0  0.65529  0.84959  0.54831  1.0000
  C   C389      1.0  0.67520  0.99367  0.68107  1.0000
  H   H374      1.0  0.39744  0.56849  0.87155  1.0000
  H   H375      1.0  0.49851  0.87977  0.91483  1.0000
  H   H376      1.0  0.38956  0.62942  0.72308  1.0000
  H   H377      1.0  0.40443  0.93510  0.96091  1.0000
  H   H378      1.0  0.60139  0.72078  0.88148  1.0000
  H   H379      1.0  0.43275  0.69928  0.91088  1.0000
  C   C390      1.0  0.37495  0.82774  0.95037  1.0000
  C   C391      1.0  0.62748  0.72037  0.87712  1.0000
  N   N34       1.0  0.45317  0.89993  0.90554  1.0000
  N   N35       1.0  0.62328  0.89745  0.54376  1.0000
  C   C392      1.0  0.37868  0.64796  0.88144  1.0000
  Fe  Fe64      1.0  0.42532  0.55256  0.79235  1.0000
  C   C393      1.0  0.66807  0.81176  0.90002  1.0000
  S   S125      1.0  0.67537  0.02093  0.82021  1.0000
  H   H380      1.0  0.62421  0.63291  0.03548  1.0000
  C   C394      1.0  0.38902  0.90473  0.92129  1.0000
  S   S126      1.0  0.37273  0.55255  0.80141  1.0000
  H   H381      1.0  0.67138  0.89767  0.55954  1.0000
  H   H382      1.0  0.39600  0.69525  0.93330  1.0000
  H   H383      1.0  0.37349  0.56095  0.67581  1.0000
  H   H384      1.0  0.43849  0.86779  0.86764  1.0000
  H   H385      1.0  0.68139  0.93824  0.75864  1.0000
  C   C395      1.0  0.39952  0.63831  0.69990  1.0000
  H   H386      1.0  0.62539  0.83172  0.87912  1.0000
  C   C396      1.0  0.68672  0.90731  0.68287  1.0000
  H   H387      1.0  0.41998  0.65439  0.70537  1.0000
  H   H388      1.0  0.63719  0.70100  0.89272  1.0000
  C   C397      1.0  0.40742  0.69173  0.90931  1.0000
  C   C398      1.0  0.67053  0.98429  0.64858  1.0000
  H   H389      1.0  0.44416  0.58673  0.90335  1.0000
  H   H390      1.0  0.65458  0.94398  0.72598  1.0000
  H   H391      1.0  0.63198  0.71411  0.85134  1.0000
  H   H392      1.0  0.37034  0.88252  0.01225  1.0000
  H   H393      1.0  0.40799  0.61657  0.68637  1.0000
  C   C399      1.0  0.67097  0.92608  0.73695  1.0000
  H   H394      1.0  0.65720  0.90475  0.74494  1.0000
  H   H395      1.0  0.58555  0.67481  0.03140  1.0000
  C   C400      1.0  0.39873  0.88554  0.89512  1.0000
  C   C401      1.0  0.65142  0.88305  0.55169  1.0000
  C   C402      1.0  0.67100  0.75349  0.89917  1.0000
  H   H396      1.0  0.67825  0.83849  0.55280  1.0000
  H   H397      1.0  0.62079  0.94028  0.57240  1.0000
  H   H398      1.0  0.36406  0.90580  0.92806  1.0000
  C   C403      1.0  0.36115  0.84884  0.97327  1.0000
  Fe  Fe65      1.0  0.79571  0.14384  0.06983  1.0000
  S   S127      1.0  0.79525  0.19817  0.06878  1.0000
  S   S128      1.0  0.83421  0.11519  0.09510  1.0000
  Fe  Fe66      1.0  0.74208  0.19295  0.07242  1.0000
  H   H399      1.0  0.85552  0.21312  0.13914  1.0000
  S   S129      1.0  0.74315  0.13892  0.07725  1.0000
  H   H400      1.0  0.95490  0.19388  0.43786  1.0000
  S   S130      1.0  0.92197  0.05084  0.24829  1.0000
  S   S131      1.0  0.83163  0.08026  0.24398  1.0000
  C   C404      1.0  0.01496  0.45146  0.38859  1.0000
  S   S132      1.0  0.97182  0.07599  0.32441  1.0000
  H   H401      1.0  0.87160  0.05810  0.19081  1.0000
  Fe  Fe67      1.0  0.99004  0.25176  0.38350  1.0000
  S   S133      1.0  0.99679  0.25167  0.43730  1.0000
  S   S134      1.0  0.94967  0.22320  0.36095  1.0000
  Fe  Fe68      1.0  0.00193  0.30529  0.43357  1.0000
  S   S135      1.0  0.98024  0.34106  0.46922  1.0000
  S   S136      1.0  0.99097  0.30600  0.38051  1.0000
  H   H402      1.0  0.81787  0.42615  0.44949  1.0000
  S   S137      1.0  0.75464  0.39566  0.51517  1.0000
  S   S138      1.0  0.74413  0.49077  0.49857  1.0000
  C   C405      1.0  0.98496  0.39374  0.40275  1.0000
  S   S139      1.0  0.83016  0.35966  0.47517  1.0000
  C   C406      1.0  0.96055  0.11689  0.40894  1.0000
  C   C407      1.0  0.93846  0.34563  0.47082  1.0000
  C   C408      1.0  0.92495  0.36611  0.49445  1.0000
  C   C409      1.0  0.89179  0.37046  0.49618  1.0000
  C   C410      1.0  0.87190  0.35452  0.47407  1.0000
  C   C411      1.0  0.88544  0.33432  0.45020  1.0000
  C   C412      1.0  0.91858  0.32978  0.44863  1.0000
  H   H403      1.0  0.94016  0.37839  0.51174  1.0000
  H   H404      1.0  0.88164  0.38603  0.51470  1.0000
  H   H405      1.0  0.87022  0.32185  0.43306  1.0000
  H   H406      1.0  0.92870  0.31390  0.43036  1.0000
  C   C413      1.0  0.95680  0.18334  0.34724  1.0000
  C   C414      1.0  0.93112  0.16425  0.33680  1.0000
  C   C415      1.0  0.93567  0.13157  0.32825  1.0000
  C   C416      1.0  0.96602  0.11788  0.32999  1.0000
  C   C417      1.0  0.99188  0.13731  0.33917  1.0000
  C   C418      1.0  0.98728  0.16988  0.34800  1.0000
  H   H407      1.0  0.90750  0.17460  0.33612  1.0000
  H   H408      1.0  0.91558  0.11679  0.32123  1.0000
  H   H409      1.0  0.70271  0.53112  0.39581  1.0000
  H   H410      1.0  0.00722  0.18440  0.35588  1.0000
  C   C419      1.0  0.83044  0.10257  0.13558  1.0000
  C   C420      1.0  0.85350  0.08171  0.14827  1.0000
  C   C421      1.0  0.85341  0.07383  0.18126  1.0000
  C   C422      1.0  0.83033  0.08698  0.20188  1.0000
  C   C423      1.0  0.80669  0.10713  0.18907  1.0000
  C   C424      1.0  0.80665  0.11483  0.15597  1.0000
  H   H411      1.0  0.87189  0.07203  0.13260  1.0000
  H   H412      1.0  0.77714  0.38963  0.36132  1.0000
  H   H413      1.0  0.78865  0.11723  0.20487  1.0000
  H   H414      1.0  0.78866  0.13079  0.14638  1.0000
  Fe  Fe69      1.0  0.80783  0.38904  0.51583  1.0000
  H   H415      1.0  0.86683  0.15355  0.24028  1.0000
  Fe  Fe70      1.0  0.76558  0.44803  0.52443  1.0000
  H   H416      1.0  0.82605  0.18121  0.13652  1.0000
  C   C425      1.0  0.72807  0.48558  0.45934  1.0000
  C   C426      1.0  0.72498  0.45493  0.44506  1.0000
  H   H417      1.0  0.83837  0.18414  0.19799  1.0000
  H   H418      1.0  0.01607  0.45993  0.44032  1.0000
  H   H419      1.0  0.98549  0.38522  0.35147  1.0000
  H   H420      1.0  0.77855  0.49154  0.38125  1.0000
  C   C427      1.0  0.80630  0.43072  0.42652  1.0000
  C   C428      1.0  0.99370  0.41464  0.42792  1.0000
  C   C429      1.0  0.78483  0.46716  0.38827  1.0000
  S   S140      1.0  0.88075  0.04825  0.31659  1.0000
  H   H421      1.0  0.98905  0.06290  0.39598  1.0000
  N   N36       1.0  0.79891  0.46156  0.41753  1.0000
  H   H422      1.0  0.83210  0.49655  0.43410  1.0000
  C   C430      1.0  0.79866  0.40442  0.40642  1.0000
  C   C431      1.0  0.80731  0.48884  0.43879  1.0000
  S   S141      1.0  0.81843  0.44176  0.52160  1.0000
  H   H423      1.0  0.85971  0.18026  0.11039  1.0000
  C   C432      1.0  0.99185  0.40198  0.37081  1.0000
  S   S142      1.0  0.69609  0.47455  0.35371  1.0000
  H   H424      1.0  0.98886  0.40811  0.45284  1.0000
  H   H425      1.0  0.02182  0.07096  0.42288  1.0000
  C   C433      1.0  0.77680  0.44142  0.36760  1.0000
  H   H426      1.0  0.73139  0.43368  0.45853  1.0000
  S   S143      1.0  0.71608  0.22465  0.10873  1.0000
  C   C434      1.0  0.71951  0.51295  0.44156  1.0000
  H   H427      1.0  0.80165  0.07224  0.30857  1.0000
  N   N37       1.0  0.86913  0.16847  0.15991  1.0000
  C   C435      1.0  0.85926  0.17016  0.19143  1.0000
  C   C436      1.0  0.89497  0.15009  0.15146  1.0000
  H   H428      1.0  0.79091  0.50961  0.43526  1.0000
  C   C437      1.0  0.91167  0.13282  0.17493  1.0000
  C   C438      1.0  0.90174  0.13441  0.20712  1.0000
  C   C439      1.0  0.85186  0.18679  0.13535  1.0000
  C   C440      1.0  0.71381  0.45177  0.41309  1.0000
  H   H429      1.0  0.90219  0.14791  0.12631  1.0000
  H   H430      1.0  0.92177  0.15109  0.41251  1.0000
  H   H431      1.0  0.93164  0.11762  0.16806  1.0000
  H   H432      1.0  0.91399  0.12061  0.22549  1.0000
  C   C441      1.0  0.78367  0.40985  0.37687  1.0000
  H   H433      1.0  0.02130  0.41771  0.31635  1.0000
  H   H434      1.0  0.76437  0.44599  0.34508  1.0000
  H   H435      1.0  0.72023  0.29413  0.07355  1.0000
  N   N38       1.0  0.00673  0.43052  0.36409  1.0000
  C   C442      1.0  0.87532  0.15310  0.21548  1.0000
  H   H436      1.0  0.79346  0.06395  0.36764  1.0000
  C   C443      1.0  0.96531  0.17056  0.43182  1.0000
  C   C444      1.0  0.94660  0.14641  0.41776  1.0000
  H   H437      1.0  0.80417  0.37998  0.41398  1.0000
  H   H438      1.0  0.97312  0.37113  0.40807  1.0000
  C   C445      1.0  0.01084  0.13528  0.42763  1.0000
  H   H439      1.0  0.01549  0.12702  0.34012  1.0000
  C   C446      1.0  0.99760  0.16493  0.43703  1.0000
  H   H440      1.0  0.94607  0.09872  0.39685  1.0000
  Fe  Fe71      1.0  0.87079  0.04804  0.26299  1.0000
  C   C447      1.0  0.00885  0.44369  0.42088  1.0000
  H   H441      1.0  0.69920  0.32657  0.11945  1.0000
  H   H442      1.0  0.99044  0.44822  0.31913  1.0000
  N   N39       1.0  0.99230  0.11166  0.41393  1.0000
  Fe  Fe72      1.0  0.93207  0.04698  0.30143  1.0000
  H   H443      1.0  0.80492  0.48213  0.46462  1.0000
  C   C448      1.0  0.70866  0.50982  0.40947  1.0000
  H   H444      1.0  0.01252  0.18359  0.44771  1.0000
  C   C449      1.0  0.01264  0.43911  0.33031  1.0000
  C   C450      1.0  0.69573  0.30246  0.07335  1.0000
  C   C451      1.0  0.70613  0.47921  0.39500  1.0000
  H   H445      1.0  0.71179  0.42799  0.40212  1.0000
  C   C452      1.0  0.79195  0.04367  0.35083  1.0000
  C   C453      1.0  0.79656  0.04833  0.31778  1.0000
  C   C454      1.0  0.00708  0.08125  0.40323  1.0000
  H   H446      1.0  0.02221  0.08560  0.38169  1.0000
  H   H447      1.0  0.72171  0.53674  0.45250  1.0000
  H   H448      1.0  0.02720  0.47389  0.38334  1.0000
  C   C455      1.0  0.86611  0.44080  0.80917  1.0000
  H   H449      1.0  0.88823  0.49506  0.71249  1.0000
  S   S144      1.0  0.83082  0.49755  0.75160  1.0000
  Fe  Fe73      1.0  0.73984  0.13840  0.02281  1.0000
  S   S145      1.0  0.94834  0.50294  0.86172  1.0000
  Fe  Fe74      1.0  0.92156  0.53204  0.82438  1.0000
  S   S146      1.0  0.73435  0.19212  0.01868  1.0000
  C   C456      1.0  0.70905  0.13494  0.93938  1.0000
  S   S147      1.0  0.70938  0.10142  0.99674  1.0000
  C   C457      1.0  0.80338  0.14805  0.93108  1.0000
  S   S148      1.0  0.80952  0.22313  0.97578  1.0000
  S   S149      1.0  0.79260  0.13863  0.01570  1.0000
  Fe  Fe75      1.0  0.98967  0.32353  0.88227  1.0000
  S   S150      1.0  0.98108  0.32966  0.93567  1.0000
  S   S151      1.0  0.96578  0.35171  0.84243  1.0000
  Fe  Fe76      1.0  0.98536  0.27544  0.93708  1.0000
  S   S152      1.0  0.95944  0.24144  0.97049  1.0000
  S   S153      1.0  0.98973  0.26898  0.88306  1.0000
  Fe  Fe77      1.0  0.81635  0.43299  0.57510  1.0000
  S   S154      1.0  0.80992  0.37942  0.56912  1.0000
  S   S155      1.0  0.85530  0.45507  0.60603  1.0000
  Fe  Fe78      1.0  0.75753  0.39099  0.56926  1.0000
  S   S156      1.0  0.76430  0.44420  0.57877  1.0000
  C   C458      1.0  0.88625  0.37709  0.81202  1.0000
  C   C459      1.0  0.85118  0.22831  0.97466  1.0000
  C   C460      1.0  0.87107  0.21194  0.99603  1.0000
  C   C461      1.0  0.90419  0.21624  0.99440  1.0000
  C   C462      1.0  0.91768  0.23700  0.97151  1.0000
  C   C463      1.0  0.89777  0.25336  0.95009  1.0000
  C   C464      1.0  0.86462  0.24893  0.95162  1.0000
  Fe  Fe79      1.0  0.86781  0.52919  0.77575  1.0000
  H   H450      1.0  0.71809  0.25989  0.64159  1.0000
  H   H451      1.0  0.90793  0.26938  0.93239  1.0000
  H   H452      1.0  0.84933  0.26168  0.93504  1.0000
  C   C465      1.0  0.83853  0.48277  0.71217  1.0000
  C   C466      1.0  0.86883  0.48502  0.69854  1.0000
  C   C467      1.0  0.87394  0.47501  0.66635  1.0000
  C   C468      1.0  0.84883  0.46277  0.64756  1.0000
  C   C469      1.0  0.81876  0.45939  0.66154  1.0000
  C   C470      1.0  0.81366  0.46932  0.69382  1.0000
  H   H453      1.0  0.89064  0.38587  0.86304  1.0000
  H   H454      1.0  0.86183  0.43288  0.75760  1.0000
  H   H455      1.0  0.79932  0.44966  0.64734  1.0000
  H   H456      1.0  0.79023  0.46717  0.70435  1.0000
  C   C471      1.0  0.95254  0.46090  0.85594  1.0000
  C   C472      1.0  0.95899  0.44142  0.88273  1.0000
  C   C473      1.0  0.96380  0.40800  0.87876  1.0000
  C   C474      1.0  0.96212  0.39384  0.84793  1.0000
  C   C475      1.0  0.95585  0.41334  0.82111  1.0000
  C   C476      1.0  0.95089  0.44676  0.82510  1.0000
  H   H457      1.0  0.96027  0.45225  0.90667  1.0000
  H   H458      1.0  0.96843  0.39315  0.89960  1.0000
  H   H459      1.0  0.95456  0.40251  0.79717  1.0000
  H   H460      1.0  0.94624  0.46158  0.80426  1.0000
  C   C477      1.0  0.70393  0.27868  0.59524  1.0000
  C   C478      1.0  0.86812  0.42232  0.78067  1.0000
  C   C479      1.0  0.79883  0.16814  0.90468  1.0000
  C   C480      1.0  0.79121  0.11659  0.93022  1.0000
  C   C481      1.0  0.88380  0.39622  0.84006  1.0000
  H   H461      1.0  0.89506  0.35246  0.81347  1.0000
  Fe  Fe80      1.0  0.78778  0.19258  0.01520  1.0000
  H   H462      1.0  0.02042  0.48995  0.84459  1.0000
  H   H463      1.0  0.91948  0.20347  0.01098  1.0000
  H   H464      1.0  0.84710  0.45069  0.87518  1.0000
  N   N40       1.0  0.77529  0.10533  0.90352  1.0000
  H   H465      1.0  0.79417  0.10138  0.95122  1.0000
  C   C482      1.0  0.77155  0.12453  0.87703  1.0000
  H   H466      1.0  0.81598  0.15709  0.95224  1.0000
  C   C483      1.0  0.70045  0.10674  0.95547  1.0000
  H   H467      1.0  0.71010  0.15953  0.89369  1.0000
  C   C484      1.0  0.80941  0.52394  0.60208  1.0000
  H   H468      1.0  0.80750  0.19287  0.90569  1.0000
  H   H469      1.0  0.75870  0.11571  0.85592  1.0000
  H   H470      1.0  0.72736  0.28840  0.59022  1.0000
  H   H471      1.0  0.86098  0.19593  0.01379  1.0000
  H   H472      1.0  0.75209  0.06628  0.92675  1.0000
  H   H473      1.0  0.82133  0.51166  0.58127  1.0000
  C   C485      1.0  0.76323  0.07210  0.90309  1.0000
  S   S157      1.0  0.92035  0.52189  0.77086  1.0000
  H   H474      1.0  0.88261  0.47221  0.86342  1.0000
  H   H475      1.0  0.72049  0.15445  0.95255  1.0000
  C   C486      1.0  0.87846  0.39032  0.78214  1.0000
  S   S158      1.0  0.72630  0.36029  0.60138  1.0000
  H   H476      1.0  0.88059  0.37590  0.76013  1.0000
  H   H477      1.0  0.88608  0.43733  0.88797  1.0000
  H   H478      1.0  0.85807  0.46566  0.80778  1.0000
  C   C487      1.0  0.87231  0.44789  0.86771  1.0000
  H   H479      1.0  0.77899  0.17181  0.85675  1.0000
  S   S159      1.0  0.86849  0.53567  0.82985  1.0000
  H   H480      1.0  0.89730  0.47749  0.65571  1.0000
  N   N41       1.0  0.87439  0.42784  0.83828  1.0000
  C   C488      1.0  0.78290  0.15634  0.87736  1.0000
  H   H481      1.0  0.79390  0.50545  0.61330  1.0000
  H   H482      1.0  0.70544  0.31705  0.54559  1.0000
  H   H483      1.0  0.78293  0.05489  0.89819  1.0000
  H   H484      1.0  0.74451  0.06862  0.88434  1.0000
  C   C489      1.0  0.70314  0.13775  0.90604  1.0000
  N   N42       1.0  0.83246  0.53635  0.62578  1.0000
  H   H485      1.0  0.87204  0.53220  0.59369  1.0000
  H   H486      1.0  0.02422  0.42863  0.95426  1.0000
  H   H487      1.0  0.02470  0.49272  0.90405  1.0000
  H   H488      1.0  0.00855  0.13657  0.84006  1.0000
  C   C490      1.0  0.69881  0.26266  0.62442  1.0000
  H   H489      1.0  0.00451  0.19619  0.83799  1.0000
  C   C491      1.0  0.02157  0.14983  0.82186  1.0000
  C   C492      1.0  0.01957  0.18356  0.82067  1.0000
  H   H490      1.0  0.02411  0.24607  0.81983  1.0000
  H   H491      1.0  0.02014  0.24290  0.77637  1.0000
  Fe  Fe81      1.0  0.78571  0.94243  0.51455  1.0000
  S   S160      1.0  0.79651  0.88920  0.51587  1.0000
  S   S161      1.0  0.81587  0.97903  0.48806  1.0000
  Fe  Fe82      1.0  0.74304  0.88356  0.51421  1.0000
  S   S162      1.0  0.71674  0.84463  0.48599  1.0000
  S   S163      1.0  0.73285  0.93645  0.50903  1.0000
  C   C493      1.0  0.79062  0.96340  0.28587  1.0000
  S   S164      1.0  0.79382  0.66420  0.07456  1.0000
  S   S165      1.0  0.82913  0.75348  0.09092  1.0000
  Fe  Fe83      1.0  0.74065  0.66992  0.07550  1.0000
  H   H492      1.0  0.78819  0.97070  0.26019  1.0000
  S   S166      1.0  0.74243  0.72406  0.07308  1.0000
  N   N43       1.0  0.89355  0.92942  0.52738  1.0000
  C   C494      1.0  0.02562  0.94994  0.17981  1.0000
  S   S167      1.0  0.85822  0.95664  0.34196  1.0000
  Fe  Fe84      1.0  0.92084  0.99644  0.24850  1.0000
  S   S168      1.0  0.94290  0.96846  0.20671  1.0000
  S   S169      1.0  0.86860  0.99406  0.25887  1.0000
  S   S170      1.0  0.98957  0.82488  0.22703  1.0000
  S   S171      1.0  0.72591  0.59795  0.24982  1.0000
  S   S172      1.0  0.97297  0.71319  0.10985  1.0000
  H   H493      1.0  0.71255  0.67124  0.33601  1.0000
  C   C495      1.0  0.88637  0.93038  0.49268  1.0000
  H   H494      1.0  0.77099  0.94642  0.29138  1.0000
  C   C496      1.0  0.95132  0.92715  0.21195  1.0000
  C   C497      1.0  0.96195  0.90870  0.18536  1.0000
  C   C498      1.0  0.97332  0.87710  0.18960  1.0000
  C   C499      1.0  0.97364  0.86361  0.22044  1.0000
  C   C500      1.0  0.96142  0.88141  0.24674  1.0000
  C   C501      1.0  0.95037  0.91316  0.24256  1.0000
  H   H495      1.0  0.96228  0.91927  0.16154  1.0000
  H   H496      1.0  0.98230  0.86347  0.16910  1.0000
  H   H497      1.0  0.96122  0.87093  0.27061  1.0000
  H   H498      1.0  0.94198  0.92709  0.26318  1.0000
  H   H499      1.0  0.78334  0.00852  0.38800  1.0000
  C   C502      1.0  0.73904  0.63784  0.16140  1.0000
  C   C503      1.0  0.74372  0.62691  0.19320  1.0000
  C   C504      1.0  0.71928  0.61100  0.20979  1.0000
  H   H500      1.0  0.00942  0.95309  0.24063  1.0000
  N   N44       1.0  0.78984  0.99137  0.30798  1.0000
  H   H501      1.0  0.75808  0.64985  0.14874  1.0000
  Fe  Fe85      1.0  0.00695  0.74909  0.13292  1.0000
  S   S173      1.0  0.00181  0.80310  0.13415  1.0000
  H   H502      1.0  0.01334  0.97208  0.18673  1.0000
  C   C505      1.0  0.86910  0.74191  0.09497  1.0000
  C   C506      1.0  0.89225  0.76581  0.10006  1.0000
  C   C507      1.0  0.92411  0.75724  0.10532  1.0000
  C   C508      1.0  0.93298  0.72470  0.10544  1.0000
  C   C509      1.0  0.90983  0.70077  0.10045  1.0000
  C   C510      1.0  0.87798  0.70935  0.09500  1.0000
  H   H503      1.0  0.88544  0.79104  0.10014  1.0000
  H   H504      1.0  0.94178  0.77586  0.10887  1.0000
  H   H505      1.0  0.91653  0.67552  0.10065  1.0000
  H   H506      1.0  0.86023  0.69077  0.09132  1.0000
  C   C511      1.0  0.82735  0.97259  0.44740  1.0000
  C   C512      1.0  0.81989  0.94392  0.43090  1.0000
  C   C513      1.0  0.83006  0.93920  0.39878  1.0000
  C   C514      1.0  0.84757  0.96311  0.38285  1.0000
  C   C515      1.0  0.85499  0.99184  0.39931  1.0000
  C   C516      1.0  0.84498  0.99649  0.43154  1.0000
  H   H507      1.0  0.80637  0.92533  0.44290  1.0000
  H   H508      1.0  0.82421  0.91691  0.38616  1.0000
  S   S174      1.0  0.01676  0.74464  0.18612  1.0000
  Fe  Fe86      1.0  0.01523  0.79895  0.18640  1.0000
  S   S175      1.0  0.70262  0.64642  0.10625  1.0000
  H   H509      1.0  0.79989  0.02553  0.27102  1.0000
  S   S176      1.0  0.93525  0.99260  0.30054  1.0000
  H   H510      1.0  0.78190  0.96240  0.34952  1.0000
  H   H511      1.0  0.81365  0.95046  0.28857  1.0000
  H   H512      1.0  0.76646  0.63057  0.20489  1.0000
  C   C517      1.0  0.70976  0.63306  0.14608  1.0000
  H   H513      1.0  0.86838  0.01044  0.38721  1.0000
  C   C518      1.0  0.78510  0.98663  0.34032  1.0000
  N   N45       1.0  0.90964  0.74419  0.18580  1.0000
  C   C519      1.0  0.92490  0.77207  0.19480  1.0000
  C   C520      1.0  0.87876  0.74509  0.17538  1.0000
  C   C521      1.0  0.90955  0.80196  0.19253  1.0000
  C   C522      1.0  0.86274  0.77460  0.17268  1.0000
  C   C523      1.0  0.87835  0.80320  0.18118  1.0000
  C   C524      1.0  0.92632  0.71320  0.18840  1.0000
  H   H514      1.0  0.94917  0.77136  0.20368  1.0000
  H   H515      1.0  0.86659  0.72309  0.16806  1.0000
  H   H516      1.0  0.92188  0.82401  0.19946  1.0000
  H   H517      1.0  0.83869  0.77524  0.16311  1.0000
  H   H518      1.0  0.86636  0.82628  0.17881  1.0000
  H   H519      1.0  0.92735  0.70571  0.21408  1.0000
  H   H520      1.0  0.91453  0.69390  0.17382  1.0000
  H   H521      1.0  0.95093  0.71523  0.17884  1.0000
  H   H522      1.0  0.90352  0.91594  0.47806  1.0000
  Fe  Fe87      1.0  0.88288  0.99419  0.31136  1.0000
  H   H523      1.0  0.86230  0.92028  0.48786  1.0000
  Fe  Fe88      1.0  0.79519  0.71790  0.06751  1.0000
  C   C525      1.0  0.79556  0.02173  0.29658  1.0000
  H   H524      1.0  0.88668  0.95579  0.48426  1.0000
  H   H525      1.0  0.85089  0.01870  0.44425  1.0000
  H   H526      1.0  0.70989  0.63897  0.30686  1.0000
  C   C526      1.0  0.78606  0.01265  0.36223  1.0000
  H   H527      1.0  0.94061  0.91101  0.52079  1.0000
  H   H528      1.0  0.02272  0.96004  0.12874  1.0000
  H   H529      1.0  0.95975  0.66290  0.05386  1.0000
  H   H530      1.0  0.02286  0.91354  0.25059  1.0000
  H   H531      1.0  0.95217  0.71793  0.03857  1.0000
  H   H532      1.0  0.93157  0.63255  0.04252  1.0000
  C   C527      1.0  0.69560  0.65612  0.32189  1.0000
  Fe  Fe89      1.0  0.73125  0.93715  0.56340  1.0000
  S   S177      1.0  0.73818  0.88385  0.56824  1.0000
  H   H533      1.0  0.77519  0.90606  0.70722  1.0000
  Fe  Fe90      1.0  0.79033  0.89471  0.56974  1.0000
  S   S178      1.0  0.81893  0.87534  0.61170  1.0000
  S   S179      1.0  0.78301  0.94840  0.56877  1.0000
  Fe  Fe91      1.0  0.99499  0.81163  0.62614  1.0000
  S   S180      1.0  0.00118  0.82379  0.67906  1.0000
  S   S181      1.0  0.96251  0.83473  0.58914  1.0000
  Fe  Fe92      1.0  0.00647  0.76989  0.68500  1.0000
  S   S182      1.0  0.98613  0.74728  0.73021  1.0000
  S   S183      1.0  0.99645  0.75776  0.63279  1.0000
  H   H534      1.0  0.84810  0.94797  0.54070  1.0000
  C   C528      1.0  0.87291  0.69389  0.99822  1.0000
  S   S184      1.0  0.71152  0.99834  0.73662  1.0000
  Fe  Fe93      1.0  0.78848  0.66199  0.02026  1.0000
  S   S185      1.0  0.81959  0.62529  0.99415  1.0000
  S   S186      1.0  0.79311  0.71546  0.01335  1.0000
  Fe  Fe94      1.0  0.87538  0.58849  0.82051  1.0000
  S   S187      1.0  0.92866  0.58582  0.81900  1.0000
  S   S188      1.0  0.84956  0.63093  0.84355  1.0000
  Fe  Fe95      1.0  0.92237  0.57607  0.76583  1.0000
  S   S189      1.0  0.94687  0.59930  0.72338  1.0000
  S   S190      1.0  0.86955  0.58233  0.76678  1.0000
  C   C529      1.0  0.84101  0.62904  0.88535  1.0000
  C   C530      1.0  0.85262  0.60380  0.90421  1.0000
  C   C531      1.0  0.84572  0.60294  0.93749  1.0000
  C   C532      1.0  0.82703  0.62714  0.95214  1.0000
  C   C533      1.0  0.81544  0.65245  0.93332  1.0000
  C   C534      1.0  0.82252  0.65343  0.90004  1.0000
  H   H535      1.0  0.86695  0.58495  0.89318  1.0000
  H   H536      1.0  0.85477  0.58331  0.95191  1.0000
  H   H537      1.0  0.80095  0.67117  0.94436  1.0000
  H   H538      1.0  0.81343  0.67298  0.88557  1.0000
  C   C535      1.0  0.97853  0.70528  0.72873  1.0000
  C   C536      1.0  0.97931  0.68808  0.69942  1.0000
  C   C537      1.0  0.97045  0.65533  0.69833  1.0000
  C   C538      1.0  0.96049  0.63958  0.72644  1.0000
  C   C539      1.0  0.96021  0.65659  0.75590  1.0000
  C   C540      1.0  0.96948  0.68927  0.75706  1.0000
  H   H539      1.0  0.98641  0.70005  0.67747  1.0000
  H   H540      1.0  0.97093  0.64228  0.67548  1.0000
  H   H541      1.0  0.95275  0.64463  0.77774  1.0000
  H   H542      1.0  0.96901  0.70233  0.77988  1.0000
  C   C541      1.0  0.87697  0.93862  0.58237  1.0000
  C   C542      1.0  0.87102  0.93955  0.54910  1.0000
  H   H543      1.0  0.75479  0.98054  0.68609  1.0000
  C   C543      1.0  0.86375  0.53987  0.61744  1.0000
  C   C544      1.0  0.72663  0.97265  0.64313  1.0000
  H   H544      1.0  0.85849  0.94530  0.59953  1.0000
  H   H545      1.0  0.74655  0.96437  0.62877  1.0000
  C   C545      1.0  0.85783  0.86066  0.60511  1.0000
  C   C546      1.0  0.87747  0.85436  0.63181  1.0000
  C   C547      1.0  0.90932  0.84483  0.62731  1.0000
  C   C548      1.0  0.92164  0.84151  0.59602  1.0000
  C   C549      1.0  0.90166  0.84672  0.56935  1.0000
  C   C550      1.0  0.86989  0.85635  0.57384  1.0000
  H   H546      1.0  0.86823  0.85756  0.65606  1.0000
  H   H547      1.0  0.92457  0.84099  0.64798  1.0000
  C   C551      1.0  0.82227  0.54487  0.65615  1.0000
  C   C552      1.0  0.70552  0.99185  0.69483  1.0000
  H   H548      1.0  0.89268  0.56909  0.68886  1.0000
  H   H549      1.0  0.01567  0.81002  0.75023  1.0000
  H   H550      1.0  0.70262  0.89154  0.63550  1.0000
  C   C553      1.0  0.75030  0.90577  0.70039  1.0000
  C   C554      1.0  0.92966  0.91844  0.57099  1.0000
  H   H551      1.0  0.75959  0.88973  0.65140  1.0000
  N   N46       1.0  0.69552  0.91625  0.71357  1.0000
  C   C555      1.0  0.89451  0.67032  0.00814  1.0000
  H   H552      1.0  0.85087  0.68678  0.98660  1.0000
  C   C556      1.0  0.94461  0.65400  0.03350  1.0000
  C   C557      1.0  0.87561  0.56062  0.67095  1.0000
  H   H553      1.0  0.91103  0.84400  0.54509  1.0000
  H   H554      1.0  0.87891  0.69135  0.82310  1.0000
  H   H555      1.0  0.95232  0.90904  0.57931  1.0000
  C   C558      1.0  0.73126  0.98183  0.67562  1.0000
  N   N47       1.0  0.88858  0.68571  0.74194  1.0000
  C   C559      1.0  0.88019  0.67723  0.77270  1.0000
  C   C560      1.0  0.90087  0.71568  0.73606  1.0000
  C   C561      1.0  0.88511  0.69856  0.79871  1.0000
  C   C562      1.0  0.90617  0.73760  0.76153  1.0000
  C   C563      1.0  0.89835  0.72886  0.79305  1.0000
  C   C564      1.0  0.88336  0.66296  0.71501  1.0000
  H   H556      1.0  0.87000  0.65370  0.77746  1.0000
  H   H557      1.0  0.90793  0.72236  0.71178  1.0000
  S   S191      1.0  0.70971  0.75196  0.99114  1.0000
  H   H558      1.0  0.91730  0.76072  0.75681  1.0000
  H   H559      1.0  0.98873  0.86286  0.75666  1.0000
  H   H560      1.0  0.88740  0.63770  0.72287  1.0000
  H   H561      1.0  0.85875  0.66543  0.70573  1.0000
  H   H562      1.0  0.90052  0.66720  0.69503  1.0000
  C   C565      1.0  0.92994  0.71098  0.02711  1.0000
  H   H563      1.0  0.83566  0.56232  0.70366  1.0000
  H   H564      1.0  0.01981  0.91118  0.77444  1.0000
  C   C566      1.0  0.69616  0.97333  0.62967  1.0000
  C   C567      1.0  0.72685  0.91557  0.72250  1.0000
  H   H565      1.0  0.85489  0.86081  0.55313  1.0000
  C   C568      1.0  0.74154  0.89663  0.66903  1.0000
  C   C569      1.0  0.90844  0.73514  0.01827  1.0000
  H   H566      1.0  0.91105  0.92595  0.61907  1.0000
  H   H567      1.0  0.90284  0.74539  0.81309  1.0000
  H   H568      1.0  0.88854  0.64503  0.00421  1.0000
  C   C570      1.0  0.84365  0.55705  0.67919  1.0000
  C   C571      1.0  0.90647  0.92788  0.59333  1.0000
  C   C572      1.0  0.87964  0.72645  0.00394  1.0000
  C   C573      1.0  0.70955  0.89741  0.66016  1.0000
  N   N48       1.0  0.92234  0.67904  0.02297  1.0000
  C   C574      1.0  0.01383  0.86065  0.76218  1.0000
  H   H569      1.0  0.86244  0.74486  0.99750  1.0000
  Fe  Fe96      1.0  0.74005  0.71688  0.01931  1.0000
  S   S192      1.0  0.73499  0.66300  0.02160  1.0000
  H   H570      1.0  0.91379  0.76037  0.02322  1.0000
  H   H571      1.0  0.79767  0.54125  0.66305  1.0000
  H   H572      1.0  0.73396  0.92369  0.74649  1.0000
  H   H573      1.0  0.79451  0.54393  0.59276  1.0000
  C   C575      1.0  0.88577  0.55205  0.63988  1.0000
  H   H574      1.0  0.70728  0.78449  0.91958  1.0000
  H   H575      1.0  0.91073  0.55396  0.63354  1.0000
  H   H576      1.0  0.96011  0.64652  0.01299  1.0000
  C   C576      1.0  0.92273  0.91927  0.53788  1.0000
