data_image0
_chemical_formula_structural       FeS2HFeSHSCHFeSCFeS2FeSHFeSFeS4C2SFeCHFeSFeSCHFeS2FeS2FeSFeS3C2SCH2CH3C6H4C2HFeHCHCH2SHCHCH2CH3C6H4C6H4C2NC5H3C6H4C6H4C3HC4NC3HCHNC6H6CHCH3NH2NCHFeHFeCSNC2SH2CHSH2CH3CHCHNC2HC2HSH2C3HC2HC2HSH2CH2CH2FeCH2NCHCH2C2HSC3HSHCSCHCHFeCHSCHC2H2CH3CHCSCH2CNH2FeS2FeS2FeSFeS3FeS2FeHCNSHFeS2FeSFeS3FeS2FeS2FeSFeS4FeC3HCHCH2SFeSHFeH2CFeS3C3H3C6H4C6HC2HSH2C7H4C5HNH3C6H4C6H4C6H4C6H2SC2HCHCH2NHC2H3NC6H8CHS2HCFeH2CHFeHC2HFeH3C2H4CHFeCNH2SC2HSH3CSNC6H8NC2H3C2HCHC2HSH3CH3CH4FeS2FeS2FeSFeS3FeCSHCS2CFeSFeS2FeS2FeSCFeS2FeSFeS3NSH2C2H3CSHSC6H4C3H2CHCH2C5H3C7H4CHC6H4C6H2FeHC6H4C6H6SCH4FeC3SH3NC3HC2HCH2CH2SHC3NC5H2NHCHNCH3CH3CHN2C3HCH3NCH4CH4C3H2CNCH5C4HCFeSH3CHFeHC2H2C2H3CH2CH2CHCSNHCH2C2HC2HC2H3SCH2SHFeHSCHC2FeCSFeHSCHSHFeS2FeSCFeSFeS3FeS2FeS2FeSFeS3HSFeHCFeS3FeCHSC6H4CHC5NH3C2NHC2H3CHNHC6H6C6H5SHNC6H8CNHC2HCHCH3CHCHSHC2HCNH2SHC4SH3C2HC2H3C7SHCHCH2SH6C2H3FeHSCH3FeS2FeS2FeSFeS3CHSCHC4FeS2FeS2FeHFeS3NSCHC2HCHCHCHC2HNCHFeCHCHC6H4C6H4C2NC3NH2C6H3C3H3SFeHCHNFeHCHSNC3NH4C3SCHCH3CHSHCH3CH2NCH2SH2C2HSC2HCH2CFeC2H5CHCHC2H3C2H2CH3NHSH3C3H4C2HCSC2H2CSHSCSH2FeSCHSFe2SFeSHSFeS2FeS2FeSFeS4NSFeS2FeS2FeSFeS3FeS2FeS2FeSFeS3H2CHC2SHCH2C2HC2H4CH2C6H4C6H4C6H2CSC6H5C4H4C2N3C6HCH2C6H4C7H4C2HCHCHC2HNH3CHCH3C2NC2HCHC4HSHC5HC3H5CHC2H2NC3HFeC2H7CHC2SH4CH2CHCHCHCH2CHNCHC2HCH2NC6H8CHC2H4CHC2SCHCFeCH3C2HNH3CH4NCH2CNHCSHCHCH2FeS2FeS2FeHFeS3NH2S3FeS2FeSNFeSFeS3FeS2FeS2FeSFeS3C4SH2C6H4C7H3C2FeHCHSCNHC6H4C7H5C6H4CHFeH2CHCHC2HC3NC2HNC6H11C2HC2H5CH8CH3NHC2H2CH3SHC4H2C2HCHCSCH2CHC3H2FeC2H2CH4CHC4H4CFeS2H2CHSCFeS2FeS2FeSFeS3FeS2FeS2FeSFeS3HC2HC3H4C6HCH6SFeC6H4C2H2CFeCHCHSH2C6H4CHCHC2HSHC2HC2NCHC2SCH3SC2FeHC3HCH3CHNC6H8NC6H8NC3HC2SNHC2HCNH5C2HC2HCFeH7CSC2HCSHFeCHNHC2FeCHFeS2FeS2FeSFeS5HFeS2FeSCFeSFeS3HCHFeS2HCFe3S4H2NSFe2S2CHCHFeS2C7H4C2H3SHC5H5C6H4CHC4HCH3C3HC6H4C6H4C6H4NC2HNHNC6H8SC2H2C3HCSC2HNCH5SH2CNCFeHNHC3HCH4CNC3HCHCNC6HFeH7CH4SH2C2H2C2H2CH2C8HC2FeSH2SH4CFeCNH3C2HCHC2HFeSHFeS2FeSFeSFeS2C2FeSHS2H2SCHCHC3H2CHCH2C6H4C6H4CHC2FeCHC3H2C2HC2HNSNCHCFeHCH3FeC2H2SCH4SHS2HFeCHSC2H4SC2HC2HFeHSC2NH3CSH2CHFeCH2CNH2NSCH2C5SCSFeHCHCH4CHSCSHCH2CH3FeS2FeS2FeSFeS3CS2NHCFeCSHS2FeS2HSFeSNSC6H4C3H3C3HCFeSCH2NC6H3C6H7FeHC2HC2HC2H2CH2CHNHCH2FeHC2HC2HCHSHC3HCH2CHC4H4CFeH3CSHC2H3CSH4CSCH3C3HC2HCHC3HC2SFeS2FeS2FeSFeS3CHFeCHSFeS2FeSCFeSFeS3H2NC2FeSCSFeS2FeS2FeSFeS3CSCH3C5HC2H3CH4C6H5NHC6H4CNC2HC6H5C3H3C8H4C6H4C6HCH2C4FeCNHCHC3H3NC6H10C5NC6H4NH3CH2CH2CH4SHCH2SH7CNHSHCH5SC3HSH2SCH3C2HFeH4NHCHC3HC4NCH2C2H3C5SC2H6SHCH2C2HCSCFeCSCFeS2FeS2FeSFeHS2CHCH4SHFeS2FeS2FeSFeHS2FeNSC3FeS2FeS2FeSFeS3C2H3CHNH2CHC6H4C9H5C6HCH2FeC5SH3C6H4C4HCSH3NHC5H2CH3CH2C2HCH2CHCHNH3CHCFe2NC5H7CSNC5H9NC6H4C2H2C2H3SH2SC2H3CH3SCSNHSHC2HC2HFeH3CH3CSHCFeS5C2HCNCHFeS2FeS2FeSFeS3FeS2FeS2HFeS4CSHCHC6H4C6H4C6HFeH3C4H6C7HCH2C3HC2HCHCNH2C2H7CHSFeH2C2HC2HSHCFeC2HFeHSHCSH3CH3CH3C2HCNCH2NHCH4SCFeC2HFeCSHCNHCHCHSCHCHC3FeHCHCFeH2CN2HCHNH2S2CFeHCH2C2HCH2CSCHCFeCSCNHFeS2FeSFeS2FeSFeCS2CSCSH2CFeSFeS2HC3SH3SC8H3C6H4CSCHCHCH2C6H2SNC5HCHCHFeC2H2FeC2H4C2HSHC3SCH5NH3CHSHCH2CHCHC2H3CHCNC2HNH4SH6CFeHCHSC2H2SHCSCHCHFeS2FeS2FeSFeS3FeS2C2FeCSHFeCSCHSFeS2FeS2FeSFeS3FeS2FeS2FeSFeS3FeCHC3HCFeHC2H2C2H4C6H4C7H3C6H4C6H4C6H4C3H2CH2C2SH3C6HCHC6H6CH2CHC2FeCHC4HCH2CH2NC2HC2HNH4CSHSHC2H2CH2SNHCNSH5CH2C4H2CHNCH2FeH4NC3H5N2H2C4H5CHC2HC2HC2HCH4CHSNHCHC2FeCHC2HCH4SCHC3NCH2FeS2FeS2FeSFeS3CH3CHCH3FeS2FeS2FeS2FeSFeS3C6HS2C3HSHCH4SHCHNCHC6H5CHC3H4C6H4C2SHC3H3C4HCHCH2C2H2CHCHSCH6SC2SHNC4FeCH2C2NCH2CHCH4FeCSHCHSH3SHC2HFeH2CH3CNHNC6HFeH2C2H2CHC4HCHFeS2FeHSFeSCSH2SHFeS2FeS2FeSFeS3FeS2FeS2FeSFeS4H2CHFeS2HNFeCHSHCH2C3HCNHC3NC2HNH2C2H4SC6H4CHCHC8H2C6H4C6H4CHC2H3CH2C5H2CH3CH2C2HCHCHC3HC2H2C2SH3CHCHCH4NHCH2C2HCH4C3HCH2C3HC2SHCHNCHCH2NHC3HCH5FeCH2C8H2FeH4SFeS2FeS2FeSFeS3C3FeSCFeS2FeS2FeSFeS3FeS2FeS2FeSFeS3C4FeHNHCH3C6H4C4H4C5NC6H4C2NHC3H2C6H4C6H5SNHC2HNCHC3H2CH4C6H3NC6H8SCHCH2CH4SC4HCHCH2CH2CHCH3CH4CHNCHC4H7C6H2C2H2CHNCSC2H6SHCHCHCN2CH5CHCHC3SH4CHFeCHSHCSFeS2FeS2FeSFeS3C2H2SFeSH3CH2SCFeS2FeS2FeSFeHS2C2HSHNCNFeHFeC5H2C2SHNH2C2H2CH2C6H5CHCHSHC6H4C6H4C6H6C2N2CH2CHCHC2HC2HCS2CHC2H2CNHCFeHSC5SCNCHC5HCSHSHSHC2H3C2H3NC5H8C2SC2H3CHC2H4CSH3CHC2HFeCHCHCH4FeS2FeS2FeSFeS3FeS2CFeS2FeS2FeSFeS3HSNFeS2FeSFeS3CNCHSC2HCFeC8HSH2C3H2C6H4C6H4C3HC2H2CHC6H5C4SH6CH3CH3NCHCH2C2FeC4HC3HC2S2C2HCH3NC6H6NC6H8NC6H9FeHCHCH2C3H3CNCH3NCH3FeC2HNH2C4SC2H2CFeS2FeS2FeSFeS3HFeS2C2HSHSHNCSHCFeSHFeS2FeSCFeSFeS3HC3FeSHCFeHSH4CH3C2H4C4H3CNC8HCH2C6H5C6HSH2C6H4C6H4C2HCH5CNHCH3C4HC2HC2SCNCSH4NC7H5CSNC6H8CSHSFeC2H3CHCHCNSH4CFeNH2C2SHCHSFeCHCHC2NH2FeSHCH3CHCHSC2H2SCHFeSFeS2FeS2FeSFeS3FeS2H2C2SHFeS2FeSCSHFeS2FeS2FeSH2S2FeS2FeS2FeSFeS3HSCFeCSFeNSHFeSHSH2C3H4C6H4C6H2CH2C8H5C3H2C3H2CNC4H5C6H4C6H4C6H6C2HC5H2CH2C2H3CH2CSH2C2NC5H2CSH3SFeNC6H4CH5C6HSHCH3CH7CH3NC6H2FeHC4NH2C3HC2NH5NCHCFeH2CHCHNHCH2CH2C4H2CH2CH6CHSH3CH2C2H3CFeCH2CNCS2FeHC2S2C2NHFeS2FeS2FeSFe2S2FeHSCHFe2SHFeHSFeCSFeSHSHCSC3HC6H5NHCH2C6H4C6H4CH3SHC4HCFeHCHC2SC2SC2HNC6H2SH4C4H2FeSH2NCFeC2SHSC3HC3HFeCNSH2CHCSCH2CHCH2CH2CH3SCHNHCH3NH3CHNH3CHSCHCSHC2HCH3SH3C2HCHC2H4C2HCSFeCH3CHFeH2
_chemical_formula_sum              "Fe384 S768 H2304 C2304 N192"
_cell_length_a       85.2574
_cell_length_b       85.4881
_cell_length_c       85.6102
_cell_angle_alpha    74.8549
_cell_angle_beta     74.9434
_cell_angle_gamma    74.8906

_space_group_name_H-M_alt    "P 1"
_space_group_IT_number       1

loop_
  _space_group_symop_operation_xyz
  'x, y, z'

loop_
  _atom_site_type_symbol
  _atom_site_label
  _atom_site_symmetry_multiplicity
  _atom_site_fract_x
  _atom_site_fract_y
  _atom_site_fract_z
  _atom_site_occupancy
  Fe  Fe1       1.0  0.39634  0.26223  0.08079  1.0000
  S   S1        1.0  0.40357  0.27811  0.05594  1.0000
  S   S2        1.0  0.38902  0.23886  0.08087  1.0000
  H   H1        1.0  0.41046  0.25356  0.14374  1.0000
  Fe  Fe2       1.0  0.42233  0.28340  0.06685  1.0000
  S   S3        1.0  0.44917  0.28347  0.05548  1.0000
  H   H2        1.0  0.38907  0.20308  0.14268  1.0000
  S   S4        1.0  0.41685  0.26543  0.09069  1.0000
  C   C1        1.0  0.41896  0.31254  0.11441  1.0000
  H   H3        1.0  0.32049  0.02412  0.18397  1.0000
  Fe  Fe3       1.0  0.48508  0.27997  0.16400  1.0000
  S   S5        1.0  0.48577  0.29137  0.13720  1.0000
  C   C2        1.0  0.30402  0.07043  0.22581  1.0000
  Fe  Fe4       1.0  0.44404  0.17316  0.12553  1.0000
  S   S6        1.0  0.42230  0.18389  0.14323  1.0000
  S   S7        1.0  0.44100  0.17353  0.10033  1.0000
  Fe  Fe5       1.0  0.46499  0.16043  0.15128  1.0000
  S   S8        1.0  0.44470  0.16992  0.17139  1.0000
  H   H4        1.0  0.41323  0.31677  0.10375  1.0000
  Fe  Fe6       1.0  0.42849  0.15979  0.16091  1.0000
  S   S9        1.0  0.40692  0.14684  0.17347  1.0000
  Fe  Fe7       1.0  0.44065  0.19301  0.15154  1.0000
  S   S10       1.0  0.43475  0.22038  0.15243  1.0000
  S   S11       1.0  0.44930  0.14866  0.14244  1.0000
  S   S12       1.0  0.46195  0.18400  0.13214  1.0000
  S   S13       1.0  0.49107  0.14747  0.15286  1.0000
  C   C3        1.0  0.42236  0.29351  0.14030  1.0000
  C   C4        1.0  0.37754  0.24265  0.12240  1.0000
  S   S14       1.0  0.27220  0.30290  0.03386  1.0000
  Fe  Fe8       1.0  0.38563  0.29848  0.06715  1.0000
  C   C5        1.0  0.42823  0.10927  0.11675  1.0000
  H   H5        1.0  0.35329  0.23099  0.04280  1.0000
  Fe  Fe9       1.0  0.26323  0.29852  0.01318  1.0000
  S   S15       1.0  0.24269  0.28455  0.01798  1.0000
  Fe  Fe10      1.0  0.29799  0.29733  0.01882  1.0000
  S   S16       1.0  0.31820  0.28189  0.03261  1.0000
  C   C6        1.0  0.43670  0.31646  0.13072  1.0000
  H   H6        1.0  0.40201  0.24235  0.16373  1.0000
  Fe  Fe11      1.0  0.38737  0.06652  0.15987  1.0000
  S   S17       1.0  0.36969  0.07237  0.14262  1.0000
  S   S18       1.0  0.40940  0.07840  0.15567  1.0000
  Fe  Fe12      1.0  0.37139  0.03860  0.18264  1.0000
  S   S19       1.0  0.35243  0.04197  0.16767  1.0000
  S   S20       1.0  0.36931  0.02027  0.20666  1.0000
  Fe  Fe13      1.0  0.37335  0.04477  0.14596  1.0000
  S   S21       1.0  0.37618  0.03260  0.12480  1.0000
  Fe  Fe14      1.0  0.35027  0.06894  0.16590  1.0000
  S   S22       1.0  0.32454  0.08412  0.17035  1.0000
  S   S23       1.0  0.39285  0.03901  0.16110  1.0000
  S   S24       1.0  0.36751  0.06551  0.18287  1.0000
  C   C7        1.0  0.12239  0.27124  0.01627  1.0000
  C   C8        1.0  0.33239  0.01272  0.20461  1.0000
  S   S25       1.0  0.31611  0.00857  0.11420  1.0000
  C   C9        1.0  0.47028  0.22302  0.10816  1.0000
  H   H7        1.0  0.31143  0.29176  0.08325  1.0000
  H   H8        1.0  0.38240  0.26393  0.12769  1.0000
  C   C10       1.0  0.40857  0.01640  0.21764  1.0000
  H   H9        1.0  0.46921  0.18879  0.07985  1.0000
  H   H10       1.0  0.40825  0.05364  0.19080  1.0000
  H   H11       1.0  0.40043  0.21757  0.15738  1.0000
  C   C11       1.0  0.35884  0.02643  0.12267  1.0000
  C   C12       1.0  0.35699  0.02713  0.10673  1.0000
  C   C13       1.0  0.34385  0.02161  0.10440  1.0000
  C   C14       1.0  0.33275  0.01472  0.11797  1.0000
  C   C15       1.0  0.33464  0.01378  0.13402  1.0000
  C   C16       1.0  0.34754  0.01988  0.13638  1.0000
  H   H12       1.0  0.36571  0.03208  0.09610  1.0000
  H   H13       1.0  0.34240  0.02251  0.09198  1.0000
  H   H14       1.0  0.32597  0.00878  0.14458  1.0000
  H   H15       1.0  0.34907  0.01899  0.14873  1.0000
  C   C17       1.0  0.31632  0.07870  0.19160  1.0000
  C   C18       1.0  0.32452  0.06471  0.20133  1.0000
  H   H16       1.0  0.39615  0.11002  0.13040  1.0000
  Fe  Fe15      1.0  0.49085  0.31138  0.17175  1.0000
  H   H17       1.0  0.43330  0.13903  0.11595  1.0000
  C   C19       1.0  0.30177  0.08841  0.19895  1.0000
  H   H18       1.0  0.33568  0.05706  0.19583  1.0000
  C   C20       1.0  0.39290  0.14917  0.13460  1.0000
  H   H19       1.0  0.32833  0.06523  0.14486  1.0000
  H   H20       1.0  0.29540  0.09926  0.19149  1.0000
  S   S26       1.0  0.49373  0.21174  0.06876  1.0000
  H   H21       1.0  0.12804  0.27325  0.02539  1.0000
  C   C21       1.0  0.28843  0.00240  0.22509  1.0000
  H   H22       1.0  0.28454  0.09198  0.22178  1.0000
  C   C22       1.0  0.28203  0.00451  0.21089  1.0000
  H   H23       1.0  0.47014  0.17034  0.07279  1.0000
  H   H24       1.0  0.44980  0.24085  0.09962  1.0000
  C   C23       1.0  0.39055  0.04875  0.21378  1.0000
  H   H25       1.0  0.21782  0.26811  0.01705  1.0000
  H   H26       1.0  0.35808  0.27695  0.00866  1.0000
  H   H27       1.0  0.34436  0.25311  0.01954  1.0000
  C   C24       1.0  0.40789  0.12698  0.17005  1.0000
  C   C25       1.0  0.42283  0.11758  0.16300  1.0000
  C   C26       1.0  0.42315  0.10238  0.15937  1.0000
  C   C27       1.0  0.40853  0.09641  0.16264  1.0000
  C   C28       1.0  0.39361  0.10547  0.17024  1.0000
  C   C29       1.0  0.39333  0.12068  0.17400  1.0000
  H   H28       1.0  0.43421  0.12191  0.16048  1.0000
  H   H29       1.0  0.43479  0.09532  0.15376  1.0000
  H   H30       1.0  0.38225  0.10099  0.17287  1.0000
  H   H31       1.0  0.38174  0.12778  0.17964  1.0000
  C   C30       1.0  0.46996  0.24410  0.16721  1.0000
  C   C31       1.0  0.45653  0.25398  0.16033  1.0000
  C   C32       1.0  0.44574  0.24655  0.15603  1.0000
  C   C33       1.0  0.44843  0.22923  0.15828  1.0000
  C   C34       1.0  0.46186  0.21939  0.16515  1.0000
  C   C35       1.0  0.47246  0.22680  0.16973  1.0000
  H   H32       1.0  0.45435  0.26731  0.15850  1.0000
  H   H33       1.0  0.43537  0.25428  0.15083  1.0000
  H   H34       1.0  0.19412  0.31602  0.01137  1.0000
  H   H35       1.0  0.47523  0.16301  0.10430  1.0000
  C   C36       1.0  0.21831  0.27832  0.00646  1.0000
  C   C37       1.0  0.47965  0.29868  0.07338  1.0000
  N   N1        1.0  0.38561  0.03712  0.22734  1.0000
  C   C38       1.0  0.35352  0.30575  0.04681  1.0000
  C   C39       1.0  0.33346  0.30758  0.03023  1.0000
  C   C40       1.0  0.33137  0.29152  0.03816  1.0000
  C   C41       1.0  0.34046  0.28258  0.05038  1.0000
  C   C42       1.0  0.35154  0.28963  0.05465  1.0000
  H   H36       1.0  0.13090  0.22917  0.99880  1.0000
  H   H37       1.0  0.33896  0.27013  0.05655  1.0000
  H   H38       1.0  0.35844  0.28262  0.06411  1.0000
  C   C43       1.0  0.40413  0.22110  0.08574  1.0000
  C   C44       1.0  0.40522  0.20707  0.07969  1.0000
  C   C45       1.0  0.41699  0.19262  0.08373  1.0000
  C   C46       1.0  0.42733  0.19204  0.09422  1.0000
  C   C47       1.0  0.42618  0.20602  0.10040  1.0000
  C   C48       1.0  0.41470  0.22062  0.09601  1.0000
  H   H39       1.0  0.39703  0.20738  0.07181  1.0000
  H   H40       1.0  0.41781  0.18179  0.07903  1.0000
  H   H41       1.0  0.43416  0.20561  0.10854  1.0000
  H   H42       1.0  0.41373  0.23129  0.10096  1.0000
  C   C49       1.0  0.46144  0.26337  0.05810  1.0000
  C   C50       1.0  0.45421  0.24944  0.06309  1.0000
  C   C51       1.0  0.46420  0.23350  0.06596  1.0000
  C   C52       1.0  0.49340  0.31204  0.09160  1.0000
  C   C53       1.0  0.38752  0.21644  0.13936  1.0000
  C   C54       1.0  0.47867  0.26129  0.05563  1.0000
  H   H43       1.0  0.44097  0.25091  0.06454  1.0000
  H   H44       1.0  0.45858  0.22275  0.06986  1.0000
  H   H45       1.0  0.41303  0.16219  0.12656  1.0000
  H   H46       1.0  0.28976  0.29761  0.06664  1.0000
  C   C55       1.0  0.10894  0.28295  0.01111  1.0000
  C   C56       1.0  0.48795  0.16272  0.09764  1.0000
  C   C57       1.0  0.29568  0.08434  0.21607  1.0000
  H   H47       1.0  0.49098  0.20776  0.11874  1.0000
  C   C58       1.0  0.47357  0.24768  0.12188  1.0000
  C   C59       1.0  0.48429  0.23218  0.12413  1.0000
  C   C60       1.0  0.18256  0.32097  0.00642  1.0000
  C   C61       1.0  0.22913  0.28896  0.00420  1.0000
  N   N2        1.0  0.49131  0.17054  0.08139  1.0000
  C   C62       1.0  0.32503  0.01258  0.19191  1.0000
  C   C63       1.0  0.12977  0.24086  0.98933  1.0000
  C   C64       1.0  0.30887  0.30367  0.07494  1.0000
  H   H48       1.0  0.48178  0.18575  0.06023  1.0000
  C   C65       1.0  0.47628  0.31308  0.09519  1.0000
  H   H49       1.0  0.39466  0.27962  0.01093  1.0000
  N   N3        1.0  0.30873  0.05323  0.14638  1.0000
  C   C66       1.0  0.30189  0.05415  0.16255  1.0000
  C   C67       1.0  0.30351  0.04374  0.13890  1.0000
  C   C68       1.0  0.28997  0.04489  0.17183  1.0000
  C   C69       1.0  0.29179  0.03416  0.14786  1.0000
  C   C70       1.0  0.28500  0.03476  0.16443  1.0000
  C   C71       1.0  0.32112  0.06307  0.13678  1.0000
  H   H50       1.0  0.30559  0.06211  0.16835  1.0000
  H   H51       1.0  0.30859  0.04331  0.12596  1.0000
  H   H52       1.0  0.28457  0.04564  0.18466  1.0000
  H   H53       1.0  0.28804  0.02630  0.14195  1.0000
  H   H54       1.0  0.27576  0.02750  0.17147  1.0000
  H   H55       1.0  0.39011  0.26176  0.15470  1.0000
  C   C72       1.0  0.37951  0.22547  0.12652  1.0000
  H   H56       1.0  0.43685  0.26497  0.11804  1.0000
  C   C73       1.0  0.37223  0.24260  0.04453  1.0000
  H   H57       1.0  0.17162  0.32074  0.01688  1.0000
  H   H58       1.0  0.42424  0.02454  0.19422  1.0000
  H   H59       1.0  0.10410  0.29401  0.01628  1.0000
  N   N4        1.0  0.37459  0.26853  0.02552  1.0000
  H   H60       1.0  0.37509  0.21919  0.11953  1.0000
  H   H61       1.0  0.46395  0.20605  0.16714  1.0000
  N   N5        1.0  0.46126  0.25063  0.11327  1.0000
  C   C74       1.0  0.37974  0.25630  0.03817  1.0000
  H   H62       1.0  0.38439  0.28728  0.02961  1.0000
  Fe  Fe16      1.0  0.14107  0.30518  0.98980  1.0000
  H   H63       1.0  0.32781  0.31307  0.07998  1.0000
  Fe  Fe17      1.0  0.47003  0.31374  0.14654  1.0000
  C   C75       1.0  0.48263  0.21980  0.11719  1.0000
  S   S27       1.0  0.46779  0.30186  0.17350  1.0000
  N   N6        1.0  0.12215  0.25513  0.99719  1.0000
  C   C76       1.0  0.48861  0.24542  0.05887  1.0000
  C   C77       1.0  0.45953  0.23854  0.10645  1.0000
  S   S28       1.0  0.28919  0.29005  0.99951  1.0000
  H   H64       1.0  0.46905  0.21356  0.10248  1.0000
  H   H65       1.0  0.39212  0.00498  0.18037  1.0000
  C   C78       1.0  0.43344  0.30215  0.14229  1.0000
  H   H66       1.0  0.43885  0.29816  0.15316  1.0000
  S   S29       1.0  0.37750  0.28229  0.09166  1.0000
  H   H67       1.0  0.47495  0.25716  0.12742  1.0000
  H   H68       1.0  0.41927  0.28293  0.14971  1.0000
  C   C79       1.0  0.42061  0.13764  0.12137  1.0000
  H   H69       1.0  0.42464  0.09720  0.12315  1.0000
  H   H70       1.0  0.44052  0.10854  0.11942  1.0000
  H   H71       1.0  0.45275  0.27566  0.11688  1.0000
  C   C80       1.0  0.40918  0.15085  0.12732  1.0000
  H   H72       1.0  0.32675  0.31451  0.02064  1.0000
  C   C81       1.0  0.46931  0.30639  0.08603  1.0000
  H   H73       1.0  0.33026  0.05658  0.12742  1.0000
  N   N7        1.0  0.41596  0.12310  0.12274  1.0000
  C   C82       1.0  0.29674  0.30692  0.06562  1.0000
  C   C83       1.0  0.34449  0.31466  0.03455  1.0000
  H   H74       1.0  0.37613  0.23316  0.05482  1.0000
  C   C84       1.0  0.10880  0.26644  0.99222  1.0000
  C   C85       1.0  0.40458  0.04444  0.20172  1.0000
  H   H75       1.0  0.42941  0.11085  0.10324  1.0000
  S   S30       1.0  0.27442  0.99397  0.18654  1.0000
  H   H76       1.0  0.32521  0.05021  0.22583  1.0000
  H   H77       1.0  0.47412  0.29351  0.06634  1.0000
  C   C86       1.0  0.39887  0.25021  0.15192  1.0000
  C   C87       1.0  0.39378  0.22474  0.14771  1.0000
  C   C88       1.0  0.39984  0.12158  0.12924  1.0000
  H   H78       1.0  0.48435  0.27193  0.05115  1.0000
  C   C89       1.0  0.38381  0.25058  0.13108  1.0000
  C   C90       1.0  0.36238  0.26720  0.01853  1.0000
  H   H79       1.0  0.38344  0.06137  0.21199  1.0000
  C   C91       1.0  0.10205  0.28055  0.99904  1.0000
  C   C92       1.0  0.38248  0.28291  0.01923  1.0000
  H   H80       1.0  0.38951  0.25719  0.04366  1.0000
  S   S31       1.0  0.40040  0.28822  0.12478  1.0000
  H   H81       1.0  0.27595  0.01671  0.20535  1.0000
  H   H82       1.0  0.48215  0.17897  0.16212  1.0000
  C   C93       1.0  0.38810  0.13453  0.13538  1.0000
  H   H83       1.0  0.33376  0.02432  0.20654  1.0000
  H   H84       1.0  0.37555  0.13296  0.14128  1.0000
  C   C94       1.0  0.41503  0.29871  0.12640  1.0000
  H   H85       1.0  0.44951  0.27212  0.09819  1.0000
  H   H86       1.0  0.45598  0.30722  0.08868  1.0000
  Fe  Fe18      1.0  0.39894  0.28731  0.09911  1.0000
  C   C95       1.0  0.35458  0.25367  0.02461  1.0000
  H   H87       1.0  0.34392  0.99797  0.22465  1.0000
  H   H88       1.0  0.31488  0.07530  0.13046  1.0000
  N   N8        1.0  0.39176  0.24162  0.14359  1.0000
  C   C96       1.0  0.48138  0.23152  0.06409  1.0000
  H   H89       1.0  0.39025  0.99643  0.12850  1.0000
  C   C97       1.0  0.38100  0.00016  0.20633  1.0000
  H   H90       1.0  0.38412  0.15906  0.13991  1.0000
  H   H91       1.0  0.48267  0.21905  0.17526  1.0000
  C   C98       1.0  0.39449  0.02117  0.22946  1.0000
  C   C99       1.0  0.35949  0.24135  0.03775  1.0000
  H   H92       1.0  0.37453  0.29359  0.01242  1.0000
  S   S32       1.0  0.40532  0.30566  0.07563  1.0000
  C   C100      1.0  0.47747  0.17921  0.07309  1.0000
  C   C101      1.0  0.44958  0.26666  0.11149  1.0000
  C   C102      1.0  0.31844  0.06064  0.21839  1.0000
  H   H93       1.0  0.37146  0.24971  0.11232  1.0000
  S   S33       1.0  0.48382  0.25282  0.17290  1.0000
  H   H94       1.0  0.13971  0.24857  0.01278  1.0000
  C   C103      1.0  0.12892  0.25735  0.00909  1.0000
  S   S34       1.0  0.13250  0.30798  0.01639  1.0000
  C   C104      1.0  0.41356  0.02812  0.20366  1.0000
  H   H95       1.0  0.09174  0.28969  0.99476  1.0000
  C   C105      1.0  0.22957  0.30222  0.99055  1.0000
  H   H96       1.0  0.31736  0.99736  0.18002  1.0000
  Fe  Fe19      1.0  0.28701  0.31688  0.98707  1.0000
  C   C106      1.0  0.33807  0.99776  0.21489  1.0000
  H   H97       1.0  0.23776  0.31057  0.98875  1.0000
  S   S35       1.0  0.36680  0.31520  0.05234  1.0000
  C   C107      1.0  0.20880  0.28022  0.99464  1.0000
  H   H98       1.0  0.20124  0.27135  0.99606  1.0000
  C   C108      1.0  0.31801  0.31563  0.07315  1.0000
  C   C109      1.0  0.42951  0.32157  0.11673  1.0000
  H   H99       1.0  0.46845  0.31908  0.10501  1.0000
  H   H100      1.0  0.18181  0.31246  0.99892  1.0000
  C   C110      1.0  0.49437  0.17792  0.15418  1.0000
  H   H101      1.0  0.49378  0.22975  0.13130  1.0000
  H   H102      1.0  0.13433  0.31831  0.04545  1.0000
  H   H103      1.0  0.41518  0.00359  0.21910  1.0000
  C   C111      1.0  0.32348  0.99755  0.18958  1.0000
  H   H104      1.0  0.28740  0.01296  0.23031  1.0000
  C   C112      1.0  0.39117  0.99581  0.19177  1.0000
  S   S36       1.0  0.49360  0.32208  0.19273  1.0000
  C   C113      1.0  0.29399  0.32212  0.05455  1.0000
  H   H105      1.0  0.37240  0.99170  0.23242  1.0000
  H   H106      1.0  0.21554  0.32209  0.05565  1.0000
  C   C114      1.0  0.28325  0.99091  0.20397  1.0000
  N   N9        1.0  0.49643  0.29782  0.06986  1.0000
  H   H107      1.0  0.49638  0.20263  0.15364  1.0000
  H   H108      1.0  0.37015  0.98955  0.11621  1.0000
  Fe  Fe20      1.0  0.30550  0.06001  0.38400  1.0000
  S   S37       1.0  0.31100  0.08375  0.38612  1.0000
  S   S38       1.0  0.31976  0.04720  0.36284  1.0000
  Fe  Fe21      1.0  0.27908  0.05857  0.41546  1.0000
  S   S39       1.0  0.28174  0.08215  0.42009  1.0000
  S   S40       1.0  0.26003  0.04517  0.43322  1.0000
  Fe  Fe22      1.0  0.28332  0.09153  0.39291  1.0000
  S   S41       1.0  0.26969  0.11757  0.38553  1.0000
  Fe  Fe23      1.0  0.30904  0.07255  0.41321  1.0000
  S   S42       1.0  0.32383  0.07379  0.43103  1.0000
  S   S43       1.0  0.27788  0.06878  0.38874  1.0000
  S   S44       1.0  0.30637  0.04797  0.41057  1.0000
  Fe  Fe24      1.0  0.32278  0.15122  0.45877  1.0000
  S   S45       1.0  0.31655  0.17744  0.46232  1.0000
  S   S46       1.0  0.33009  0.14545  0.43331  1.0000
  Fe  Fe25      1.0  0.30639  0.00337  0.26197  1.0000
  H   H109      1.0  0.30624  0.00292  0.44482  1.0000
  C   C115      1.0  0.25344  0.18287  0.46660  1.0000
  N   N10       1.0  0.12222  0.15939  0.47296  1.0000
  S   S47       1.0  0.17204  0.17513  0.45658  1.0000
  H   H110      1.0  0.21405  0.07529  0.47910  1.0000
  Fe  Fe26      1.0  0.18732  0.13794  0.43508  1.0000
  S   S48       1.0  0.18615  0.16409  0.42094  1.0000
  S   S49       1.0  0.19565  0.11671  0.42226  1.0000
  Fe  Fe27      1.0  0.19721  0.16704  0.44103  1.0000
  S   S50       1.0  0.21961  0.17889  0.43474  1.0000
  Fe  Fe28      1.0  0.16131  0.16909  0.43786  1.0000
  S   S51       1.0  0.13800  0.18377  0.42866  1.0000
  S   S52       1.0  0.20017  0.14038  0.45376  1.0000
  S   S53       1.0  0.16187  0.14265  0.45067  1.0000
  Fe  Fe29      1.0  0.07605  0.15936  0.38967  1.0000
  S   S54       1.0  0.08272  0.16611  0.36195  1.0000
  S   S55       1.0  0.09643  0.14634  0.40413  1.0000
  Fe  Fe30      1.0  0.03888  0.17154  0.38992  1.0000
  S   S56       1.0  0.04270  0.17974  0.36231  1.0000
  S   S57       1.0  0.01294  0.17234  0.40535  1.0000
  Fe  Fe31      1.0  0.06099  0.15581  0.36194  1.0000
  S   S58       1.0  0.06299  0.13917  0.34466  1.0000
  Fe  Fe32      1.0  0.06381  0.18937  0.36493  1.0000
  S   S59       1.0  0.06959  0.21371  0.35007  1.0000
  S   S60       1.0  0.05600  0.14670  0.38945  1.0000
  S   S61       1.0  0.05837  0.18346  0.39271  1.0000
  S   S62       1.0  0.00503  0.26819  0.36469  1.0000
  Fe  Fe33      1.0  0.00663  0.30271  0.30685  1.0000
  C   C116      1.0  0.11118  0.16462  0.46265  1.0000
  C   C117      1.0  0.12904  0.17164  0.47686  1.0000
  C   C118      1.0  0.23386  0.10548  0.45583  1.0000
  H   H111      1.0  0.00699  0.21030  0.30409  1.0000
  C   C119      1.0  0.33237  0.01035  0.38980  1.0000
  H   H112      1.0  0.30689  0.15781  0.41364  1.0000
  C   C120      1.0  0.25403  0.16736  0.46350  1.0000
  H   H113      1.0  0.05573  0.22819  0.31896  1.0000
  H   H114      1.0  0.03424  0.22669  0.32689  1.0000
  S   S63       1.0  0.01834  0.27646  0.31688  1.0000
  Fe  Fe34      1.0  0.30633  0.03944  0.25924  1.0000
  S   S64       1.0  0.28763  0.02372  0.27278  1.0000
  H   H115      1.0  0.37236  0.03716  0.25207  1.0000
  Fe  Fe35      1.0  0.33512  0.01278  0.26963  1.0000
  H   H116      1.0  0.27557  0.01788  0.40870  1.0000
  H   H117      1.0  0.27919  0.19177  0.43306  1.0000
  C   C121      1.0  0.30503  0.00566  0.43202  1.0000
  Fe  Fe36      1.0  0.30183  0.01743  0.29319  1.0000
  S   S65       1.0  0.28827  0.01802  0.31968  1.0000
  S   S66       1.0  0.32410  0.01957  0.24708  1.0000
  S   S67       1.0  0.31932  0.03448  0.28021  1.0000
  C   C122      1.0  0.23996  0.09959  0.44116  1.0000
  C   C123      1.0  0.31910  0.00560  0.41918  1.0000
  C   C124      1.0  0.28954  0.15292  0.40223  1.0000
  H   H118      1.0  0.06534  0.12071  0.32103  1.0000
  H   H119      1.0  0.26952  0.15077  0.39249  1.0000
  H   H120      1.0  0.04701  0.12098  0.30293  1.0000
  C   C125      1.0  0.05219  0.22915  0.35486  1.0000
  C   C126      1.0  0.05185  0.24568  0.34673  1.0000
  C   C127      1.0  0.03745  0.25779  0.35004  1.0000
  C   C128      1.0  0.02345  0.25335  0.36145  1.0000
  C   C129      1.0  0.02391  0.23683  0.36961  1.0000
  C   C130      1.0  0.03830  0.22479  0.36639  1.0000
  H   H121      1.0  0.06261  0.24907  0.33780  1.0000
  H   H122      1.0  0.03717  0.27057  0.34375  1.0000
  H   H123      1.0  0.01304  0.23315  0.37795  1.0000
  H   H124      1.0  0.03855  0.21206  0.37268  1.0000
  C   C131      1.0  0.04914  0.14075  0.33185  1.0000
  C   C132      1.0  0.05366  0.12959  0.32130  1.0000
  C   C133      1.0  0.04323  0.12971  0.31105  1.0000
  C   C134      1.0  0.02792  0.14078  0.31135  1.0000
  C   C135      1.0  0.02328  0.15220  0.32180  1.0000
  C   C136      1.0  0.03398  0.15228  0.33197  1.0000
  H   H125      1.0  0.33636  0.02217  0.38825  1.0000
  C   C137      1.0  0.04352  0.19370  0.29437  1.0000
  C   C138      1.0  0.12015  0.13117  0.47613  1.0000
  H   H126      1.0  0.03043  0.16106  0.33999  1.0000
  S   S68       1.0  0.00669  0.24480  0.29968  1.0000
  H   H127      1.0  0.39027  0.01187  0.23998  1.0000
  H   H128      1.0  0.29074  0.10718  0.45231  1.0000
  C   C139      1.0  0.28124  0.08561  0.46687  1.0000
  C   C140      1.0  0.12635  0.17336  0.42192  1.0000
  C   C141      1.0  0.13046  0.15616  0.42354  1.0000
  C   C142      1.0  0.12074  0.14807  0.41864  1.0000
  C   C143      1.0  0.10714  0.15710  0.41152  1.0000
  C   C144      1.0  0.10294  0.17432  0.40989  1.0000
  C   C145      1.0  0.11245  0.18239  0.41521  1.0000
  H   H129      1.0  0.14112  0.14901  0.42854  1.0000
  H   H130      1.0  0.12403  0.13474  0.42000  1.0000
  H   H131      1.0  0.09245  0.18142  0.40444  1.0000
  H   H132      1.0  0.10912  0.19571  0.41395  1.0000
  C   C146      1.0  0.28931  0.00985  0.42822  1.0000
  C   C147      1.0  0.24112  0.19634  0.46155  1.0000
  C   C148      1.0  0.23001  0.19465  0.45284  1.0000
  C   C149      1.0  0.23064  0.17933  0.44947  1.0000
  C   C150      1.0  0.24261  0.16559  0.45499  1.0000
  H   H133      1.0  0.00386  0.15731  0.38288  1.0000
  N   N11       1.0  0.22466  0.09683  0.46925  1.0000
  H   H134      1.0  0.22122  0.20545  0.44822  1.0000
  H   H135      1.0  0.24360  0.15380  0.45197  1.0000
  H   H136      1.0  0.01161  0.16104  0.32189  1.0000
  C   C151      1.0  0.31063  0.03901  0.35124  1.0000
  C   C152      1.0  0.32038  0.03407  0.33672  1.0000
  C   C153      1.0  0.31364  0.02765  0.32698  1.0000
  C   C154      1.0  0.29716  0.02575  0.33187  1.0000
  C   C155      1.0  0.28746  0.03039  0.34659  1.0000
  C   C156      1.0  0.29407  0.03728  0.35610  1.0000
  H   H137      1.0  0.33322  0.03528  0.33290  1.0000
  H   H138      1.0  0.32132  0.02391  0.31583  1.0000
  H   H139      1.0  0.27469  0.02896  0.35046  1.0000
  H   H140      1.0  0.28637  0.04116  0.36719  1.0000
  C   C157      1.0  0.24866  0.11802  0.39423  1.0000
  C   C158      1.0  0.24165  0.10466  0.39504  1.0000
  C   C159      1.0  0.22514  0.10447  0.40322  1.0000
  C   C160      1.0  0.21581  0.11744  0.41096  1.0000
  C   C161      1.0  0.22282  0.13078  0.41013  1.0000
  C   C162      1.0  0.23912  0.13122  0.40154  1.0000
  H   H141      1.0  0.24889  0.09453  0.38925  1.0000
  H   H142      1.0  0.21976  0.09411  0.40386  1.0000
  H   H143      1.0  0.21585  0.14072  0.41627  1.0000
  H   H144      1.0  0.24443  0.14152  0.40109  1.0000
  C   C163      1.0  0.32601  0.09365  0.43128  1.0000
  C   C164      1.0  0.32372  0.10690  0.41791  1.0000
  C   C165      1.0  0.32561  0.12260  0.41838  1.0000
  C   C166      1.0  0.32889  0.12538  0.43256  1.0000
  C   C167      1.0  0.33111  0.11214  0.44596  1.0000
  C   C168      1.0  0.33005  0.09624  0.44515  1.0000
  H   H145      1.0  0.32094  0.10492  0.40703  1.0000
  H   H146      1.0  0.32460  0.13257  0.40770  1.0000
  H   H147      1.0  0.33403  0.11409  0.45678  1.0000
  H   H148      1.0  0.33211  0.08596  0.45541  1.0000
  C   C169      1.0  0.26160  0.16874  0.40815  1.0000
  C   C170      1.0  0.05977  0.18120  0.31538  1.0000
  C   C171      1.0  0.25015  0.03699  0.46686  1.0000
  C   C172      1.0  0.26326  0.04024  0.45355  1.0000
  C   C173      1.0  0.27881  0.03956  0.45657  1.0000
  C   C174      1.0  0.00457  0.14863  0.37533  1.0000
  H   H149      1.0  0.23820  0.03713  0.46461  1.0000
  H   H150      1.0  0.28901  0.04203  0.44637  1.0000
  S   S69       1.0  0.33599  0.14141  0.47990  1.0000
  C   C175      1.0  0.04456  0.22631  0.31586  1.0000
  C   C176      1.0  0.05287  0.17970  0.30287  1.0000
  H   H151      1.0  0.21017  0.11563  0.48212  1.0000
  C   C177      1.0  0.30212  0.01379  0.39919  1.0000
  H   H152      1.0  0.17521  0.11496  0.47450  1.0000
  C   C178      1.0  0.00209  0.19967  0.38270  1.0000
  H   H153      1.0  0.33126  0.00281  0.42220  1.0000
  H   H154      1.0  0.25759  0.18567  0.42409  1.0000
  N   N12       1.0  0.28277  0.17251  0.41988  1.0000
  H   H155      1.0  0.24874  0.17184  0.40685  1.0000
  C   C179      1.0  0.28777  0.17989  0.43101  1.0000
  C   C180      1.0  0.22699  0.07619  0.45390  1.0000
  H   H156      1.0  0.30085  0.01741  0.38640  1.0000
  H   H157      1.0  0.26332  0.15680  0.46754  1.0000
  H   H158      1.0  0.09603  0.15739  0.45016  1.0000
  N   N13       1.0  0.29733  0.07428  0.31479  1.0000
  C   C181      1.0  0.30476  0.07778  0.29842  1.0000
  C   C182      1.0  0.28392  0.06688  0.31968  1.0000
  C   C183      1.0  0.29873  0.07390  0.28647  1.0000
  C   C184      1.0  0.27781  0.06249  0.30810  1.0000
  C   C185      1.0  0.28524  0.06611  0.29139  1.0000
  C   C186      1.0  0.30404  0.07835  0.32703  1.0000
  H   H159      1.0  0.31546  0.08353  0.29454  1.0000
  H   H160      1.0  0.27803  0.06402  0.33263  1.0000
  H   H161      1.0  0.30464  0.07661  0.27347  1.0000
  H   H162      1.0  0.26763  0.05598  0.31210  1.0000
  H   H163      1.0  0.28070  0.06269  0.28227  1.0000
  H   H164      1.0  0.29668  0.07527  0.33981  1.0000
  H   H165      1.0  0.31694  0.07112  0.32711  1.0000
  H   H166      1.0  0.30408  0.09179  0.32414  1.0000
  C   C187      1.0  0.01914  0.13663  0.37266  1.0000
  H   H167      1.0  0.06224  0.19770  0.32922  1.0000
  S   S70       1.0  0.31858  0.99522  0.28401  1.0000
  S   S71       1.0  0.01562  0.13992  0.29796  1.0000
  H   H168      1.0  0.30048  0.18240  0.42592  1.0000
  C   C188      1.0  0.02030  0.12556  0.36278  1.0000
  Fe  Fe37      1.0  0.29296  0.17052  0.47875  1.0000
  H   H169      1.0  0.24104  0.08017  0.42889  1.0000
  H   H170      1.0  0.06365  0.32046  0.29722  1.0000
  C   C189      1.0  0.12650  0.14293  0.47995  1.0000
  H   H171      1.0  0.04093  0.23691  0.30585  1.0000
  Fe  Fe38      1.0  0.99891  0.27940  0.33978  1.0000
  H   H172      1.0  0.27827  0.01034  0.43803  1.0000
  C   C190      1.0  0.22124  0.08229  0.46847  1.0000
  C   C191      1.0  0.99769  0.18691  0.39582  1.0000
  H   H173      1.0  0.23642  0.11709  0.45637  1.0000
  Fe  Fe39      1.0  0.99888  0.26877  0.30886  1.0000
  H   H174      1.0  0.14031  0.16576  0.48218  1.0000
  H   H175      1.0  0.29857  0.14363  0.39620  1.0000
  H   H176      1.0  0.06696  0.17037  0.32216  1.0000
  C   C192      1.0  0.28079  0.07391  0.48177  1.0000
  C   C193      1.0  0.25235  0.03381  0.48317  1.0000
  H   H177      1.0  0.27516  0.08472  0.45757  1.0000
  H   H178      1.0  0.28780  0.17123  0.44320  1.0000
  H   H179      1.0  0.34269  0.99978  0.39265  1.0000
  H   H180      1.0  0.22417  0.06476  0.45318  1.0000
  C   C194      1.0  0.28780  0.01402  0.41172  1.0000
  H   H181      1.0  0.03790  0.19264  0.28478  1.0000
  Fe  Fe40      1.0  0.17443  0.14807  0.46792  1.0000
  C   C195      1.0  0.28124  0.03554  0.47288  1.0000
  N   N14       1.0  0.31752  0.00952  0.40302  1.0000
  H   H182      1.0  0.03176  0.11656  0.36018  1.0000
  H   H183      1.0  0.03394  0.21986  0.29184  1.0000
  S   S72       1.0  0.29646  0.06562  0.24723  1.0000
  C   C196      1.0  0.27316  0.15690  0.40021  1.0000
  C   C197      1.0  0.29415  0.16090  0.41216  1.0000
  H   H184      1.0  0.05459  0.16766  0.29994  1.0000
  S   S73       1.0  0.26721  0.18623  0.47719  1.0000
  H   H185      1.0  0.10423  0.12741  0.46210  1.0000
  H   H186      1.0  0.24718  0.10649  0.43047  1.0000
  H   H187      1.0  0.01488  0.20075  0.37847  1.0000
  C   C198      1.0  0.26667  0.17650  0.41796  1.0000
  S   S74       1.0  0.36276  0.00497  0.26707  1.0000
  N   N15       1.0  0.14303  0.15651  0.38167  1.0000
  C   C199      1.0  0.14068  0.14099  0.38270  1.0000
  C   C200      1.0  0.15601  0.15844  0.38714  1.0000
  C   C201      1.0  0.15126  0.12691  0.38971  1.0000
  C   C202      1.0  0.16686  0.14461  0.39415  1.0000
  C   C203      1.0  0.16441  0.12877  0.39549  1.0000
  C   C204      1.0  0.13195  0.17112  0.37412  1.0000
  H   H188      1.0  0.13025  0.13946  0.37857  1.0000
  H   H189      1.0  0.15782  0.17073  0.38644  1.0000
  H   H190      1.0  0.14912  0.11466  0.39084  1.0000
  H   H191      1.0  0.17703  0.14610  0.39870  1.0000
  H   H192      1.0  0.17266  0.11799  0.40109  1.0000
  H   H193      1.0  0.13005  0.18165  0.38024  1.0000
  H   H194      1.0  0.13724  0.17486  0.36075  1.0000
  H   H195      1.0  0.11942  0.16860  0.37553  1.0000
  N   N16       1.0  0.04793  0.21039  0.31089  1.0000
  C   C205      1.0  0.04125  0.20905  0.29850  1.0000
  C   C206      1.0  0.05706  0.19670  0.31932  1.0000
  H   H196      1.0  0.10791  0.17765  0.45699  1.0000
  H   H197      1.0  0.36493  0.05489  0.23713  1.0000
  H   H198      1.0  0.00798  0.11848  0.34746  1.0000
  C   C207      1.0  0.37017  0.04137  0.23924  1.0000
  C   C208      1.0  0.23646  0.08486  0.44023  1.0000
  H   H199      1.0  0.06974  0.31542  0.33362  1.0000
  C   C209      1.0  0.10442  0.15322  0.45874  1.0000
  H   H200      1.0  0.24049  0.20835  0.46392  1.0000
  C   C210      1.0  0.10908  0.13638  0.46540  1.0000
  C   C211      1.0  0.28996  0.09818  0.46393  1.0000
  H   H201      1.0  0.02961  0.13616  0.37788  1.0000
  S   S75       1.0  0.29867  0.14517  0.47363  1.0000
  H   H202      1.0  0.29329  0.03498  0.47517  1.0000
  H   H203      1.0  0.32996  0.01005  0.37772  1.0000
  H   H204      1.0  0.18271  0.08436  0.48080  1.0000
  C   C212      1.0  0.00698  0.12666  0.35563  1.0000
  H   H205      1.0  0.30492  0.10853  0.47377  1.0000
  H   H206      1.0  0.00747  0.22473  0.41579  1.0000
  H   H207      1.0  0.13276  0.18083  0.46545  1.0000
  C   C213      1.0  0.29811  0.09884  0.47585  1.0000
  H   H208      1.0  0.12393  0.11810  0.48134  1.0000
  H   H209      1.0  0.36077  0.03501  0.23815  1.0000
  H   H210      1.0  0.05116  0.31846  0.32582  1.0000
  H   H211      1.0  0.41111  0.26574  0.70894  1.0000
  Fe  Fe41      1.0  0.43061  0.21667  0.54145  1.0000
  S   S76       1.0  0.42540  0.22682  0.56409  1.0000
  S   S77       1.0  0.45717  0.21458  0.52729  1.0000
  Fe  Fe42      1.0  0.39446  0.21339  0.54555  1.0000
  S   S78       1.0  0.38676  0.22401  0.56874  1.0000
  S   S79       1.0  0.37224  0.20682  0.53949  1.0000
  Fe  Fe43      1.0  0.40276  0.24240  0.55533  1.0000
  S   S80       1.0  0.39848  0.26935  0.55633  1.0000
  Fe  Fe44      1.0  0.41018  0.20757  0.57556  1.0000
  S   S81       1.0  0.41183  0.19559  0.60185  1.0000
  S   S82       1.0  0.40868  0.23360  0.53147  1.0000
  S   S83       1.0  0.41715  0.19563  0.55359  1.0000
  Fe  Fe45      1.0  0.46758  0.18262  0.66212  1.0000
  C   C214      1.0  0.19855  0.13175  0.52077  1.0000
  S   S84       1.0  0.44320  0.20072  0.66588  1.0000
  H   H212      1.0  0.15331  0.03116  0.61086  1.0000
  C   C215      1.0  0.41930  0.27123  0.69758  1.0000
  S   S85       1.0  0.48358  0.15817  0.61300  1.0000
  S   S86       1.0  0.46768  0.15689  0.66036  1.0000
  C   C216      1.0  0.37753  0.19319  0.51156  1.0000
  Fe  Fe46      1.0  0.31104  0.13788  0.49529  1.0000
  S   S87       1.0  0.30750  0.11484  0.51461  1.0000
  Fe  Fe47      1.0  0.40648  0.29792  0.63160  1.0000
  S   S88       1.0  0.40713  0.29891  0.65743  1.0000
  S   S89       1.0  0.39108  0.28188  0.62801  1.0000
  Fe  Fe48      1.0  0.43469  0.29226  0.64897  1.0000
  S   S90       1.0  0.45164  0.27268  0.66349  1.0000
  S   S91       1.0  0.43391  0.28944  0.62403  1.0000
  Fe  Fe49      1.0  0.24729  0.04222  0.52200  1.0000
  S   S92       1.0  0.23394  0.06537  0.50787  1.0000
  C   C217      1.0  0.36911  0.13190  0.50181  1.0000
  Fe  Fe50      1.0  0.22365  0.04642  0.55447  1.0000
  S   S93       1.0  0.20862  0.07031  0.54287  1.0000
  S   S94       1.0  0.21523  0.03891  0.58213  1.0000
  Fe  Fe51      1.0  0.21084  0.05706  0.52289  1.0000
  S   S95       1.0  0.18952  0.06120  0.51056  1.0000
  Fe  Fe52      1.0  0.23293  0.07668  0.52890  1.0000
  S   S96       1.0  0.23566  0.10321  0.52140  1.0000
  S   S97       1.0  0.22415  0.03253  0.53526  1.0000
  S   S98       1.0  0.24808  0.05408  0.54226  1.0000
  N   N17       1.0  0.42379  0.16338  0.67173  1.0000
  S   S99       1.0  0.30380  0.16292  0.50179  1.0000
  H   H213      1.0  0.34029  0.12154  0.51375  1.0000
  H   H214      1.0  0.45111  0.24862  0.62849  1.0000
  C   C218      1.0  0.46233  0.27950  0.54962  1.0000
  C   C219      1.0  0.21857  0.10334  0.48446  1.0000
  H   H215      1.0  0.49156  0.28426  0.62065  1.0000
  H   H216      1.0  0.29514  0.06396  0.51714  1.0000
  H   H217      1.0  0.45299  0.21423  0.62887  1.0000
  C   C220      1.0  0.45710  0.22159  0.61632  1.0000
  S   S100      1.0  0.14381  0.01273  0.68231  1.0000
  H   H218      1.0  0.43985  0.25648  0.54365  1.0000
  S   S101      1.0  0.06709  0.03811  0.70650  1.0000
  C   C221      1.0  0.12258  0.02103  0.68802  1.0000
  C   C222      1.0  0.11691  0.02942  0.70109  1.0000
  C   C223      1.0  0.09983  0.03465  0.70682  1.0000
  C   C224      1.0  0.08844  0.03221  0.69897  1.0000
  C   C225      1.0  0.09413  0.02433  0.68553  1.0000
  C   C226      1.0  0.11118  0.01840  0.68030  1.0000
  H   H219      1.0  0.12570  0.03159  0.70700  1.0000
  H   H220      1.0  0.40712  0.17037  0.63199  1.0000
  H   H221      1.0  0.08538  0.02252  0.67935  1.0000
  H   H222      1.0  0.46897  0.28259  0.53693  1.0000
  C   C227      1.0  0.20601  0.02157  0.59078  1.0000
  C   C228      1.0  0.20645  0.01031  0.58133  1.0000
  C   C229      1.0  0.03875  0.00746  0.71501  1.0000
  H   H223      1.0  0.46495  0.30406  0.61973  1.0000
  H   H224      1.0  0.30492  0.08685  0.49912  1.0000
  C   C230      1.0  0.19772  0.01925  0.60741  1.0000
  H   H225      1.0  0.17285  0.05401  0.55233  1.0000
  C   C231      1.0  0.48490  0.24961  0.51276  1.0000
  H   H226      1.0  0.18500  0.13704  0.52267  1.0000
  H   H227      1.0  0.19740  0.02792  0.61478  1.0000
  C   C232      1.0  0.17183  0.11719  0.49975  1.0000
  C   C233      1.0  0.17218  0.10855  0.51600  1.0000
  C   C234      1.0  0.17706  0.09125  0.51944  1.0000
  C   C235      1.0  0.18106  0.08250  0.50674  1.0000
  C   C236      1.0  0.44060  0.26838  0.56930  1.0000
  H   H228      1.0  0.41881  0.15993  0.69787  1.0000
  H   H229      1.0  0.16908  0.11521  0.52590  1.0000
  H   H230      1.0  0.17767  0.08466  0.53196  1.0000
  C   C237      1.0  0.15657  0.02765  0.59894  1.0000
  C   C238      1.0  0.25551  0.10629  0.52028  1.0000
  C   C239      1.0  0.25979  0.12125  0.51116  1.0000
  C   C240      1.0  0.27543  0.12422  0.51019  1.0000
  C   C241      1.0  0.28711  0.11202  0.51786  1.0000
  C   C242      1.0  0.28275  0.09713  0.52729  1.0000
  C   C243      1.0  0.26695  0.09424  0.52846  1.0000
  H   H231      1.0  0.25114  0.13051  0.50458  1.0000
  H   H232      1.0  0.27838  0.13599  0.50351  1.0000
  H   H233      1.0  0.29166  0.08775  0.53348  1.0000
  H   H234      1.0  0.26360  0.08278  0.53580  1.0000
  C   C244      1.0  0.18038  0.04153  0.55634  1.0000
  H   H235      1.0  0.48517  0.24142  0.55374  1.0000
  C   C245      1.0  0.44568  0.22067  0.66513  1.0000
  C   C246      1.0  0.46037  0.22305  0.66770  1.0000
  C   C247      1.0  0.46202  0.23903  0.66747  1.0000
  C   C248      1.0  0.44923  0.25272  0.66414  1.0000
  C   C249      1.0  0.43471  0.25039  0.66114  1.0000
  C   C250      1.0  0.43286  0.23435  0.66187  1.0000
  H   H236      1.0  0.47036  0.21256  0.67013  1.0000
  H   H237      1.0  0.47334  0.24080  0.66964  1.0000
  H   H238      1.0  0.42485  0.26090  0.65833  1.0000
  H   H239      1.0  0.42153  0.23258  0.65973  1.0000
  C   C251      1.0  0.36634  0.19833  0.52533  1.0000
  C   C252      1.0  0.34965  0.19706  0.52789  1.0000
  C   C253      1.0  0.34423  0.19068  0.51698  1.0000
  C   C254      1.0  0.35544  0.18544  0.50326  1.0000
  C   C255      1.0  0.41160  0.16829  0.64329  1.0000
  C   C256      1.0  0.46771  0.28310  0.56214  1.0000
  H   H240      1.0  0.34081  0.20103  0.53843  1.0000
  H   H241      1.0  0.33138  0.18976  0.51921  1.0000
  Fe  Fe53      1.0  0.48931  0.14897  0.67303  1.0000
  H   H242      1.0  0.19146  0.04292  0.55998  1.0000
  C   C257      1.0  0.39394  0.27833  0.60797  1.0000
  C   C258      1.0  0.39116  0.26351  0.60613  1.0000
  C   C259      1.0  0.39277  0.26058  0.59032  1.0000
  C   C260      1.0  0.39660  0.27273  0.57626  1.0000
  C   C261      1.0  0.39944  0.28756  0.57805  1.0000
  C   C262      1.0  0.39840  0.29024  0.59386  1.0000
  H   H243      1.0  0.38773  0.25424  0.61699  1.0000
  H   H244      1.0  0.39073  0.24903  0.58908  1.0000
  H   H245      1.0  0.40253  0.29696  0.56721  1.0000
  H   H246      1.0  0.40050  0.30174  0.59518  1.0000
  C   C263      1.0  0.43245  0.18667  0.60366  1.0000
  C   C264      1.0  0.43788  0.18781  0.61732  1.0000
  C   C265      1.0  0.45359  0.17914  0.62012  1.0000
  C   C266      1.0  0.46411  0.16950  0.60910  1.0000
  C   C267      1.0  0.45900  0.16891  0.59502  1.0000
  C   C268      1.0  0.44318  0.17756  0.59225  1.0000
  H   H247      1.0  0.42984  0.19527  0.62588  1.0000
  H   H248      1.0  0.45738  0.17979  0.63096  1.0000
  H   H249      1.0  0.46708  0.16142  0.58649  1.0000
  H   H250      1.0  0.43904  0.17666  0.58165  1.0000
  H   H251      1.0  0.43821  0.26983  0.59465  1.0000
  H   H252      1.0  0.47846  0.28872  0.55913  1.0000
  S   S102      1.0  0.16777  0.13891  0.49525  1.0000
  C   C269      1.0  0.32929  0.13459  0.53347  1.0000
  H   H253      1.0  0.18489  0.03549  0.54550  1.0000
  H   H254      1.0  0.14538  0.00623  0.60792  1.0000
  H   H255      1.0  0.44356  0.28796  0.69187  1.0000
  H   H256      1.0  0.43003  0.26255  0.57218  1.0000
  Fe  Fe54      1.0  0.48655  0.16183  0.63699  1.0000
  C   C270      1.0  0.47475  0.23899  0.51302  1.0000
  C   C271      1.0  0.46793  0.22944  0.52794  1.0000
  C   C272      1.0  0.47145  0.23057  0.54273  1.0000
  S   S103      1.0  0.48744  0.17443  0.67702  1.0000
  H   H257      1.0  0.07326  0.99895  0.67454  1.0000
  H   H258      1.0  0.34730  0.16040  0.54398  1.0000
  H   H259      1.0  0.46638  0.22308  0.55432  1.0000
  N   N18       1.0  0.35619  0.13610  0.51604  1.0000
  C   C273      1.0  0.47571  0.25242  0.62547  1.0000
  C   C274      1.0  0.35815  0.14685  0.52441  1.0000
  C   C275      1.0  0.48597  0.22485  0.61122  1.0000
  H   H260      1.0  0.36846  0.14258  0.49111  1.0000
  C   C276      1.0  0.05238  0.00365  0.70242  1.0000
  C   C277      1.0  0.18989  0.99481  0.60498  1.0000
  H   H261      1.0  0.19498  0.15649  0.49491  1.0000
  C   C278      1.0  0.48883  0.29146  0.60888  1.0000
  H   H262      1.0  0.32134  0.14941  0.55206  1.0000
  H   H263      1.0  0.23259  0.18013  0.49779  1.0000
  C   C279      1.0  0.34200  0.12995  0.52043  1.0000
  H   H264      1.0  0.18304  0.00438  0.62727  1.0000
  H   H265      1.0  0.22324  0.13564  0.53255  1.0000
  S   S104      1.0  0.48511  0.18798  0.63799  1.0000
  H   H266      1.0  0.45265  0.26910  0.52843  1.0000
  C   C280      1.0  0.48224  0.24079  0.54239  1.0000
  C   C281      1.0  0.16615  0.01822  0.56864  1.0000
  C   C282      1.0  0.33119  0.14554  0.54206  1.0000
  N   N19       1.0  0.36245  0.24985  0.52312  1.0000
  C   C283      1.0  0.35313  0.24548  0.53859  1.0000
  C   C284      1.0  0.37195  0.26141  0.52004  1.0000
  C   C285      1.0  0.35315  0.25275  0.55145  1.0000
  C   C286      1.0  0.37210  0.26907  0.53256  1.0000
  C   C287      1.0  0.36269  0.26464  0.54837  1.0000
  H   H267      1.0  0.37510  0.23258  0.50792  1.0000
  H   H268      1.0  0.34603  0.23591  0.54122  1.0000
  N   N20       1.0  0.17056  0.03187  0.57038  1.0000
  H   H269      1.0  0.49191  0.18270  0.58336  1.0000
  C   C288      1.0  0.45904  0.27960  0.57846  1.0000
  H   H270      1.0  0.49020  0.21391  0.60588  1.0000
  N   N21       1.0  0.44902  0.27209  0.55331  1.0000
  C   C289      1.0  0.44307  0.26890  0.54007  1.0000
  H   H271      1.0  0.49149  0.19491  0.53155  1.0000
  H   H272      1.0  0.23902  0.15811  0.52200  1.0000
  H   H273      1.0  0.03862  0.01638  0.72203  1.0000
  C   C290      1.0  0.40193  0.29890  0.69802  1.0000
  H   H274      1.0  0.47225  0.23810  0.50154  1.0000
  H   H275      1.0  0.36316  0.27013  0.55831  1.0000
  H   H276      1.0  0.34616  0.24887  0.56381  1.0000
  C   C291      1.0  0.40747  0.18083  0.65220  1.0000
  H   H277      1.0  0.44604  0.23032  0.61225  1.0000
  N   N22       1.0  0.28924  0.07438  0.49315  1.0000
  N   N23       1.0  0.20792  0.14504  0.51459  1.0000
  C   C292      1.0  0.36307  0.24158  0.50990  1.0000
  C   C293      1.0  0.42213  0.15339  0.64854  1.0000
  C   C294      1.0  0.17974  0.09108  0.49065  1.0000
  H   H278      1.0  0.38162  0.12902  0.50476  1.0000
  C   C295      1.0  0.42946  0.31266  0.69249  1.0000
  H   H279      1.0  0.39112  0.29370  0.69974  1.0000
  H   H280      1.0  0.38094  0.18286  0.49009  1.0000
  H   H281      1.0  0.11547  0.01192  0.67022  1.0000
  N   N24       1.0  0.46940  0.23057  0.61685  1.0000
  C   C296      1.0  0.19847  0.99690  0.58846  1.0000
  H   H282      1.0  0.43177  0.27836  0.53764  1.0000
  H   H283      1.0  0.14407  0.00253  0.71786  1.0000
  H   H284      1.0  0.20131  0.12386  0.53271  1.0000
  H   H285      1.0  0.41091  0.18814  0.67306  1.0000
  C   C297      1.0  0.02552  0.99945  0.71864  1.0000
  H   H286      1.0  0.35300  0.23453  0.51309  1.0000
  H   H287      1.0  0.43903  0.14906  0.68911  1.0000
  H   H288      1.0  0.39038  0.19410  0.50930  1.0000
  H   H289      1.0  0.21300  0.01186  0.56858  1.0000
  C   C298      1.0  0.22915  0.15801  0.51620  1.0000
  C   C299      1.0  0.44533  0.27226  0.58209  1.0000
  C   C300      1.0  0.42946  0.16066  0.68719  1.0000
  H   H290      1.0  0.43519  0.17101  0.68701  1.0000
  H   H291      1.0  0.24205  0.03174  0.49341  1.0000
  C   C301      1.0  0.22014  0.14537  0.52211  1.0000
  N   N25       1.0  0.05274  0.99236  0.69352  1.0000
  C   C302      1.0  0.22563  0.17030  0.50250  1.0000
  H   H292      1.0  0.21142  0.09516  0.49447  1.0000
  H   H293      1.0  0.17002  0.01430  0.55691  1.0000
  H   H294      1.0  0.20187  0.12359  0.51173  1.0000
  H   H295      1.0  0.16987  0.04716  0.58675  1.0000
  H   H296      1.0  0.48994  0.25705  0.50110  1.0000
  C   C303      1.0  0.15211  0.01367  0.59730  1.0000
  C   C304      1.0  0.26791  0.03302  0.48620  1.0000
  C   C305      1.0  0.41380  0.17819  0.66642  1.0000
  C   C306      1.0  0.34575  0.15166  0.53759  1.0000
  H   H297      1.0  0.22917  0.10449  0.48908  1.0000
  C   C307      1.0  0.28928  0.06137  0.50818  1.0000
  Fe  Fe55      1.0  0.43419  0.31646  0.61639  1.0000
  S   S105      1.0  0.27053  0.03006  0.50654  1.0000
  H   H298      1.0  0.47159  0.26309  0.63126  1.0000
  H   H299      1.0  0.41603  0.26933  0.68656  1.0000
  H   H300      1.0  0.46222  0.21294  0.60766  1.0000
  C   C308      1.0  0.17544  0.10844  0.48709  1.0000
  H   H301      1.0  0.48038  0.18117  0.56003  1.0000
  Fe  Fe56      1.0  0.32817  0.16735  0.48494  1.0000
  H   H302      1.0  0.37986  0.27804  0.53019  1.0000
  C   C309      1.0  0.37210  0.18682  0.50065  1.0000
  C   C310      1.0  0.16592  0.03664  0.58527  1.0000
  H   H303      1.0  0.36918  0.15212  0.52061  1.0000
  H   H304      1.0  0.39982  0.19269  0.64778  1.0000
  C   C311      1.0  0.42803  0.15106  0.66296  1.0000
  C   C312      1.0  0.46420  0.24420  0.62384  1.0000
  H   H305      1.0  0.43622  0.13943  0.66693  1.0000
  H   H306      1.0  0.46286  0.28274  0.58821  1.0000
  H   H307      1.0  0.37972  0.26454  0.50793  1.0000
  C   C313      1.0  0.15694  0.00887  0.58209  1.0000
  H   H308      1.0  0.09548  0.04083  0.71714  1.0000
  H   H309      1.0  0.44032  0.31798  0.69002  1.0000
  C   C314      1.0  0.49022  0.18788  0.55774  1.0000
  H   H310      1.0  0.31796  0.12985  0.53669  1.0000
  H   H311      1.0  0.42587  0.14382  0.64133  1.0000
  C   C315      1.0  0.48182  0.31054  0.57860  1.0000
  H   H312      1.0  0.27636  0.06026  0.51446  1.0000
  C   C316      1.0  0.18960  0.00594  0.61450  1.0000
  S   S106      1.0  0.49124  0.12807  0.69533  1.0000
  N   N26       1.0  0.41748  0.28899  0.69655  1.0000
  H   H313      1.0  0.43227  0.26433  0.69785  1.0000
  C   C317      1.0  0.47375  0.30279  0.60836  1.0000
  H   H314      1.0  0.36176  0.25073  0.49819  1.0000
  H   H315      1.0  0.13520  0.13876  0.48822  1.0000
  C   C318      1.0  0.43118  0.29569  0.69359  1.0000
  C   C319      1.0  0.29796  0.08656  0.49028  1.0000
  H   H316      1.0  0.06275  0.00965  0.69990  1.0000
  C   C320      1.0  0.48902  0.25032  0.52732  1.0000
  C   C321      1.0  0.47020  0.31233  0.59325  1.0000
  H   H317      1.0  0.36760  0.12097  0.49804  1.0000
  C   C322      1.0  0.20453  0.15691  0.50100  1.0000
  C   C323      1.0  0.21329  0.16974  0.49478  1.0000
  H   H318      1.0  0.15392  0.99773  0.58090  1.0000
  H   H319      1.0  0.11899  0.99523  0.71534  1.0000
  H   H320      1.0  0.29610  0.04926  0.50496  1.0000
  S   S107      1.0  0.34967  0.17644  0.48941  1.0000
  C   C324      1.0  0.49261  0.24653  0.62000  1.0000
  H   H321      1.0  0.01513  0.00187  0.72876  1.0000
  H   H322      1.0  0.47915  0.31795  0.56688  1.0000
  S   S108      1.0  0.13932  0.99485  0.64532  1.0000
  H   H323      1.0  0.11961  0.17824  0.48590  1.0000
  Fe  Fe57      1.0  0.14738  0.99239  0.66897  1.0000
  H   H324      1.0  0.27385  0.06430  0.48413  1.0000
  S   S109      1.0  0.43778  0.31860  0.64067  1.0000
  C   C325      1.0  0.49656  0.18890  0.57084  1.0000
  H   H325      1.0  0.21061  0.17914  0.48397  1.0000
  C   C326      1.0  0.13949  0.00016  0.73150  1.0000
  C   C327      1.0  0.39978  0.31593  0.69686  1.0000
  Fe  Fe58      1.0  0.17412  0.29572  0.96662  1.0000
  C   C328      1.0  0.03163  0.14518  0.77451  1.0000
  S   S110      1.0  0.20191  0.29267  0.96355  1.0000
  Fe  Fe59      1.0  0.14175  0.28880  0.96177  1.0000
  H   H326      1.0  0.15056  0.99633  0.73723  1.0000
  S   S111      1.0  0.13335  0.26944  0.95313  1.0000
  C   C329      1.0  0.24464  0.28954  0.94855  1.0000
  H   H327      1.0  0.03878  0.30623  0.90291  1.0000
  S   S112      1.0  0.16207  0.30130  0.94476  1.0000
  H   H328      1.0  0.12240  0.23985  0.98077  1.0000
  Fe  Fe60      1.0  0.05911  0.24789  0.92006  1.0000
  S   S113      1.0  0.07249  0.24161  0.89531  1.0000
  S   S114      1.0  0.06730  0.26219  0.93503  1.0000
  Fe  Fe61      1.0  0.02654  0.23976  0.91707  1.0000
  S   S115      1.0  0.03742  0.23370  0.89216  1.0000
  C   C330      1.0  0.00300  0.21426  0.78647  1.0000
  Fe  Fe62      1.0  0.05958  0.22001  0.90293  1.0000
  S   S116      1.0  0.07147  0.19431  0.89799  1.0000
  Fe  Fe63      1.0  0.04906  0.25556  0.88669  1.0000
  S   S117      1.0  0.04934  0.27224  0.86173  1.0000
  S   S118      1.0  0.04812  0.22481  0.92864  1.0000
  S   S119      1.0  0.03622  0.26321  0.91059  1.0000
  Fe  Fe64      1.0  0.05390  0.15735  0.82905  1.0000
  S   S120      1.0  0.05421  0.15650  0.80291  1.0000
  S   S121      1.0  0.06906  0.17350  0.83315  1.0000
  Fe  Fe65      1.0  0.02743  0.13705  0.84302  1.0000
  S   S122      1.0  0.02500  0.13479  0.81832  1.0000
  S   S123      1.0  0.01066  0.12779  0.86648  1.0000
  Fe  Fe66      1.0  0.05279  0.12965  0.81268  1.0000
  S   S124      1.0  0.06784  0.11033  0.79772  1.0000
  Fe  Fe67      1.0  0.02654  0.16155  0.81077  1.0000
  S   S125      1.0  0.01001  0.18029  0.79516  1.0000
  S   S126      1.0  0.05525  0.12993  0.83823  1.0000
  S   S127      1.0  0.02627  0.16434  0.83609  1.0000
  H   H329      1.0  0.07973  0.07217  0.81528  1.0000
  S   S128      1.0  0.01975  0.25129  0.79419  1.0000
  Fe  Fe68      1.0  0.04722  0.00717  0.76203  1.0000
  H   H330      1.0  0.04952  0.17001  0.91496  1.0000
  C   C331      1.0  0.01974  0.10572  0.76132  1.0000
  Fe  Fe69      1.0  0.04654  0.04208  0.76675  1.0000
  S   S129      1.0  0.07162  0.04294  0.75025  1.0000
  S   S130      1.0  0.03195  0.06225  0.78077  1.0000
  S   S131      1.0  0.03678  0.03297  0.74940  1.0000
  Fe  Fe70      1.0  0.07854  0.01662  0.76341  1.0000
  C   C332      1.0  0.04424  0.13366  0.76713  1.0000
  H   H331      1.0  0.00727  0.16692  0.93021  1.0000
  S   S132      1.0  0.05409  0.01639  0.78116  1.0000
  C   C333      1.0  0.05782  0.09677  0.79340  1.0000
  C   C334      1.0  0.06637  0.08709  0.78163  1.0000
  C   C335      1.0  0.05873  0.07615  0.77792  1.0000
  C   C336      1.0  0.04241  0.07495  0.78584  1.0000
  C   C337      1.0  0.03387  0.08460  0.79763  1.0000
  C   C338      1.0  0.04157  0.09540  0.80146  1.0000
  H   H332      1.0  0.07896  0.08806  0.77535  1.0000
  H   H333      1.0  0.06541  0.06887  0.76875  1.0000
  H   H334      1.0  0.02124  0.08373  0.80383  1.0000
  H   H335      1.0  0.03493  0.10256  0.81073  1.0000
  C   C339      1.0  0.01282  0.20010  0.79439  1.0000
  H   H336      1.0  0.01240  0.21445  0.90756  1.0000
  C   C340      1.0  0.24688  0.31764  0.93496  1.0000
  C   C341      1.0  0.01702  0.23173  0.79397  1.0000
  C   C342      1.0  0.02675  0.21755  0.80190  1.0000
  C   C343      1.0  0.02472  0.20180  0.80205  1.0000
  C   C344      1.0  0.21004  0.29282  0.98047  1.0000
  N   N27       1.0  0.02399  0.11919  0.76600  1.0000
  H   H337      1.0  0.03559  0.21869  0.80831  1.0000
  H   H338      1.0  0.03244  0.19098  0.80807  1.0000
  H   H339      1.0  0.23128  0.30434  0.92959  1.0000
  C   C345      1.0  0.99927  0.28548  0.86774  1.0000
  C   C346      1.0  0.99686  0.28783  0.85164  1.0000
  N   N28       1.0  0.06472  0.29519  0.90024  1.0000
  H   H340      1.0  0.23894  0.27907  0.95028  1.0000
  C   C347      1.0  0.02913  0.27864  0.85793  1.0000
  C   C348      1.0  0.01537  0.28048  0.87095  1.0000
  H   H341      1.0  0.03458  0.15529  0.77792  1.0000
  H   H342      1.0  0.99755  0.24102  0.78011  1.0000
  H   H343      1.0  0.03276  0.14612  0.87867  1.0000
  C   C349      1.0  0.02674  0.28153  0.84179  1.0000
  H   H344      1.0  0.01711  0.27836  0.88345  1.0000
  N   N29       1.0  0.25517  0.28913  0.95838  1.0000
  H   H345      1.0  0.03732  0.28037  0.83165  1.0000
  C   C350      1.0  0.06686  0.17716  0.85305  1.0000
  C   C351      1.0  0.07876  0.16832  0.86245  1.0000
  C   C352      1.0  0.07964  0.17347  0.87643  1.0000
  C   C353      1.0  0.06895  0.18780  0.88094  1.0000
  C   C354      1.0  0.05665  0.19640  0.87186  1.0000
  C   C355      1.0  0.05558  0.19106  0.85798  1.0000
  H   H346      1.0  0.08781  0.15785  0.85852  1.0000
  H   H347      1.0  0.08916  0.16670  0.88337  1.0000
  H   H348      1.0  0.04819  0.20734  0.87526  1.0000
  H   H349      1.0  0.04657  0.19821  0.85057  1.0000
  H   H350      1.0  0.00579  0.13969  0.89534  1.0000
  H   H351      1.0  0.13177  0.01181  0.73512  1.0000
  C   C356      1.0  0.11510  0.26840  0.94713  1.0000
  C   C357      1.0  0.09993  0.27946  0.95052  1.0000
  C   C358      1.0  0.08551  0.27717  0.94693  1.0000
  C   C359      1.0  0.08605  0.26416  0.93938  1.0000
  C   C360      1.0  0.10130  0.25339  0.93555  1.0000
  C   C361      1.0  0.11564  0.25538  0.93960  1.0000
  H   H352      1.0  0.09923  0.28955  0.95628  1.0000
  H   H353      1.0  0.07380  0.28558  0.95002  1.0000
  H   H354      1.0  0.10199  0.24330  0.92979  1.0000
  H   H355      1.0  0.12725  0.24670  0.93693  1.0000
  H   H356      1.0  0.03033  0.17832  0.92756  1.0000
  S   S133      1.0  0.10207  0.00655  0.77282  1.0000
  H   H357      1.0  0.26977  0.26527  0.96544  1.0000
  N   N30       1.0  0.06929  0.22019  0.81072  1.0000
  C   C362      1.0  0.07399  0.21603  0.82564  1.0000
  C   C363      1.0  0.05926  0.23522  0.80614  1.0000
  C   C364      1.0  0.06869  0.22708  0.83639  1.0000
  C   C365      1.0  0.05354  0.24647  0.81666  1.0000
  C   C366      1.0  0.05834  0.24235  0.83186  1.0000
  C   C367      1.0  0.07400  0.20802  0.80014  1.0000
  H   H358      1.0  0.08166  0.20398  0.82945  1.0000
  H   H359      1.0  0.05520  0.23843  0.79446  1.0000
  H   H360      1.0  0.07233  0.22369  0.84828  1.0000
  H   H361      1.0  0.04521  0.25819  0.81312  1.0000
  H   H362      1.0  0.05394  0.25091  0.84019  1.0000
  H   H363      1.0  0.07549  0.21416  0.78684  1.0000
  H   H364      1.0  0.08592  0.19934  0.80199  1.0000
  H   H365      1.0  0.06429  0.20053  0.80328  1.0000
  C   C368      1.0  0.25921  0.27424  0.97098  1.0000
  N   N31       1.0  0.02806  0.16563  0.90989  1.0000
  H   H366      1.0  0.07825  0.02149  0.79859  1.0000
  C   C369      1.0  0.01519  0.14353  0.77771  1.0000
  C   C370      1.0  0.01064  0.28575  0.83872  1.0000
  H   H367      1.0  0.04300  0.03559  0.83033  1.0000
  C   C371      1.0  0.04883  0.30221  0.91006  1.0000
  H   H368      1.0  0.05713  0.13452  0.76512  1.0000
  C   C372      1.0  0.09471  0.27969  0.88317  1.0000
  H   H369      1.0  0.00535  0.15237  0.78364  1.0000
  H   H370      1.0  0.22109  0.31391  0.96781  1.0000
  H   H371      1.0  0.24829  0.26832  0.97650  1.0000
  C   C373      1.0  0.07905  0.29319  0.90557  1.0000
  H   H372      1.0  0.05371  0.29118  0.88229  1.0000
  C   C374      1.0  0.06508  0.28977  0.88644  1.0000
  H   H373      1.0  0.05271  0.01970  0.81872  1.0000
  S   S134      1.0  0.99943  0.23918  0.92813  1.0000
  H   H374      1.0  0.00895  0.28762  0.82629  1.0000
  C   C375      1.0  0.22007  0.30411  0.97873  1.0000
  C   C376      1.0  0.01157  0.13034  0.77340  1.0000
  H   H375      1.0  0.08022  0.27760  0.86681  1.0000
  C   C377      1.0  0.09423  0.28531  0.89722  1.0000
  N   N32       1.0  0.06504  0.03997  0.81260  1.0000
  H   H376      1.0  0.00717  0.24736  0.86943  1.0000
  H   H377      1.0  0.05444  0.06041  0.82462  1.0000
  S   S135      1.0  0.16057  0.31905  0.97493  1.0000
  H   H378      1.0  0.14227  0.24232  0.98179  1.0000
  C   C378      1.0  0.09345  0.05327  0.80155  1.0000
  C   C379      1.0  0.04017  0.12076  0.76277  1.0000
  C   C380      1.0  0.01211  0.14690  0.89943  1.0000
  C   C381      1.0  0.03510  0.16003  0.89553  1.0000
  S   S136      1.0  0.07232  0.00550  0.74547  1.0000
  H   H379      1.0  0.04987  0.31315  0.91414  1.0000
  H   H380      1.0  0.10350  0.03312  0.78857  1.0000
  H   H381      1.0  0.10444  0.05860  0.79705  1.0000
  C   C382      1.0  0.06536  0.05408  0.81714  1.0000
  C   C383      1.0  0.04986  0.03331  0.81793  1.0000
  H   H382      1.0  0.03579  0.18822  0.90623  1.0000
  C   C384      1.0  0.01320  0.16208  0.91910  1.0000
  C   C385      1.0  0.00507  0.23010  0.78631  1.0000
  H   H383      1.0  0.04162  0.03929  0.80894  1.0000
  H   H384      1.0  0.99876  0.12906  0.77605  1.0000
  H   H385      1.0  0.01237  0.11079  0.75150  1.0000
  C   C386      1.0  0.02724  0.15056  0.89009  1.0000
  C   C387      1.0  0.00502  0.15267  0.91401  1.0000
  C   C388      1.0  0.08008  0.28206  0.87763  1.0000
  C   C389      1.0  0.07853  0.03253  0.80243  1.0000
  C   C390      1.0  0.09292  0.03904  0.79675  1.0000
  C   C391      1.0  0.07963  0.06081  0.81188  1.0000
  C   C392      1.0  0.03627  0.17601  0.91496  1.0000
  S   S137      1.0  0.12612  0.31219  0.96989  1.0000
  H   H386      1.0  0.04682  0.16292  0.88817  1.0000
  C   C393      1.0  0.24021  0.30383  0.93682  1.0000
  H   H387      1.0  0.99985  0.19327  0.90316  1.0000
  C   C394      1.0  0.25795  0.31694  0.94473  1.0000
  H   H388      1.0  0.10544  0.28321  0.90191  1.0000
  H   H389      1.0  0.03096  0.09678  0.75666  1.0000
  S   S138      1.0  0.15545  0.28095  0.98299  1.0000
  H   H390      1.0  0.26251  0.27732  0.98143  1.0000
  H   H391      1.0  0.10635  0.27333  0.87671  1.0000
  H   H392      1.0  0.07869  0.29713  0.91673  1.0000
  H   H393      1.0  0.04517  0.29269  0.92118  1.0000
  H   H394      1.0  0.00650  0.19918  0.84339  1.0000
  H   H395      1.0  0.01245  0.09851  0.77225  1.0000
  C   C395      1.0  0.26210  0.30247  0.95634  1.0000
  C   C396      1.0  0.99992  0.21338  0.91395  1.0000
  H   H396      1.0  0.27065  0.30211  0.96393  1.0000
  H   H397      1.0  0.10350  0.26476  0.98271  1.0000
  H   H398      1.0  0.05008  0.11182  0.75713  1.0000
  Fe  Fe71      1.0  0.06258  0.03184  0.73408  1.0000
  H   H399      1.0  0.04729  0.45278  0.22099  1.0000
  S   S139      1.0  0.44913  0.32849  0.13386  1.0000
  C   C397      1.0  0.15445  0.45873  0.11301  1.0000
  H   H400      1.0  0.05847  0.59473  0.18315  1.0000
  H   H401      1.0  0.19421  0.44659  0.22349  1.0000
  H   H402      1.0  0.17133  0.45939  0.13516  1.0000
  Fe  Fe72      1.0  0.17888  0.39713  0.04223  1.0000
  S   S140      1.0  0.17840  0.37206  0.03946  1.0000
  S   S141      1.0  0.19748  0.40962  0.02271  1.0000
  Fe  Fe73      1.0  0.15211  0.39575  0.07371  1.0000
  S   S142      1.0  0.14868  0.37065  0.07290  1.0000
  S   S143      1.0  0.13725  0.40808  0.09506  1.0000
  Fe  Fe74      1.0  0.17646  0.36492  0.06676  1.0000
  S   S144      1.0  0.19277  0.34195  0.07756  1.0000
  Fe  Fe75      1.0  0.15079  0.38022  0.04543  1.0000
  S   S145      1.0  0.13840  0.37716  0.02630  1.0000
  S   S146      1.0  0.17989  0.38913  0.06908  1.0000
  S   S147      1.0  0.15126  0.40608  0.04679  1.0000
  C   C398      1.0  0.15418  0.37767  0.14052  1.0000
  H   H403      1.0  0.19691  0.35438  0.10462  1.0000
  S   S148      1.0  0.05717  0.51910  0.18936  1.0000
  C   C399      1.0  0.14674  0.49117  0.20209  1.0000
  H   H404      1.0  0.13897  0.36557  0.99792  1.0000
  C   C400      1.0  0.03596  0.59989  0.15406  1.0000
  C   C401      1.0  0.22273  0.37035  0.01489  1.0000
  C   C402      1.0  0.13468  0.32694  0.01935  1.0000
  C   C403      1.0  0.16453  0.36490  0.11204  1.0000
  Fe  Fe76      1.0  0.13915  0.46738  0.17516  1.0000
  S   S149      1.0  0.16526  0.45336  0.17516  1.0000
  S   S150      1.0  0.13404  0.49470  0.16556  1.0000
  Fe  Fe77      1.0  0.12462  0.43717  0.19128  1.0000
  S   S151      1.0  0.14958  0.42049  0.19231  1.0000
  S   S152      1.0  0.10148  0.42724  0.20208  1.0000
  Fe  Fe78      1.0  0.15472  0.44104  0.20104  1.0000
  H   H405      1.0  0.12562  0.42323  0.22170  1.0000
  Fe  Fe79      1.0  0.15715  0.43455  0.16643  1.0000
  S   S153      1.0  0.17269  0.42344  0.14458  1.0000
  S   S154      1.0  0.12918  0.45670  0.20158  1.0000
  S   S155      1.0  0.13167  0.44965  0.16477  1.0000
  N   N33       1.0  0.15039  0.46909  0.12386  1.0000
  S   S156      1.0  0.26184  0.35048  0.03098  1.0000
  C   C404      1.0  0.16783  0.45074  0.23297  1.0000
  H   H406      1.0  0.17368  0.34874  0.01790  1.0000
  C   C405      1.0  0.05975  0.44483  0.22172  1.0000
  C   C406      1.0  0.46668  0.35626  0.18223  1.0000
  H   H407      1.0  0.48311  0.37292  0.16886  1.0000
  C   C407      1.0  0.16633  0.50965  0.22532  1.0000
  H   H408      1.0  0.17367  0.37731  0.00193  1.0000
  C   C408      1.0  0.01894  0.59887  0.20511  1.0000
  H   H409      1.0  0.23079  0.39123  0.02684  1.0000
  C   C409      1.0  0.14761  0.36825  0.11922  1.0000
  H   H410      1.0  0.17143  0.47922  0.12091  1.0000
  C   C410      1.0  0.09140  0.40650  0.23126  1.0000
  C   C411      1.0  0.45235  0.34801  0.16638  1.0000
  H   H411      1.0  0.45678  0.35835  0.14016  1.0000
  N   N34       1.0  0.17596  0.36789  0.11893  1.0000
  C   C412      1.0  0.10336  0.41562  0.22189  1.0000
  H   H412      1.0  0.47000  0.35522  0.19394  1.0000
  Fe  Fe80      1.0  0.07429  0.53887  0.23069  1.0000
  C   C413      1.0  0.30025  0.34929  0.04062  1.0000
  H   H413      1.0  0.04998  0.62527  0.17716  1.0000
  C   C414      1.0  0.17729  0.41028  0.00225  1.0000
  H   H414      1.0  0.20176  0.36275  0.11947  1.0000
  C   C415      1.0  0.07835  0.51305  0.18110  1.0000
  C   C416      1.0  0.08936  0.52314  0.17986  1.0000
  C   C417      1.0  0.10645  0.51772  0.17448  1.0000
  C   C418      1.0  0.11260  0.50199  0.17080  1.0000
  C   C419      1.0  0.10162  0.49191  0.17190  1.0000
  C   C420      1.0  0.08447  0.49761  0.17670  1.0000
  H   H415      1.0  0.08471  0.53521  0.18284  1.0000
  H   H416      1.0  0.11490  0.52557  0.17356  1.0000
  H   H417      1.0  0.10629  0.47976  0.16904  1.0000
  H   H418      1.0  0.07599  0.48983  0.17749  1.0000
  C   C421      1.0  0.14730  0.41221  0.10874  1.0000
  C   C422      1.0  0.13781  0.41686  0.12350  1.0000
  C   C423      1.0  0.14545  0.42015  0.13470  1.0000
  C   C424      1.0  0.16264  0.41895  0.13114  1.0000
  C   C425      1.0  0.17211  0.41441  0.11635  1.0000
  C   C426      1.0  0.16448  0.41108  0.10519  1.0000
  H   H419      1.0  0.12451  0.41781  0.12634  1.0000
  H   H420      1.0  0.13801  0.42351  0.14610  1.0000
  H   H421      1.0  0.18540  0.41358  0.11344  1.0000
  H   H422      1.0  0.17189  0.40788  0.09375  1.0000
  C   C427      1.0  0.13777  0.35740  0.02405  1.0000
  C   C428      1.0  0.13694  0.34386  0.03739  1.0000
  N   N35       1.0  0.23306  0.38086  0.00594  1.0000
  C   C429      1.0  0.00446  0.59475  0.18606  1.0000
  C   C430      1.0  0.13435  0.47741  0.12802  1.0000
  C   C431      1.0  0.13759  0.35545  0.00836  1.0000
  N   N36       1.0  0.14971  0.50291  0.21022  1.0000
  H   H423      1.0  0.12931  0.37780  0.13894  1.0000
  H   H424      1.0  0.15788  0.53365  0.23175  1.0000
  C   C432      1.0  0.21261  0.34348  0.06577  1.0000
  C   C433      1.0  0.21942  0.35689  0.06528  1.0000
  C   C434      1.0  0.23477  0.35884  0.05486  1.0000
  C   C435      1.0  0.24309  0.34761  0.04461  1.0000
  C   C436      1.0  0.23608  0.33444  0.04486  1.0000
  C   C437      1.0  0.47054  0.36716  0.15283  1.0000
  H   H425      1.0  0.21285  0.36578  0.07292  1.0000
  H   H426      1.0  0.24004  0.36916  0.05455  1.0000
  H   H427      1.0  0.12871  0.52157  0.20431  1.0000
  C   C438      1.0  0.12578  0.46418  0.11086  1.0000
  C   C439      1.0  0.19278  0.41214  0.00331  1.0000
  C   C440      1.0  0.11654  0.41595  0.22864  1.0000
  H   H428      1.0  0.16815  0.40739  0.01334  1.0000
  H   H429      1.0  0.32257  0.33963  0.06019  1.0000
  H   H430      1.0  0.22275  0.35103  0.98486  1.0000
  S   S157      1.0  0.02980  0.54430  0.22344  1.0000
  Fe  Fe81      1.0  0.04325  0.56384  0.22292  1.0000
  H   H431      1.0  0.13386  0.54145  0.21779  1.0000
  C   C441      1.0  0.14237  0.52956  0.21753  1.0000
  H   H432      1.0  0.11616  0.46196  0.10602  1.0000
  N   N37       1.0  0.30327  0.33362  0.05257  1.0000
  Fe  Fe82      1.0  0.27163  0.32868  0.01880  1.0000
  H   H433      1.0  0.08120  0.40621  0.22608  1.0000
  C   C442      1.0  0.03124  0.61719  0.15100  1.0000
  H   H434      1.0  0.12738  0.41355  0.98936  1.0000
  S   S158      1.0  0.29796  0.32354  0.00503  1.0000
  N   N38       1.0  0.18250  0.33785  0.99663  1.0000
  C   C443      1.0  0.23825  0.39118  0.01409  1.0000
  C   C444      1.0  0.13945  0.51819  0.21001  1.0000
  C   C445      1.0  0.16322  0.49872  0.21741  1.0000
  N   N39       1.0  0.03668  0.62614  0.15888  1.0000
  H   H435      1.0  0.06570  0.47457  0.20613  1.0000
  H   H436      1.0  0.21756  0.37023  0.02790  1.0000
  H   H437      1.0  0.13854  0.36638  0.11340  1.0000
  H   H438      1.0  0.28829  0.35721  0.04545  1.0000
  C   C446      1.0  0.13594  0.34039  0.00602  1.0000
  C   C447      1.0  0.14223  0.45618  0.10629  1.0000
  C   C448      1.0  0.22098  0.33223  0.05559  1.0000
  S   S159      1.0  0.16537  0.43531  0.22408  1.0000
  C   C449      1.0  0.21886  0.35946  0.00749  1.0000
  H   H439      1.0  0.17672  0.50600  0.23156  1.0000
  C   C450      1.0  0.12178  0.47494  0.12174  1.0000
  H   H440      1.0  0.15024  0.38317  0.15136  1.0000
  H   H441      1.0  0.05786  0.43351  0.23134  1.0000
  H   H442      1.0  0.29940  0.34693  0.02871  1.0000
  C   C451      1.0  0.04608  0.59176  0.16544  1.0000
  H   H443      1.0  0.13111  0.48579  0.13648  1.0000
  S   S160      1.0  0.06692  0.55336  0.20686  1.0000
  H   H444      1.0  0.13349  0.49367  0.20117  1.0000
  C   C452      1.0  0.07218  0.46898  0.21624  1.0000
  H   H445      1.0  0.16844  0.36009  0.10079  1.0000
  H   H446      1.0  0.13708  0.34522  0.04957  1.0000
  H   H447      1.0  0.15832  0.47781  0.14126  1.0000
  C   C453      1.0  0.16350  0.47155  0.13060  1.0000
  H   H448      1.0  0.34604  0.32710  0.02836  1.0000
  H   H449      1.0  0.10901  0.48123  0.12542  1.0000
  N   N40       1.0  0.07024  0.45375  0.22572  1.0000
  C   C454      1.0  0.01501  0.58829  0.19738  1.0000
  H   H450      1.0  0.02287  0.62336  0.14259  1.0000
  H   H451      1.0  0.06570  0.44098  0.20975  1.0000
  S   S161      1.0  0.03212  0.59113  0.21931  1.0000
  H   H452      1.0  0.14546  0.44771  0.09789  1.0000
  H   H453      1.0  0.47650  0.37465  0.14169  1.0000
  C   C455      1.0  0.01228  0.61590  0.20150  1.0000
  C   C456      1.0  0.17787  0.36705  0.99556  1.0000
  H   H454      1.0  0.04944  0.57833  0.16830  1.0000
  S   S162      1.0  0.26055  0.32487  0.99946  1.0000
  C   C457      1.0  0.22542  0.35956  0.99074  1.0000
  C   C458      1.0  0.18389  0.45286  0.23158  1.0000
  H   H455      1.0  0.16715  0.45208  0.10977  1.0000
  C   C459      1.0  0.17098  0.37436  0.13289  1.0000
  H   H456      1.0  0.28454  0.32459  0.04736  1.0000
  H   H457      1.0  0.17992  0.37742  0.13800  1.0000
  C   C460      1.0  0.19350  0.36525  0.11060  1.0000
  Fe  Fe83      1.0  0.05430  0.53258  0.20943  1.0000
  C   C461      1.0  0.14244  0.37467  0.13355  1.0000
  C   C462      1.0  0.03128  0.64422  0.15568  1.0000
  H   H458      1.0  0.43190  0.33268  0.10778  1.0000
  H   H459      1.0  0.21105  0.35086  0.01484  1.0000
  H   H460      1.0  0.14984  0.47823  0.20911  1.0000
  H   H461      1.0  0.25149  0.38634  0.01491  1.0000
  H   H462      1.0  0.23647  0.40423  0.00716  1.0000
  C   C463      1.0  0.00196  0.62239  0.18996  1.0000
  H   H463      1.0  0.03178  0.64940  0.14225  1.0000
  C   C464      1.0  0.45948  0.35806  0.15197  1.0000
  H   H464      1.0  0.02013  0.57515  0.20004  1.0000
  C   C465      1.0  0.13527  0.32868  0.03505  1.0000
  C   C466      1.0  0.15580  0.52517  0.22539  1.0000
  H   H465      1.0  0.01521  0.62411  0.20755  1.0000
  H   H466      1.0  0.03130  0.59285  0.14805  1.0000
  H   H467      1.0  0.03933  0.65027  0.15950  1.0000
  C   C467      1.0  0.17784  0.35083  0.00455  1.0000
  C   C468      1.0  0.05123  0.60097  0.17371  1.0000
  H   H468      1.0  0.24205  0.32609  0.03655  1.0000
  H   H469      1.0  0.01835  0.64774  0.16250  1.0000
  C   C469      1.0  0.04632  0.61826  0.17032  1.0000
  H   H470      1.0  0.17155  0.48677  0.21722  1.0000
  H   H471      1.0  0.31038  0.35615  0.03791  1.0000
  H   H472      1.0  0.19584  0.37639  0.10093  1.0000
  N   N41       1.0  0.45589  0.34733  0.18129  1.0000
  H   H473      1.0  0.15448  0.49213  0.18938  1.0000
  S   S163      1.0  0.49146  0.32501  0.14543  1.0000
  H   H474      1.0  0.13523  0.33934  0.99393  1.0000
  H   H475      1.0  0.44418  0.34059  0.16546  1.0000
  H   H476      1.0  0.43768  0.33287  0.19481  1.0000
  C   C470      1.0  0.23932  0.38124  0.98946  1.0000
  C   C471      1.0  0.47419  0.36627  0.16805  1.0000
  C   C472      1.0  0.31502  0.33064  0.06184  1.0000
  H   H477      1.0  0.11411  0.38956  0.99455  1.0000
  H   H478      1.0  0.45830  0.32476  0.19894  1.0000
  H   H479      1.0  0.16135  0.41120  0.98615  1.0000
  H   H480      1.0  0.00149  0.58655  0.18003  1.0000
  C   C473      1.0  0.09097  0.47043  0.23233  1.0000
  C   C474      1.0  0.20457  0.41578  0.98881  1.0000
  H   H481      1.0  0.21650  0.41738  0.98950  1.0000
  C   C475      1.0  0.44887  0.33629  0.19623  1.0000
  S   S164      1.0  0.06347  0.51732  0.23204  1.0000
  C   C476      1.0  0.08250  0.47757  0.21943  1.0000
  C   C477      1.0  0.17343  0.41246  0.98679  1.0000
  H   H482      1.0  0.44525  0.34233  0.20703  1.0000
  H   H483      1.0  0.08397  0.48965  0.21185  1.0000
  C   C478      1.0  0.99811  0.61184  0.18215  1.0000
  S   S165      1.0  0.99797  0.65500  0.13210  1.0000
  H   H484      1.0  0.99688  0.63553  0.18722  1.0000
  S   S166      1.0  0.10079  0.53201  0.23356  1.0000
  C   C479      1.0  0.07428  0.34750  0.31287  1.0000
  S   S167      1.0  0.17733  0.63516  0.45837  1.0000
  H   H485      1.0  0.25768  0.52937  0.46574  1.0000
  H   H486      1.0  0.22652  0.57619  0.44793  1.0000
  Fe  Fe84      1.0  0.28865  0.62500  0.44050  1.0000
  S   S168      1.0  0.29380  0.60180  0.43096  1.0000
  C   C480      1.0  0.32848  0.61405  0.47893  1.0000
  H   H487      1.0  0.48415  0.61621  0.30591  1.0000
  S   S169      1.0  0.32353  0.61683  0.40220  1.0000
  Fe  Fe85      1.0  0.04024  0.53093  0.24591  1.0000
  Fe  Fe86      1.0  0.29605  0.61847  0.40597  1.0000
  S   S170      1.0  0.28105  0.61619  0.38883  1.0000
  Fe  Fe87      1.0  0.32052  0.60217  0.42826  1.0000
  S   S171      1.0  0.33913  0.58008  0.43719  1.0000
  H   H488      1.0  0.36665  0.64121  0.44479  1.0000
  S   S172      1.0  0.31524  0.62379  0.44029  1.0000
  Fe  Fe88      1.0  0.20051  0.57247  0.40044  1.0000
  S   S173      1.0  0.18611  0.55440  0.41826  1.0000
  S   S174      1.0  0.18723  0.59710  0.38851  1.0000
  Fe  Fe89      1.0  0.23353  0.54980  0.40361  1.0000
  S   S175      1.0  0.22182  0.52954  0.42133  1.0000
  S   S176      1.0  0.26114  0.54717  0.39922  1.0000
  Fe  Fe90      1.0  0.20379  0.53570  0.40417  1.0000
  S   S177      1.0  0.19452  0.51552  0.39802  1.0000
  Fe  Fe91      1.0  0.20546  0.55013  0.43339  1.0000
  S   S178      1.0  0.19954  0.55158  0.46041  1.0000
  S   S179      1.0  0.21717  0.55423  0.38540  1.0000
  S   S180      1.0  0.21817  0.56993  0.41658  1.0000
  S   S181      1.0  0.05180  0.55131  0.24668  1.0000
  N   N42       1.0  0.22346  0.58837  0.46768  1.0000
  S   S182      1.0  0.02575  0.51789  0.26915  1.0000
  Fe  Fe92      1.0  0.05041  0.42567  0.28381  1.0000
  S   S183      1.0  0.07512  0.42776  0.28661  1.0000
  S   S184      1.0  0.03960  0.44337  0.26299  1.0000
  Fe  Fe93      1.0  0.04884  0.39445  0.31073  1.0000
  S   S185      1.0  0.07341  0.39405  0.31625  1.0000
  S   S186      1.0  0.03473  0.37420  0.32516  1.0000
  Fe  Fe94      1.0  0.06484  0.42158  0.31376  1.0000
  S   S187      1.0  0.06853  0.43552  0.33112  1.0000
  Fe  Fe95      1.0  0.08160  0.40030  0.28875  1.0000
  S   S188      1.0  0.10617  0.38915  0.27488  1.0000
  S   S189      1.0  0.03924  0.42163  0.31096  1.0000
  S   S190      1.0  0.05793  0.39863  0.28329  1.0000
  Fe  Fe96      1.0  0.13339  0.50445  0.30846  1.0000
  S   S191      1.0  0.15861  0.50975  0.29694  1.0000
  S   S192      1.0  0.11034  0.52390  0.30604  1.0000
  Fe  Fe97      1.0  0.14664  0.46905  0.32251  1.0000
  S   S193      1.0  0.17336  0.47143  0.31268  1.0000
  S   S194      1.0  0.13846  0.44518  0.33569  1.0000
  Fe  Fe98      1.0  0.16542  0.49575  0.32137  1.0000
  S   S195      1.0  0.17974  0.51030  0.32995  1.0000
  Fe  Fe99      1.0  0.16419  0.48530  0.28942  1.0000
  S   S196      1.0  0.17863  0.48178  0.26392  1.0000
  S   S197      1.0  0.13942  0.49197  0.33323  1.0000
  S   S198      1.0  0.13826  0.48130  0.29884  1.0000
  H   H489      1.0  0.34119  0.53410  0.46142  1.0000
  H   H490      1.0  0.05283  0.33296  0.33672  1.0000
  C   C481      1.0  0.09250  0.39795  0.24745  1.0000
  H   H491      1.0  0.42102  0.64959  0.39167  1.0000
  C   C482      1.0  0.47797  0.64069  0.38241  1.0000
  C   C483      1.0  0.15466  0.45841  0.24405  1.0000
  S   S199      1.0  0.28912  0.64192  0.41559  1.0000
  H   H492      1.0  0.48756  0.64278  0.32126  1.0000
  C   C484      1.0  0.15768  0.46788  0.25384  1.0000
  H   H493      1.0  0.13151  0.40391  0.27872  1.0000
  H   H494      1.0  0.16707  0.43566  0.30749  1.0000
  C   C485      1.0  0.03035  0.36044  0.31543  1.0000
  C   C486      1.0  0.02230  0.34772  0.32522  1.0000
  H   H495      1.0  0.21251  0.60807  0.39830  1.0000
  C   C487      1.0  0.03205  0.34993  0.29112  1.0000
  C   C488      1.0  0.03512  0.36157  0.29832  1.0000
  H   H496      1.0  0.22395  0.65325  0.41690  1.0000
  H   H497      1.0  0.04125  0.37133  0.29064  1.0000
  H   H498      1.0  0.07308  0.35096  0.32452  1.0000
  H   H499      1.0  0.12761  0.60980  0.45205  1.0000
  C   C489      1.0  0.13935  0.41029  0.28189  1.0000
  H   H500      1.0  0.07749  0.33642  0.27111  1.0000
  H   H501      1.0  0.12940  0.51919  0.38228  1.0000
  C   C490      1.0  0.08860  0.43725  0.33153  1.0000
  C   C491      1.0  0.09962  0.44311  0.31714  1.0000
  C   C492      1.0  0.11462  0.44642  0.31829  1.0000
  C   C493      1.0  0.11899  0.44311  0.33375  1.0000
  C   C494      1.0  0.10813  0.43688  0.34796  1.0000
  C   C495      1.0  0.09286  0.43440  0.34690  1.0000
  H   H502      1.0  0.09636  0.44549  0.30522  1.0000
  H   H503      1.0  0.12297  0.45110  0.30720  1.0000
  H   H504      1.0  0.11143  0.43417  0.35991  1.0000
  H   H505      1.0  0.08436  0.43007  0.35807  1.0000
  C   C496      1.0  0.10333  0.53055  0.25359  1.0000
  C   C497      1.0  0.09072  0.53810  0.26507  1.0000
  C   C498      1.0  0.09303  0.53655  0.28110  1.0000
  C   C499      1.0  0.10796  0.52745  0.28562  1.0000
  C   C500      1.0  0.12063  0.52013  0.27406  1.0000
  C   C501      1.0  0.11825  0.52155  0.25815  1.0000
  H   H506      1.0  0.07926  0.54525  0.26160  1.0000
  H   H507      1.0  0.08319  0.54223  0.29002  1.0000
  H   H508      1.0  0.13226  0.51325  0.27735  1.0000
  H   H509      1.0  0.12791  0.51535  0.24952  1.0000
  C   C502      1.0  0.02814  0.49730  0.26765  1.0000
  C   C503      1.0  0.02678  0.48478  0.28194  1.0000
  C   C504      1.0  0.03027  0.46812  0.28062  1.0000
  C   C505      1.0  0.03458  0.46407  0.26503  1.0000
  C   C506      1.0  0.03524  0.47667  0.25080  1.0000
  C   C507      1.0  0.03227  0.49323  0.25209  1.0000
  H   H510      1.0  0.02351  0.48791  0.29399  1.0000
  H   H511      1.0  0.02949  0.45843  0.29165  1.0000
  C   C508      1.0  0.07020  0.47611  0.30785  1.0000
  S   S200      1.0  0.02081  0.32258  0.29146  1.0000
  C   C509      1.0  0.18987  0.51466  0.37912  1.0000
  C   C510      1.0  0.18271  0.50168  0.37874  1.0000
  C   C511      1.0  0.17943  0.50013  0.36390  1.0000
  C   C512      1.0  0.18356  0.51141  0.34914  1.0000
  C   C513      1.0  0.19072  0.52438  0.34954  1.0000
  C   C514      1.0  0.19369  0.52612  0.36443  1.0000
  H   H512      1.0  0.17974  0.49270  0.39000  1.0000
  H   H513      1.0  0.17391  0.49009  0.36386  1.0000
  H   H514      1.0  0.19394  0.53321  0.33823  1.0000
  H   H515      1.0  0.19913  0.53620  0.36447  1.0000
  H   H516      1.0  0.01854  0.34677  0.33846  1.0000
  C   C515      1.0  0.25784  0.58417  0.46029  1.0000
  C   C516      1.0  0.23233  0.53942  0.46306  1.0000
  C   C517      1.0  0.21634  0.54642  0.47063  1.0000
  C   C518      1.0  0.20531  0.59096  0.47162  1.0000
  H   H517      1.0  0.14228  0.45639  0.24562  1.0000
  H   H518      1.0  0.23451  0.53678  0.45089  1.0000
  H   H519      1.0  0.00022  0.57229  0.27291  1.0000
  H   H520      1.0  0.25552  0.61366  0.41941  1.0000
  C   C519      1.0  0.21984  0.64633  0.46319  1.0000
  C   C520      1.0  0.10576  0.39823  0.25412  1.0000
  N   N43       1.0  0.15927  0.42681  0.29003  1.0000
  N   N44       1.0  0.23209  0.62814  0.41417  1.0000
  N   N45       1.0  0.06772  0.33467  0.31239  1.0000
  C   C521      1.0  0.33322  0.57502  0.45869  1.0000
  C   C522      1.0  0.34485  0.56561  0.46819  1.0000
  C   C523      1.0  0.13954  0.60351  0.47269  1.0000
  C   C524      1.0  0.23457  0.63682  0.46800  1.0000
  C   C525      1.0  0.06805  0.48100  0.27934  1.0000
  C   C526      1.0  0.31669  0.58003  0.46641  1.0000
  H   H521      1.0  0.35769  0.56189  0.46225  1.0000
  C   C527      1.0  0.48759  0.65358  0.35396  1.0000
  H   H522      1.0  0.41468  0.63055  0.40225  1.0000
  H   H523      1.0  0.30770  0.58750  0.45921  1.0000
  C   C528      1.0  0.27588  0.59682  0.39177  1.0000
  C   C529      1.0  0.26283  0.59589  0.38512  1.0000
  C   C530      1.0  0.25798  0.58076  0.38779  1.0000
  C   C531      1.0  0.26663  0.56632  0.39651  1.0000
  C   C532      1.0  0.27987  0.56716  0.40294  1.0000
  C   C533      1.0  0.28433  0.58244  0.40080  1.0000
  H   H524      1.0  0.25639  0.60695  0.37797  1.0000
  H   H525      1.0  0.24786  0.58019  0.38265  1.0000
  H   H526      1.0  0.28670  0.55599  0.40955  1.0000
  H   H527      1.0  0.29464  0.58298  0.40564  1.0000
  C   C534      1.0  0.15347  0.62887  0.42435  1.0000
  C   C535      1.0  0.15059  0.63108  0.40850  1.0000
  C   C536      1.0  0.16116  0.62139  0.39752  1.0000
  C   C537      1.0  0.17428  0.60900  0.40255  1.0000
  C   C538      1.0  0.17704  0.60651  0.41854  1.0000
  C   C539      1.0  0.16682  0.61667  0.42933  1.0000
  C   C540      1.0  0.13716  0.60109  0.45801  1.0000
  H   H528      1.0  0.15901  0.62335  0.38517  1.0000
  H   H529      1.0  0.18711  0.59689  0.42252  1.0000
  H   H530      1.0  0.16886  0.61460  0.44169  1.0000
  H   H531      1.0  0.03301  0.50286  0.24101  1.0000
  C   C541      1.0  0.22139  0.64322  0.41306  1.0000
  C   C542      1.0  0.30100  0.53682  0.48011  1.0000
  H   H532      1.0  0.08773  0.36658  0.29873  1.0000
  C   C543      1.0  0.18684  0.46253  0.24104  1.0000
  H   H533      1.0  0.25384  0.63552  0.41473  1.0000
  C   C544      1.0  0.16180  0.42494  0.27411  1.0000
  H   H534      1.0  0.09471  0.50190  0.28393  1.0000
  C   C545      1.0  0.15188  0.41669  0.26979  1.0000
  C   C546      1.0  0.24842  0.59185  0.47321  1.0000
  H   H535      1.0  0.27124  0.58260  0.45749  1.0000
  N   N46       1.0  0.13841  0.53778  0.33537  1.0000
  H   H536      1.0  0.17148  0.42994  0.26462  1.0000
  H   H537      1.0  0.08973  0.35970  0.27186  1.0000
  H   H538      1.0  0.15386  0.41539  0.25708  1.0000
  C   C547      1.0  0.08597  0.49381  0.28735  1.0000
  H   H539      1.0  0.13489  0.54059  0.31078  1.0000
  C   C548      1.0  0.06354  0.47317  0.29585  1.0000
  H   H540      1.0  0.15351  0.53279  0.36961  1.0000
  H   H541      1.0  0.18271  0.43155  0.28955  1.0000
  H   H542      1.0  0.19937  0.46398  0.23983  1.0000
  C   C549      1.0  0.17387  0.46983  0.25242  1.0000
  C   C550      1.0  0.07920  0.49155  0.27506  1.0000
  N   N47       1.0  0.31790  0.53308  0.47822  1.0000
  C   C551      1.0  0.06901  0.33052  0.29764  1.0000
  C   C552      1.0  0.16176  0.57936  0.47326  1.0000
  H   H543      1.0  0.19975  0.60439  0.47004  1.0000
  C   C553      1.0  0.24996  0.63986  0.45854  1.0000
  H   H544      1.0  0.12804  0.40750  0.24977  1.0000
  C   C554      1.0  0.25056  0.65309  0.44493  1.0000
  C   C555      1.0  0.06003  0.32485  0.32790  1.0000
  C   C556      1.0  0.23259  0.58079  0.45497  1.0000
  C   C557      1.0  0.11787  0.40708  0.24464  1.0000
  H   H545      1.0  0.14526  0.42162  0.31471  1.0000
  S   S201      1.0  0.26831  0.62644  0.46318  1.0000
  H   H546      1.0  0.09550  0.44907  0.25194  1.0000
  C   C558      1.0  0.14522  0.53236  0.36208  1.0000
  C   C559      1.0  0.46184  0.64970  0.38152  1.0000
  C   C560      1.0  0.29355  0.54507  0.46661  1.0000
  C   C561      1.0  0.32075  0.54536  0.44923  1.0000
  C   C562      1.0  0.30352  0.54945  0.45109  1.0000
  H   H547      1.0  0.11681  0.52998  0.33465  1.0000
  C   C563      1.0  0.13173  0.52468  0.36916  1.0000
  C   C564      1.0  0.02430  0.33701  0.30096  1.0000
  C   C565      1.0  0.22886  0.61551  0.40925  1.0000
  H   H548      1.0  0.32864  0.54898  0.43728  1.0000
  H   H549      1.0  0.29796  0.55599  0.44051  1.0000
  H   H550      1.0  0.20800  0.64359  0.47021  1.0000
  H   H551      1.0  0.45192  0.64793  0.39213  1.0000
  H   H552      1.0  0.28013  0.54789  0.46826  1.0000
  C   C566      1.0  0.12138  0.52395  0.35925  1.0000
  H   H553      1.0  0.08876  0.47817  0.32692  1.0000
  C   C567      1.0  0.32778  0.53701  0.46298  1.0000
  C   C568      1.0  0.08854  0.48885  0.31619  1.0000
  H   H554      1.0  0.06636  0.47022  0.32069  1.0000
  H   H555      1.0  0.08110  0.50026  0.32050  1.0000
  N   N48       1.0  0.14713  0.58835  0.45090  1.0000
  C   C569      1.0  0.38480  0.63919  0.39521  1.0000
  C   C570      1.0  0.48423  0.64646  0.30890  1.0000
  C   C571      1.0  0.14231  0.54443  0.31752  1.0000
  H   H556      1.0  0.01789  0.57489  0.25602  1.0000
  Fe  Fe100     1.0  0.31646  0.63872  0.41443  1.0000
  C   C572      1.0  0.14455  0.58609  0.43541  1.0000
  C   C573      1.0  0.14719  0.42032  0.30203  1.0000
  H   H557      1.0  0.32672  0.62667  0.47093  1.0000
  H   H558      1.0  0.23405  0.62688  0.47882  1.0000
  H   H559      1.0  0.13977  0.55816  0.31502  1.0000
  H   H560      1.0  0.12720  0.40724  0.30764  1.0000
  H   H561      1.0  0.13912  0.59808  0.42793  1.0000
  H   H562      1.0  0.15655  0.58128  0.42755  1.0000
  H   H563      1.0  0.13619  0.57729  0.43810  1.0000
  C   C574      1.0  0.15915  0.57740  0.45845  1.0000
  H   H564      1.0  0.01518  0.55452  0.26687  1.0000
  C   C575      1.0  0.08358  0.35258  0.28320  1.0000
  C   C576      1.0  0.24548  0.53534  0.47145  1.0000
  S   S202      1.0  0.14018  0.64518  0.48218  1.0000
  H   H565      1.0  0.23720  0.60349  0.41028  1.0000
  H   H566      1.0  0.47147  0.64465  0.31028  1.0000
  H   H567      1.0  0.24307  0.62560  0.43452  1.0000
  H   H568      1.0  0.16607  0.44957  0.28783  1.0000
  C   C577      1.0  0.16926  0.43632  0.29396  1.0000
  H   H569      1.0  0.11088  0.51794  0.36458  1.0000
  H   H570      1.0  0.08314  0.39107  0.25470  1.0000
  C   C578      1.0  0.23115  0.59385  0.47676  1.0000
  H   H571      1.0  0.15564  0.53968  0.31242  1.0000
  C   C579      1.0  0.20700  0.64597  0.40692  1.0000
  H   H572      1.0  0.10155  0.49043  0.31126  1.0000
  C   C580      1.0  0.01937  0.33598  0.31804  1.0000
  H   H573      1.0  0.19278  0.63527  0.39655  1.0000
  C   C581      1.0  0.14836  0.53892  0.34506  1.0000
  H   H574      1.0  0.05485  0.46493  0.29943  1.0000
  H   H575      1.0  0.08250  0.49809  0.26235  1.0000
  C   C582      1.0  0.37125  0.64358  0.38747  1.0000
  H   H576      1.0  0.49190  0.65416  0.42061  1.0000
  N   N49       1.0  0.08160  0.48597  0.30346  1.0000
  C   C583      1.0  0.08890  0.45490  0.24197  1.0000
  H   H577      1.0  0.06272  0.47906  0.26995  1.0000
  C   C584      1.0  0.24992  0.57855  0.45108  1.0000
  C   C585      1.0  0.07680  0.33952  0.28281  1.0000
  H   H578      1.0  0.14755  0.47362  0.26247  1.0000
  C   C586      1.0  0.15195  0.59257  0.48034  1.0000
  H   H579      1.0  0.48042  0.63222  0.39376  1.0000
  H   H580      1.0  0.14026  0.64044  0.40463  1.0000
  N   N50       1.0  0.24091  0.50518  0.38791  1.0000
  C   C587      1.0  0.23344  0.50563  0.37542  1.0000
  C   C588      1.0  0.25148  0.51555  0.38572  1.0000
  C   C589      1.0  0.23624  0.51686  0.36034  1.0000
  C   C590      1.0  0.25456  0.52694  0.37079  1.0000
  C   C591      1.0  0.24683  0.52762  0.35806  1.0000
  C   C592      1.0  0.23773  0.49322  0.40355  1.0000
  H   H581      1.0  0.22495  0.49749  0.37721  1.0000
  H   H582      1.0  0.25745  0.51527  0.39558  1.0000
  H   H583      1.0  0.23002  0.51733  0.35059  1.0000
  H   H584      1.0  0.26271  0.53536  0.36927  1.0000
  H   H585      1.0  0.24893  0.53656  0.34653  1.0000
  H   H586      1.0  0.22412  0.49435  0.40834  1.0000
  H   H587      1.0  0.24328  0.48043  0.40161  1.0000
  H   H588      1.0  0.24295  0.49536  0.41325  1.0000
  C   C593      1.0  0.21483  0.61796  0.40261  1.0000
  H   H589      1.0  0.15921  0.54437  0.33954  1.0000
  C   C594      1.0  0.20380  0.63327  0.40153  1.0000
  C   C595      1.0  0.13698  0.41209  0.29813  1.0000
  H   H590      1.0  0.03581  0.35086  0.27788  1.0000
  H   H591      1.0  0.34436  0.63881  0.43230  1.0000
  H   H592      1.0  0.36178  0.63618  0.39130  1.0000
  H   H593      1.0  0.25711  0.57239  0.44108  1.0000
  C   C596      1.0  0.31165  0.57512  0.48352  1.0000
  H   H594      1.0  0.03824  0.47366  0.23874  1.0000
  C   C597      1.0  0.49093  0.64286  0.36871  1.0000
  C   C598      1.0  0.12484  0.53073  0.34228  1.0000
  S   S203      1.0  0.13951  0.64067  0.43805  1.0000
  C   C599      1.0  0.08240  0.35653  0.29832  1.0000
  H   H595      1.0  0.16689  0.56711  0.45300  1.0000
  C   C600      1.0  0.36281  0.65076  0.43460  1.0000
  Fe  Fe101     1.0  0.15147  0.64725  0.45516  1.0000
  C   C601      1.0  0.24680  0.62555  0.42111  1.0000
  H   H596      1.0  0.29705  0.62740  0.47595  1.0000
  H   H597      1.0  0.38575  0.62822  0.40502  1.0000
  H   H598      1.0  0.20054  0.58560  0.46371  1.0000
  C   C602      1.0  0.41026  0.64420  0.39938  1.0000
  C   C603      1.0  0.00839  0.56722  0.26221  1.0000
  H   H599      1.0  0.99909  0.37674  0.29940  1.0000
  N   N51       1.0  0.39641  0.64883  0.39080  1.0000
  H   H600      1.0  0.33178  0.60476  0.47102  1.0000
  H   H601      1.0  0.09918  0.47689  0.23475  1.0000
  H   H602      1.0  0.25442  0.59637  0.48039  1.0000
  C   C604      1.0  0.49451  0.62121  0.29766  1.0000
  H   H603      1.0  0.40620  0.64873  0.41113  1.0000
  H   H604      1.0  0.01342  0.32609  0.32576  1.0000
  H   H605      1.0  0.17135  0.57068  0.47919  1.0000
  H   H606      1.0  0.99754  0.59270  0.23941  1.0000
  N   N52       1.0  0.99847  0.56713  0.25059  1.0000
  C   C605      1.0  0.35008  0.64944  0.42762  1.0000
  H   H607      1.0  0.13193  0.61393  0.47798  1.0000
  H   H608      1.0  0.07674  0.43471  0.24611  1.0000
  C   C606      1.0  0.07834  0.44674  0.23853  1.0000
  N   N53       1.0  0.49630  0.63669  0.29757  1.0000
  H   H609      1.0  0.99718  0.54164  0.25977  1.0000
  C   C607      1.0  0.29812  0.61931  0.48788  1.0000
  S   S204      1.0  0.39715  0.34695  0.65948  1.0000
  H   H610      1.0  0.34885  0.55368  0.49276  1.0000
  C   C608      1.0  0.41363  0.32276  0.69431  1.0000
  H   H611      1.0  0.33971  0.49895  0.71144  1.0000
  C   C609      1.0  0.22701  0.54617  0.49462  1.0000
  H   H612      1.0  0.20136  0.55494  0.49250  1.0000
  H   H613      1.0  0.24531  0.54331  0.62554  1.0000
  Fe  Fe102     1.0  0.25398  0.57562  0.53019  1.0000
  S   S205      1.0  0.24434  0.55207  0.53984  1.0000
  S   S206      1.0  0.23892  0.60154  0.52841  1.0000
  Fe  Fe103     1.0  0.28981  0.55776  0.52229  1.0000
  S   S207      1.0  0.28307  0.53290  0.53100  1.0000
  S   S208      1.0  0.31688  0.55857  0.51427  1.0000
  Fe  Fe104     1.0  0.26210  0.54417  0.51740  1.0000
  H   H614      1.0  0.41486  0.37347  0.60849  1.0000
  Fe  Fe105     1.0  0.26626  0.54338  0.55246  1.0000
  S   S209      1.0  0.26567  0.52890  0.57887  1.0000
  S   S210      1.0  0.27027  0.56832  0.50710  1.0000
  S   S211      1.0  0.27435  0.56762  0.54441  1.0000
  N   N54       1.0  0.44926  0.49234  0.68916  1.0000
  H   H615      1.0  0.38660  0.54496  0.63266  1.0000
  H   H616      1.0  0.35425  0.59561  0.67127  1.0000
  S   S212      1.0  0.42405  0.55364  0.72388  1.0000
  S   S213      1.0  0.38997  0.55079  0.70354  1.0000
  S   S214      1.0  0.44039  0.44032  0.72484  1.0000
  Fe  Fe106     1.0  0.42663  0.41663  0.68216  1.0000
  S   S215      1.0  0.40775  0.43636  0.67008  1.0000
  S   S216      1.0  0.43824  0.39226  0.67378  1.0000
  Fe  Fe107     1.0  0.42816  0.43830  0.70519  1.0000
  S   S217      1.0  0.40946  0.45948  0.69507  1.0000
  N   N55       1.0  0.36529  0.57215  0.66510  1.0000
  Fe  Fe108     1.0  0.39593  0.44000  0.69584  1.0000
  S   S218      1.0  0.36838  0.44568  0.70456  1.0000
  Fe  Fe109     1.0  0.42297  0.45395  0.67048  1.0000
  S   S219      1.0  0.42786  0.47544  0.64992  1.0000
  S   S220      1.0  0.41350  0.41887  0.70818  1.0000
  S   S221      1.0  0.44310  0.43418  0.68027  1.0000
  Fe  Fe110     1.0  0.31047  0.50518  0.67334  1.0000
  S   S222      1.0  0.33333  0.51055  0.67721  1.0000
  S   S223      1.0  0.30210  0.48152  0.68643  1.0000
  Fe  Fe111     1.0  0.30134  0.53833  0.65050  1.0000
  S   S224      1.0  0.32289  0.54714  0.65340  1.0000
  S   S225      1.0  0.28504  0.55489  0.63293  1.0000
  Fe  Fe112     1.0  0.33742  0.52190  0.65015  1.0000
  S   S226      1.0  0.36158  0.52178  0.63183  1.0000
  Fe  Fe113     1.0  0.31705  0.53519  0.68025  1.0000
  S   S227      1.0  0.31822  0.54518  0.70181  1.0000
  S   S228      1.0  0.31627  0.51375  0.64571  1.0000
  S   S229      1.0  0.29370  0.52916  0.67795  1.0000
  C   C610      1.0  0.23870  0.57900  0.59880  1.0000
  C   C611      1.0  0.30437  0.48577  0.71660  1.0000
  C   C612      1.0  0.29624  0.47952  0.70803  1.0000
  C   C613      1.0  0.28318  0.47160  0.71677  1.0000
  S   S230      1.0  0.45079  0.32559  0.59275  1.0000
  H   H617      1.0  0.31458  0.49172  0.70990  1.0000
  H   H618      1.0  0.27689  0.46671  0.71023  1.0000
  C   C614      1.0  0.40927  0.48859  0.64564  1.0000
  C   C615      1.0  0.39408  0.48729  0.65667  1.0000
  C   C616      1.0  0.37931  0.49784  0.65287  1.0000
  C   C617      1.0  0.37973  0.50933  0.63783  1.0000
  C   C618      1.0  0.39492  0.51066  0.62692  1.0000
  C   C619      1.0  0.40967  0.50045  0.63090  1.0000
  H   H619      1.0  0.39364  0.47804  0.66801  1.0000
  H   H620      1.0  0.36759  0.49665  0.66126  1.0000
  H   H621      1.0  0.39526  0.51946  0.61522  1.0000
  H   H622      1.0  0.42137  0.50144  0.62233  1.0000
  C   C620      1.0  0.37046  0.54637  0.70531  1.0000
  C   C621      1.0  0.35682  0.55135  0.71743  1.0000
  C   C622      1.0  0.34080  0.55047  0.71662  1.0000
  C   C623      1.0  0.33843  0.54453  0.70376  1.0000
  C   C624      1.0  0.35220  0.53869  0.69223  1.0000
  C   C625      1.0  0.36816  0.53955  0.69306  1.0000
  C   C626      1.0  0.21372  0.54974  0.48645  1.0000
  H   H623      1.0  0.39067  0.44428  0.72507  1.0000
  H   H624      1.0  0.35054  0.53405  0.68231  1.0000
  H   H625      1.0  0.37863  0.53551  0.68372  1.0000
  C   C627      1.0  0.23015  0.55940  0.58248  1.0000
  C   C628      1.0  0.23625  0.58536  0.58259  1.0000
  Fe  Fe114     1.0  0.41008  0.32530  0.64688  1.0000
  H   H626      1.0  0.33019  0.55494  0.72563  1.0000
  C   C629      1.0  0.39018  0.55737  0.65009  1.0000
  H   H627      1.0  0.41717  0.47250  0.72361  1.0000
  S   S231      1.0  0.25959  0.53216  0.49772  1.0000
  C   C630      1.0  0.44607  0.50663  0.69488  1.0000
  N   N56       1.0  0.43643  0.36724  0.61882  1.0000
  H   H628      1.0  0.33787  0.52655  0.49106  1.0000
  C   C631      1.0  0.27349  0.53564  0.59272  1.0000
  C   C632      1.0  0.27531  0.55201  0.58992  1.0000
  C   C633      1.0  0.27953  0.55760  0.60206  1.0000
  C   C634      1.0  0.28237  0.54680  0.61697  1.0000
  C   C635      1.0  0.28117  0.53025  0.61955  1.0000
  C   C636      1.0  0.27656  0.52477  0.60755  1.0000
  H   H629      1.0  0.27280  0.56058  0.57872  1.0000
  H   H630      1.0  0.28035  0.57043  0.59999  1.0000
  H   H631      1.0  0.28311  0.52185  0.63108  1.0000
  H   H632      1.0  0.27512  0.51210  0.60989  1.0000
  C   C637      1.0  0.46489  0.36192  0.62130  1.0000
  C   C638      1.0  0.19167  0.60829  0.50959  1.0000
  C   C639      1.0  0.19931  0.59253  0.51708  1.0000
  C   C640      1.0  0.21393  0.59039  0.52269  1.0000
  C   C641      1.0  0.22077  0.60403  0.52119  1.0000
  C   C642      1.0  0.21310  0.61981  0.51376  1.0000
  C   C643      1.0  0.19867  0.62191  0.50780  1.0000
  H   H633      1.0  0.23013  0.58021  0.56179  1.0000
  H   H634      1.0  0.21968  0.57819  0.52843  1.0000
  H   H635      1.0  0.21841  0.63040  0.51248  1.0000
  H   H636      1.0  0.32642  0.51051  0.49401  1.0000
  H   H637      1.0  0.34252  0.57183  0.65927  1.0000
  C   C644      1.0  0.40866  0.35951  0.66341  1.0000
  C   C645      1.0  0.42575  0.35433  0.66278  1.0000
  C   C646      1.0  0.43449  0.36427  0.66653  1.0000
  C   C647      1.0  0.42635  0.37967  0.67057  1.0000
  C   C648      1.0  0.40925  0.38488  0.67123  1.0000
  C   C649      1.0  0.40044  0.37477  0.66778  1.0000
  H   H638      1.0  0.43223  0.34255  0.65974  1.0000
  H   H639      1.0  0.44769  0.36012  0.66606  1.0000
  H   H640      1.0  0.40284  0.39670  0.67440  1.0000
  H   H641      1.0  0.38719  0.37881  0.66846  1.0000
  C   C650      1.0  0.41924  0.51473  0.68742  1.0000
  H   H642      1.0  0.46293  0.46752  0.69385  1.0000
  Fe  Fe115     1.0  0.39773  0.55126  0.72676  1.0000
  H   H643      1.0  0.24790  0.56297  0.62658  1.0000
  H   H644      1.0  0.47355  0.48187  0.67769  1.0000
  C   C651      1.0  0.29939  0.48407  0.73388  1.0000
  H   H645      1.0  0.41548  0.35616  0.62589  1.0000
  C   C652      1.0  0.37829  0.44958  0.73082  1.0000
  H   H646      1.0  0.47104  0.37912  0.63214  1.0000
  C   C653      1.0  0.42281  0.50039  0.68116  1.0000
  C   C654      1.0  0.44533  0.38545  0.63034  1.0000
  H   H647      1.0  0.30147  0.58942  0.52983  1.0000
  C   C655      1.0  0.46503  0.48043  0.68999  1.0000
  C   C656      1.0  0.36351  0.55817  0.64483  1.0000
  C   C657      1.0  0.42305  0.36244  0.61452  1.0000
  N   N57       1.0  0.23709  0.56316  0.60655  1.0000
  C   C658      1.0  0.43287  0.38081  0.62576  1.0000
  C   C659      1.0  0.43798  0.48927  0.68212  1.0000
  H   H648      1.0  0.42025  0.38790  0.62816  1.0000
  N   N58       1.0  0.34800  0.45937  0.66538  1.0000
  C   C660      1.0  0.36495  0.45479  0.66202  1.0000
  C   C661      1.0  0.34000  0.47144  0.65441  1.0000
  C   C662      1.0  0.37433  0.46220  0.64726  1.0000
  C   C663      1.0  0.34901  0.47912  0.63953  1.0000
  C   C664      1.0  0.36627  0.47449  0.63599  1.0000
  C   C665      1.0  0.33842  0.45204  0.68125  1.0000
  H   H649      1.0  0.37129  0.44542  0.67084  1.0000
  H   H650      1.0  0.32657  0.47525  0.65718  1.0000
  H   H651      1.0  0.38778  0.45876  0.64474  1.0000
  H   H652      1.0  0.34271  0.48881  0.63087  1.0000
  H   H653      1.0  0.37341  0.48072  0.62472  1.0000
  H   H654      1.0  0.34508  0.43949  0.68646  1.0000
  H   H655      1.0  0.33623  0.46000  0.69032  1.0000
  H   H656      1.0  0.32618  0.45084  0.67990  1.0000
  H   H657      1.0  0.42798  0.35389  0.60574  1.0000
  H   H658      1.0  0.45497  0.34680  0.61146  1.0000
  H   H659      1.0  0.22724  0.55140  0.57614  1.0000
  C   C666      1.0  0.28345  0.52619  0.71973  1.0000
  C   C667      1.0  0.28360  0.61672  0.49952  1.0000
  H   H660      1.0  0.23783  0.59781  0.57631  1.0000
  C   C668      1.0  0.23942  0.55672  0.62362  1.0000
  C   C669      1.0  0.45583  0.46083  0.73202  1.0000
  H   H661      1.0  0.22729  0.55849  0.63239  1.0000
  H   H662      1.0  0.23189  0.54071  0.60459  1.0000
  H   H663      1.0  0.15393  0.59432  0.49175  1.0000
  H   H664      1.0  0.29321  0.53340  0.49214  1.0000
  H   H665      1.0  0.33912  0.61270  0.48476  1.0000
  C   C670      1.0  0.45217  0.35775  0.61668  1.0000
  H   H666      1.0  0.45499  0.50913  0.70047  1.0000
  H   H667      1.0  0.36499  0.58091  0.68646  1.0000
  H   H668      1.0  0.42822  0.52901  0.69930  1.0000
  H   H669      1.0  0.38751  0.32389  0.69753  1.0000
  H   H670      1.0  0.39067  0.48617  0.71593  1.0000
  H   H671      1.0  0.47731  0.35428  0.61967  1.0000
  H   H672      1.0  0.40747  0.52339  0.68694  1.0000
  H   H673      1.0  0.31773  0.52796  0.50402  1.0000
  C   C671      1.0  0.31463  0.60098  0.50630  1.0000
  H   H674      1.0  0.41395  0.49785  0.67553  1.0000
  H   H675      1.0  0.41206  0.33596  0.69341  1.0000
  H   H676      1.0  0.19396  0.58194  0.51849  1.0000
  N   N59       1.0  0.31339  0.61163  0.49145  1.0000
  H   H677      1.0  0.29893  0.57914  0.48936  1.0000
  C   C672      1.0  0.37794  0.49231  0.71985  1.0000
  C   C673      1.0  0.34931  0.49941  0.71736  1.0000
  H   H678      1.0  0.44240  0.39601  0.63620  1.0000
  H   H679      1.0  0.27150  0.62274  0.49665  1.0000
  C   C674      1.0  0.38223  0.56727  0.66174  1.0000
  H   H680      1.0  0.22483  0.54858  0.50689  1.0000
  H   H681      1.0  0.44067  0.47812  0.67724  1.0000
  H   H682      1.0  0.40357  0.55322  0.64769  1.0000
  S   S232      1.0  0.40655  0.32500  0.62173  1.0000
  H   H683      1.0  0.36897  0.48555  0.70167  1.0000
  C   C675      1.0  0.23274  0.55342  0.59865  1.0000
  C   C676      1.0  0.23193  0.57547  0.57441  1.0000
  C   C677      1.0  0.42835  0.47346  0.72669  1.0000
  C   C678      1.0  0.35594  0.56792  0.65667  1.0000
  H   H684      1.0  0.34536  0.57852  0.68481  1.0000
  H   H685      1.0  0.35612  0.55471  0.63820  1.0000
  C   C679      1.0  0.38070  0.55275  0.64165  1.0000
  C   C680      1.0  0.46141  0.37587  0.62819  1.0000
  H   H686      1.0  0.38966  0.57062  0.66844  1.0000
  C   C681      1.0  0.35708  0.58237  0.67746  1.0000
  H   H687      1.0  0.24224  0.58669  0.60504  1.0000
  C   C682      1.0  0.36577  0.49198  0.71183  1.0000
  S   S233      1.0  0.17368  0.61050  0.50219  1.0000
  C   C683      1.0  0.43094  0.51794  0.69428  1.0000
  H   H688      1.0  0.47114  0.48214  0.69926  1.0000
  H   H689      1.0  0.33822  0.45832  0.72630  1.0000
  C   C684      1.0  0.28477  0.60610  0.51478  1.0000
  H   H690      1.0  0.19289  0.63408  0.50206  1.0000
  C   C685      1.0  0.37344  0.50003  0.73337  1.0000
  C   C686      1.0  0.30037  0.59815  0.51822  1.0000
  C   C687      1.0  0.24289  0.53865  0.48727  1.0000
  H   H691      1.0  0.46601  0.45019  0.73294  1.0000
  H   H692      1.0  0.35848  0.55669  0.72690  1.0000
  Fe  Fe116     1.0  0.16657  0.63483  0.48522  1.0000
  C   C688      1.0  0.33986  0.56100  0.48540  1.0000
  C   C689      1.0  0.36479  0.45093  0.72378  1.0000
  H   H693      1.0  0.28035  0.53871  0.71190  1.0000
  H   H694      1.0  0.27358  0.60388  0.52381  1.0000
  C   C690      1.0  0.42947  0.48828  0.73034  1.0000
  H   H695      1.0  0.29450  0.54557  0.73223  1.0000
  H   H696      1.0  0.29684  0.52097  0.71566  1.0000
  H   H697      1.0  0.41924  0.49882  0.72974  1.0000
  H   H698      1.0  0.32667  0.59420  0.50887  1.0000
  C   C691      1.0  0.34870  0.45731  0.73169  1.0000
  H   H699      1.0  0.27626  0.51810  0.71753  1.0000
  C   C692      1.0  0.34526  0.50714  0.73081  1.0000
  C   C693      1.0  0.44156  0.45967  0.72761  1.0000
  C   C694      1.0  0.32538  0.52402  0.49248  1.0000
  C   C695      1.0  0.32317  0.56542  0.49299  1.0000
  H   H700      1.0  0.22392  0.59989  0.48678  1.0000
  H   H701      1.0  0.20099  0.58501  0.48470  1.0000
  H   H702      1.0  0.26025  0.50993  0.77486  1.0000
  H   H703      1.0  0.20776  0.33150  0.93274  1.0000
  C   C696      1.0  0.12512  0.38424  0.97027  1.0000
  Fe  Fe117     1.0  0.46908  0.63504  0.78944  1.0000
  S   S234      1.0  0.47017  0.61394  0.77680  1.0000
  S   S235      1.0  0.46297  0.62962  0.81727  1.0000
  H   H704      1.0  0.11980  0.37340  0.97253  1.0000
  H   H705      1.0  0.16638  0.39869  0.93661  1.0000
  C   C697      1.0  0.26749  0.51806  0.76557  1.0000
  H   H706      1.0  0.43806  0.63112  0.76750  1.0000
  S   S236      1.0  0.37736  0.53221  0.78861  1.0000
  C   C698      1.0  0.46106  0.64989  0.89937  1.0000
  Fe  Fe118     1.0  0.30432  0.50342  0.79304  1.0000
  S   S237      1.0  0.28388  0.48904  0.80161  1.0000
  S   S238      1.0  0.30326  0.53035  0.79089  1.0000
  Fe  Fe119     1.0  0.33019  0.47496  0.78219  1.0000
  S   S239      1.0  0.31269  0.45761  0.78956  1.0000
  S   S240      1.0  0.35719  0.46892  0.77117  1.0000
  Fe  Fe120     1.0  0.29507  0.47939  0.77823  1.0000
  S   S241      1.0  0.27829  0.47547  0.76391  1.0000
  Fe  Fe121     1.0  0.30293  0.46828  0.81237  1.0000
  S   S242      1.0  0.29959  0.45034  0.83696  1.0000
  S   S243      1.0  0.31355  0.49578  0.76866  1.0000
  S   S244      1.0  0.32234  0.48359  0.80598  1.0000
  Fe  Fe122     1.0  0.22591  0.42133  0.90044  1.0000
  S   S245      1.0  0.24492  0.39777  0.90492  1.0000
  S   S246      1.0  0.22789  0.44087  0.87685  1.0000
  Fe  Fe123     1.0  0.20391  0.41314  0.93439  1.0000
  S   S247      1.0  0.22120  0.38932  0.94175  1.0000
  S   S248      1.0  0.18042  0.41809  0.95308  1.0000
  Fe  Fe124     1.0  0.24125  0.40360  0.92986  1.0000
  S   S249      1.0  0.26141  0.40092  0.94332  1.0000
  Fe  Fe125     1.0  0.22288  0.38580  0.91639  1.0000
  S   S250      1.0  0.22135  0.36021  0.91556  1.0000
  S   S251      1.0  0.22373  0.42803  0.92471  1.0000
  S   S252      1.0  0.20408  0.40883  0.90967  1.0000
  H   H707      1.0  0.49635  0.62589  0.74792  1.0000
  C   C699      1.0  0.20079  0.35727  0.92147  1.0000
  C   C700      1.0  0.19761  0.34170  0.93000  1.0000
  H   H708      1.0  0.19148  0.33027  0.97343  1.0000
  C   C701      1.0  0.16795  0.35234  0.93174  1.0000
  C   C702      1.0  0.17116  0.36781  0.92288  1.0000
  C   C703      1.0  0.18753  0.37033  0.91790  1.0000
  H   H709      1.0  0.13824  0.38169  0.94573  1.0000
  H   H710      1.0  0.46766  0.64027  0.74516  1.0000
  H   H711      1.0  0.16103  0.37777  0.91963  1.0000
  H   H712      1.0  0.18990  0.38220  0.91082  1.0000
  C   C704      1.0  0.27166  0.38011  0.94699  1.0000
  C   C705      1.0  0.27754  0.37313  0.96162  1.0000
  C   C706      1.0  0.28406  0.35607  0.96548  1.0000
  C   C707      1.0  0.28554  0.34616  0.95429  1.0000
  C   C708      1.0  0.28052  0.35333  0.93923  1.0000
  C   C709      1.0  0.27317  0.37021  0.93579  1.0000
  H   H713      1.0  0.38288  0.49981  0.73987  1.0000
  C   C710      1.0  0.49280  0.63928  0.74645  1.0000
  H   H714      1.0  0.26884  0.37557  0.92437  1.0000
  H   H715      1.0  0.38637  0.45420  0.75063  1.0000
  H   H716      1.0  0.38803  0.61067  0.79010  1.0000
  H   H717      1.0  0.44197  0.58137  0.80496  1.0000
  H   H718      1.0  0.24092  0.37076  0.96861  1.0000
  H   H719      1.0  0.21008  0.42015  0.96218  1.0000
  S   S253      1.0  0.41879  0.59095  0.74862  1.0000
  Fe  Fe126     1.0  0.41480  0.56625  0.74576  1.0000
  C   C711      1.0  0.27956  0.44789  0.84775  1.0000
  C   C712      1.0  0.26540  0.45857  0.84286  1.0000
  C   C713      1.0  0.24957  0.45638  0.85195  1.0000
  C   C714      1.0  0.24785  0.44354  0.86594  1.0000
  C   C715      1.0  0.26202  0.43286  0.87078  1.0000
  C   C716      1.0  0.27783  0.43504  0.86170  1.0000
  H   H720      1.0  0.26663  0.46852  0.83213  1.0000
  H   H721      1.0  0.23862  0.46465  0.84815  1.0000
  H   H722      1.0  0.26084  0.42296  0.88155  1.0000
  H   H723      1.0  0.28877  0.42674  0.86552  1.0000
  C   C717      1.0  0.13968  0.41124  0.96431  1.0000
  C   C718      1.0  0.43273  0.61243  0.80996  1.0000
  H   H724      1.0  0.42712  0.49236  0.77291  1.0000
  H   H725      1.0  0.41878  0.62177  0.75619  1.0000
  C   C719      1.0  0.46684  0.65400  0.94194  1.0000
  Fe  Fe127     1.0  0.14745  0.32395  0.95429  1.0000
  C   C720      1.0  0.35984  0.46159  0.75326  1.0000
  H   H726      1.0  0.18309  0.38245  0.97125  1.0000
  C   C721      1.0  0.40618  0.58778  0.79173  1.0000
  H   H727      1.0  0.39973  0.58175  0.78637  1.0000
  S   S254      1.0  0.40004  0.52676  0.74441  1.0000
  H   H728      1.0  0.33378  0.46748  0.75262  1.0000
  H   H729      1.0  0.39692  0.50166  0.78348  1.0000
  C   C722      1.0  0.35652  0.53271  0.78920  1.0000
  C   C723      1.0  0.34821  0.54322  0.77701  1.0000
  C   C724      1.0  0.33151  0.54311  0.77790  1.0000
  C   C725      1.0  0.32335  0.53219  0.79072  1.0000
  C   C726      1.0  0.33167  0.52188  0.80292  1.0000
  C   C727      1.0  0.34815  0.52223  0.80224  1.0000
  H   H730      1.0  0.35458  0.55149  0.76701  1.0000
  H   H731      1.0  0.32508  0.55117  0.76846  1.0000
  H   H732      1.0  0.32531  0.51376  0.81308  1.0000
  H   H733      1.0  0.35448  0.51424  0.81179  1.0000
  C   C728      1.0  0.45566  0.60787  0.76898  1.0000
  H   H734      1.0  0.27664  0.38077  0.97021  1.0000
  C   C729      1.0  0.41859  0.48431  0.77446  1.0000
  H   H735      1.0  0.43313  0.62498  0.80205  1.0000
  C   C730      1.0  0.44813  0.58629  0.75984  1.0000
  C   C731      1.0  0.45919  0.59173  0.76601  1.0000
  H   H736      1.0  0.37755  0.48324  0.78646  1.0000
  S   S255      1.0  0.14732  0.34953  0.93866  1.0000
  H   H737      1.0  0.47057  0.58331  0.76857  1.0000
  C   C732      1.0  0.37584  0.45506  0.74543  1.0000
  C   C733      1.0  0.44096  0.61863  0.76543  1.0000
  H   H738      1.0  0.45103  0.57382  0.75773  1.0000
  C   C734      1.0  0.43345  0.59706  0.75624  1.0000
  C   C735      1.0  0.43004  0.61329  0.75898  1.0000
  N   N60       1.0  0.41376  0.45867  0.77197  1.0000
  C   C736      1.0  0.41989  0.44257  0.76710  1.0000
  H   H739      1.0  0.40354  0.62464  0.80124  1.0000
  C   C737      1.0  0.39713  0.46372  0.77774  1.0000
  C   C738      1.0  0.47661  0.64736  0.74497  1.0000
  S   S256      1.0  0.41902  0.54216  0.76413  1.0000
  C   C739      1.0  0.18124  0.33929  0.93523  1.0000
  H   H740      1.0  0.42672  0.61370  0.82287  1.0000
  H   H741      1.0  0.17905  0.32720  0.94177  1.0000
  H   H742      1.0  0.19199  0.35869  0.95705  1.0000
  S   S257      1.0  0.38796  0.56605  0.74682  1.0000
  C   C740      1.0  0.39080  0.47925  0.78195  1.0000
  C   C741      1.0  0.47587  0.65051  0.88770  1.0000
  Fe  Fe128     1.0  0.39289  0.54150  0.76414  1.0000
  H   H743      1.0  0.14919  0.40549  0.92599  1.0000
  C   C742      1.0  0.12190  0.39331  0.98256  1.0000
  C   C743      1.0  0.34621  0.46256  0.74653  1.0000
  C   C744      1.0  0.35273  0.51514  0.75298  1.0000
  H   H744      1.0  0.26320  0.32758  0.94345  1.0000
  C   C745      1.0  0.42134  0.57950  0.79606  1.0000
  H   H745      1.0  0.15530  0.41988  0.93397  1.0000
  H   H746      1.0  0.28806  0.35063  0.97705  1.0000
  H   H747      1.0  0.38864  0.45571  0.77911  1.0000
  C   C746      1.0  0.15388  0.40683  0.93642  1.0000
  H   H748      1.0  0.43770  0.46468  0.76598  1.0000
  N   N61       1.0  0.28177  0.45923  0.88373  1.0000
  C   C747      1.0  0.26479  0.46325  0.88736  1.0000
  C   C748      1.0  0.29015  0.44575  0.89317  1.0000
  C   C749      1.0  0.25574  0.45356  0.90064  1.0000
  C   C750      1.0  0.28149  0.43580  0.90654  1.0000
  C   C751      1.0  0.26421  0.43981  0.91030  1.0000
  C   C752      1.0  0.29105  0.46988  0.87015  1.0000
  H   H749      1.0  0.25811  0.47380  0.87979  1.0000
  H   H750      1.0  0.30361  0.44256  0.89030  1.0000
  H   H751      1.0  0.24226  0.45653  0.90323  1.0000
  H   H752      1.0  0.28806  0.42499  0.91399  1.0000
  H   H753      1.0  0.25742  0.43219  0.92068  1.0000
  H   H754      1.0  0.30314  0.46266  0.86458  1.0000
  H   H755      1.0  0.28415  0.47545  0.85996  1.0000
  H   H756      1.0  0.29334  0.47994  0.87471  1.0000
  N   N62       1.0  0.25433  0.42497  0.83220  1.0000
  C   C753      1.0  0.24632  0.43696  0.82116  1.0000
  C   C754      1.0  0.27129  0.42156  0.82968  1.0000
  C   C755      1.0  0.25533  0.44603  0.80725  1.0000
  C   C756      1.0  0.28067  0.43045  0.81596  1.0000
  C   C757      1.0  0.27260  0.44270  0.80467  1.0000
  C   C758      1.0  0.24472  0.41513  0.84630  1.0000
  H   H757      1.0  0.23289  0.43963  0.82312  1.0000
  H   H758      1.0  0.27767  0.41215  0.83847  1.0000
  H   H759      1.0  0.24904  0.45558  0.79849  1.0000
  H   H760      1.0  0.29410  0.42807  0.81426  1.0000
  H   H761      1.0  0.27970  0.44964  0.79392  1.0000
  H   H762      1.0  0.25100  0.41082  0.85700  1.0000
  H   H763      1.0  0.23232  0.42263  0.85077  1.0000
  H   H764      1.0  0.24300  0.40419  0.84273  1.0000
  N   N63       1.0  0.42358  0.60380  0.80380  1.0000
  C   C759      1.0  0.40855  0.61190  0.79990  1.0000
  C   C760      1.0  0.42994  0.58773  0.80212  1.0000
  C   C761      1.0  0.39967  0.60407  0.79371  1.0000
  H   H765      1.0  0.41595  0.43254  0.77746  1.0000
  C   C762      1.0  0.42450  0.46867  0.77047  1.0000
  C   C763      1.0  0.40163  0.48959  0.78026  1.0000
  S   S258      1.0  0.44664  0.50754  0.73885  1.0000
  N   N64       1.0  0.35730  0.50751  0.73853  1.0000
  H   H766      1.0  0.28196  0.34580  0.93038  1.0000
  C   C764      1.0  0.20090  0.41742  0.97333  1.0000
  C   C765      1.0  0.27046  0.51740  0.74888  1.0000
  H   H767      1.0  0.43367  0.43954  0.76339  1.0000
  C   C766      1.0  0.18802  0.35659  0.97042  1.0000
  N   N65       1.0  0.14258  0.40243  0.95224  1.0000
  H   H768      1.0  0.26757  0.46448  0.74049  1.0000
  H   H769      1.0  0.36286  0.52067  0.75378  1.0000
  H   H770      1.0  0.44587  0.60579  0.80964  1.0000
  H   H771      1.0  0.42668  0.56699  0.79412  1.0000
  H   H772      1.0  0.46838  0.47637  0.73836  1.0000
  C   C767      1.0  0.23564  0.37058  0.98162  1.0000
  C   C768      1.0  0.18523  0.41600  0.97232  1.0000
  H   H773      1.0  0.26529  0.50875  0.74546  1.0000
  C   C769      1.0  0.12937  0.40678  0.97966  1.0000
  C   C770      1.0  0.27426  0.52896  0.77017  1.0000
  H   H774      1.0  0.35003  0.50571  0.76448  1.0000
  C   C771      1.0  0.18302  0.36992  0.97838  1.0000
  Fe  Fe129     1.0  0.48441  0.64093  0.81585  1.0000
  H   H775      1.0  0.14548  0.42172  0.96219  1.0000
  H   H776      1.0  0.46104  0.64150  0.91133  1.0000
  H   H777      1.0  0.41494  0.44269  0.75626  1.0000
  H   H778      1.0  0.46952  0.64370  0.95201  1.0000
  H   H779      1.0  0.27223  0.52950  0.78309  1.0000
  H   H780      1.0  0.48742  0.64246  0.89041  1.0000
  H   H781      1.0  0.34156  0.52528  0.75232  1.0000
  C   C772      1.0  0.13563  0.38894  0.95513  1.0000
  S   S259      1.0  0.29270  0.32469  0.95950  1.0000
  C   C773      1.0  0.18772  0.34053  0.97978  1.0000
  C   C774      1.0  0.28398  0.53894  0.75810  1.0000
  H   H782      1.0  0.28951  0.54726  0.76163  1.0000
  C   C775      1.0  0.28680  0.53787  0.74154  1.0000
  S   S260      1.0  0.49213  0.64435  0.78822  1.0000
  H   H783      1.0  0.24337  0.32891  0.92607  1.0000
  Fe  Fe130     1.0  0.42572  0.52958  0.74250  1.0000
  C   C776      1.0  0.28601  0.47649  0.74254  1.0000
  H   H784      1.0  0.24729  0.38975  0.98229  1.0000
  N   N66       1.0  0.28001  0.52724  0.73713  1.0000
  H   H785      1.0  0.30574  0.48884  0.74042  1.0000
  C   C777      1.0  0.45715  0.47566  0.73514  1.0000
  C   C778      1.0  0.44399  0.48941  0.73449  1.0000
  Fe  Fe131     1.0  0.44831  0.65566  0.81449  1.0000
  C   C779      1.0  0.27792  0.47033  0.73391  1.0000
  H   H786      1.0  0.33242  0.51285  0.73502  1.0000
  Fe  Fe132     1.0  0.23194  0.91890  0.02779  1.0000
  S   S261      1.0  0.23817  0.89139  0.03596  1.0000
  S   S262      1.0  0.22785  0.92930  0.00167  1.0000
  Fe  Fe133     1.0  0.23585  0.92481  0.06072  1.0000
  S   S263      1.0  0.24159  0.89750  0.07146  1.0000
  S   S264      1.0  0.23669  0.94539  0.07296  1.0000
  Fe  Fe134     1.0  0.25768  0.89577  0.04646  1.0000
  S   S265      1.0  0.28359  0.88103  0.04167  1.0000
  Fe  Fe135     1.0  0.22127  0.89587  0.05985  1.0000
  S   S266      1.0  0.20359  0.87855  0.07216  1.0000
  S   S267      1.0  0.25318  0.92301  0.03615  1.0000
  S   S268      1.0  0.21380  0.92343  0.05126  1.0000
  S   S269      1.0  0.27168  0.83023  0.98500  1.0000
  S   S270      1.0  0.27540  0.81385  0.03054  1.0000
  H   H787      1.0  0.19357  0.89092  0.10219  1.0000
  Fe  Fe136     1.0  0.14423  0.85248  0.03410  1.0000
  S   S271      1.0  0.14674  0.82886  0.05324  1.0000
  S   S272      1.0  0.14781  0.87717  0.03598  1.0000
  Fe  Fe137     1.0  0.14165  0.83520  0.00813  1.0000
  S   S273      1.0  0.14470  0.81032  0.02499  1.0000
  C   C780      1.0  0.32931  0.98280  0.20009  1.0000
  Fe  Fe138     1.0  0.12669  0.82326  0.04395  1.0000
  S   S274      1.0  0.10578  0.81061  0.05938  1.0000
  Fe  Fe139     1.0  0.16426  0.81822  0.03229  1.0000
  S   S275      1.0  0.18921  0.80238  0.03507  1.0000
  S   S276      1.0  0.12244  0.84801  0.02667  1.0000
  S   S277      1.0  0.16289  0.84207  0.01372  1.0000
  H   H788      1.0  0.02069  0.67278  0.11116  1.0000
  C   C781      1.0  0.38256  0.98160  0.15269  1.0000
  H   H789      1.0  0.04808  0.80133  0.09994  1.0000
  Fe  Fe140     1.0  0.04339  0.77153  0.03806  1.0000
  S   S278      1.0  0.04463  0.75577  0.06333  1.0000
  S   S279      1.0  0.06341  0.78584  0.02322  1.0000
  H   H790      1.0  0.26919  0.91585  0.06750  1.0000
  C   C782      1.0  0.29085  0.97513  0.21144  1.0000
  Fe  Fe141     1.0  0.28430  0.81183  0.00403  1.0000
  Fe  Fe142     1.0  0.01819  0.76864  0.07019  1.0000
  Fe  Fe143     1.0  0.03368  0.73871  0.05536  1.0000
  S   S280      1.0  0.04036  0.71105  0.06116  1.0000
  S   S281      1.0  0.01744  0.78563  0.04546  1.0000
  S   S282      1.0  0.03445  0.75325  0.02931  1.0000
  S   S283      1.0  0.27854  0.98821  0.14158  1.0000
  H   H791      1.0  0.39494  0.86695  0.21832  1.0000
  H   H792      1.0  0.00491  0.72198  0.13729  1.0000
  N   N67       1.0  0.33618  0.98310  0.21277  1.0000
  S   S284      1.0  0.40820  0.94657  0.20650  1.0000
  Fe  Fe144     1.0  0.00845  0.76575  0.03953  1.0000
  Fe  Fe145     1.0  0.28446  0.96135  0.13923  1.0000
  S   S285      1.0  0.31133  0.96173  0.12759  1.0000
  S   S286      1.0  0.27303  0.94448  0.13021  1.0000
  C   C783      1.0  0.18061  0.77775  0.00377  1.0000
  H   H793      1.0  0.18882  0.77195  0.01242  1.0000
  C   C784      1.0  0.19797  0.93646  0.09220  1.0000
  H   H794      1.0  0.33538  0.95791  0.22463  1.0000
  Fe  Fe146     1.0  0.31537  0.95385  0.15351  1.0000
  S   S287      1.0  0.33819  0.93555  0.15935  1.0000
  S   S288      1.0  0.28903  0.95212  0.16541  1.0000
  C   C785      1.0  0.28284  0.91473  0.06360  1.0000
  C   C786      1.0  0.33945  0.92575  0.21385  1.0000
  C   C787      1.0  0.32457  0.93358  0.20859  1.0000
  C   C788      1.0  0.32416  0.93710  0.19173  1.0000
  C   C789      1.0  0.33852  0.93231  0.18025  1.0000
  C   C790      1.0  0.35341  0.92475  0.18548  1.0000
  C   C791      1.0  0.35388  0.92165  0.20222  1.0000
  H   H795      1.0  0.31330  0.93668  0.21753  1.0000
  H   H796      1.0  0.31261  0.94303  0.18772  1.0000
  H   H797      1.0  0.36456  0.92112  0.17659  1.0000
  H   H798      1.0  0.36527  0.91533  0.20610  1.0000
  C   C792      1.0  0.38888  0.97199  0.22126  1.0000
  C   C793      1.0  0.39863  0.96740  0.20669  1.0000
  H   H799      1.0  0.40800  0.97601  0.18077  1.0000
  H   H800      1.0  0.29163  0.96455  0.20637  1.0000
  H   H801      1.0  0.03424  0.81615  0.03778  1.0000
  S   S289      1.0  0.30986  0.81193  0.98864  1.0000
  H   H802      1.0  0.21451  0.89841  0.11260  1.0000
  C   C794      1.0  0.02747  0.69282  0.11699  1.0000
  C   C795      1.0  0.03420  0.70702  0.11046  1.0000
  C   C796      1.0  0.03812  0.71277  0.09327  1.0000
  C   C797      1.0  0.03610  0.70382  0.08262  1.0000
  C   C798      1.0  0.03013  0.68921  0.08916  1.0000
  H   H803      1.0  0.38737  0.87439  0.19071  1.0000
  H   H804      1.0  0.03606  0.71376  0.11866  1.0000
  H   H805      1.0  0.04297  0.72394  0.08825  1.0000
  H   H806      1.0  0.32439  0.89642  0.22291  1.0000
  H   H807      1.0  0.02715  0.80118  0.06680  1.0000
  C   C799      1.0  0.09586  0.80204  0.04885  1.0000
  C   C800      1.0  0.09699  0.80713  0.03174  1.0000
  C   C801      1.0  0.08738  0.80164  0.02395  1.0000
  C   C802      1.0  0.07655  0.79106  0.03318  1.0000
  C   C803      1.0  0.07590  0.78554  0.05018  1.0000
  C   C804      1.0  0.08556  0.79095  0.05796  1.0000
  H   H808      1.0  0.10482  0.81575  0.02460  1.0000
  H   H809      1.0  0.08798  0.80596  0.01079  1.0000
  H   H810      1.0  0.06774  0.77732  0.05741  1.0000
  H   H811      1.0  0.08473  0.78685  0.07117  1.0000
  C   C805      1.0  0.27687  0.87333  0.98922  1.0000
  H   H812      1.0  0.06988  0.83508  0.05111  1.0000
  C   C806      1.0  0.20073  0.81102  0.00149  1.0000
  C   C807      1.0  0.20472  0.80507  0.01714  1.0000
  C   C808      1.0  0.22134  0.80103  0.01856  1.0000
  C   C809      1.0  0.23398  0.80272  0.00440  1.0000
  H   H813      1.0  0.19985  0.88483  0.00437  1.0000
  C   C810      1.0  0.28431  0.94250  0.06502  1.0000
  H   H814      1.0  0.22445  0.79663  0.03066  1.0000
  H   H815      1.0  0.18789  0.81426  0.00032  1.0000
  H   H816      1.0  0.35788  0.88499  0.18851  1.0000
  C   C811      1.0  0.19456  0.90380  0.09952  1.0000
  C   C812      1.0  0.20526  0.89503  0.99647  1.0000
  C   C813      1.0  0.12070  0.88389  0.99708  1.0000
  H   H817      1.0  0.01514  0.73850  0.12452  1.0000
  C   C814      1.0  0.24650  0.94490  0.08919  1.0000
  C   C815      1.0  0.25264  0.93006  0.09940  1.0000
  C   C816      1.0  0.26030  0.93030  0.11210  1.0000
  C   C817      1.0  0.26228  0.94528  0.11459  1.0000
  C   C818      1.0  0.25609  0.96011  0.10440  1.0000
  C   C819      1.0  0.24812  0.95991  0.09191  1.0000
  H   H818      1.0  0.25140  0.91841  0.09762  1.0000
  H   H819      1.0  0.26495  0.91875  0.11995  1.0000
  H   H820      1.0  0.25739  0.97175  0.10619  1.0000
  H   H821      1.0  0.24332  0.97148  0.08419  1.0000
  C   C820      1.0  0.18908  0.87769  0.06111  1.0000
  C   C821      1.0  0.18541  0.89012  0.04749  1.0000
  C   C822      1.0  0.17289  0.88978  0.03970  1.0000
  C   C823      1.0  0.16430  0.87673  0.04516  1.0000
  C   C824      1.0  0.16840  0.86399  0.05840  1.0000
  C   C825      1.0  0.18055  0.86462  0.06651  1.0000
  H   H822      1.0  0.19189  0.90027  0.04322  1.0000
  H   H823      1.0  0.16982  0.89970  0.02947  1.0000
  H   H824      1.0  0.16177  0.85396  0.06282  1.0000
  H   H825      1.0  0.18327  0.85497  0.07707  1.0000
  C   C826      1.0  0.28213  0.86170  0.03942  1.0000
  C   C827      1.0  0.29403  0.85363  0.02782  1.0000
  C   C828      1.0  0.29193  0.83898  0.02487  1.0000
  C   C829      1.0  0.27826  0.83211  0.03399  1.0000
  C   C830      1.0  0.26666  0.83991  0.04593  1.0000
  C   C831      1.0  0.26841  0.85488  0.04840  1.0000
  H   H826      1.0  0.30462  0.85894  0.02081  1.0000
  H   H827      1.0  0.30098  0.83291  0.01572  1.0000
  H   H828      1.0  0.25612  0.83456  0.05305  1.0000
  H   H829      1.0  0.25919  0.86106  0.05740  1.0000
  N   N68       1.0  0.28804  0.92576  0.07092  1.0000
  C   C832      1.0  0.21227  0.90414  0.00335  1.0000
  C   C833      1.0  0.04011  0.81746  0.04707  1.0000
  H   H830      1.0  0.21225  0.90087  0.01642  1.0000
  N   N69       1.0  0.18459  0.91575  0.09021  1.0000
  H   H831      1.0  0.15880  0.77185  0.02128  1.0000
  N   N70       1.0  0.30220  0.77201  0.03211  1.0000
  C   C834      1.0  0.28590  0.77126  0.03877  1.0000
  C   C835      1.0  0.31145  0.76240  0.02107  1.0000
  C   C836      1.0  0.27855  0.76050  0.03457  1.0000
  C   C837      1.0  0.30449  0.75153  0.01657  1.0000
  C   C838      1.0  0.28794  0.75057  0.02339  1.0000
  C   C839      1.0  0.30969  0.78373  0.03607  1.0000
  H   H832      1.0  0.27836  0.77928  0.04710  1.0000
  H   H833      1.0  0.32420  0.76339  0.01533  1.0000
  H   H834      1.0  0.26553  0.76021  0.03961  1.0000
  H   H835      1.0  0.31181  0.74432  0.00741  1.0000
  H   H836      1.0  0.28231  0.74247  0.01969  1.0000
  H   H837      1.0  0.30198  0.78870  0.04705  1.0000
  H   H838      1.0  0.29883  0.95542  0.09191  1.0000
  H   H839      1.0  0.31077  0.79443  0.02548  1.0000
  S   S290      1.0  0.28153  0.78953  0.99682  1.0000
  C   C840      1.0  0.29564  0.98657  0.23279  1.0000
  C   C841      1.0  0.36075  0.96789  0.15561  1.0000
  H   H840      1.0  0.35221  0.96015  0.16316  1.0000
  H   H841      1.0  0.10855  0.88317  0.00488  1.0000
  C   C842      1.0  0.29676  0.97295  0.22595  1.0000
  C   C843      1.0  0.26547  0.90183  0.99124  1.0000
  C   C844      1.0  0.29559  0.91947  0.08419  1.0000
  H   H842      1.0  0.28504  0.96669  0.06783  1.0000
  C   C845      1.0  0.38001  0.98828  0.22107  1.0000
  S   S291      1.0  0.38923  0.90790  0.22298  1.0000
  C   C846      1.0  0.06005  0.82815  0.05455  1.0000
  C   C847      1.0  0.38213  0.98814  0.13598  1.0000
  H   H843      1.0  0.05564  0.83329  0.02984  1.0000
  N   N71       1.0  0.15308  0.78597  0.99814  1.0000
  C   C848      1.0  0.21343  0.81231  0.98727  1.0000
  H   H844      1.0  0.32220  0.77768  0.03871  1.0000
  H   H845      1.0  0.01640  0.72278  0.04061  1.0000
  H   H846      1.0  0.38581  0.95760  0.18062  1.0000
  H   H847      1.0  0.36455  0.95580  0.18572  1.0000
  H   H848      1.0  0.24351  0.85716  0.00169  1.0000
  S   S292      1.0  0.00877  0.77918  0.09302  1.0000
  H   H849      1.0  0.12750  0.89599  0.01260  1.0000
  H   H850      1.0  0.15204  0.90598  0.00647  1.0000
  C   C849      1.0  0.02553  0.68390  0.10630  1.0000
  N   N72       1.0  0.04443  0.80963  0.07495  1.0000
  C   C850      1.0  0.36966  0.87341  0.23127  1.0000
  Fe  Fe147     1.0  0.28571  0.97889  0.16656  1.0000
  H   H851      1.0  0.27756  0.94753  0.05504  1.0000
  N   N73       1.0  0.34905  0.88366  0.21445  1.0000
  H   H852      1.0  0.17642  0.91302  0.06991  1.0000
  C   C851      1.0  0.00715  0.71639  0.04010  1.0000
  C   C852      1.0  0.05211  0.82711  0.04262  1.0000
  C   C853      1.0  0.15846  0.89880  0.99667  1.0000
  H   H853      1.0  0.28614  0.91803  0.04987  1.0000
  C   C854      1.0  0.36111  0.88167  0.20059  1.0000
  H   H854      1.0  0.15997  0.91914  0.08679  1.0000
  H   H855      1.0  0.24673  0.79963  0.00568  1.0000
  H   H856      1.0  0.36969  0.97474  0.18652  1.0000
  H   H857      1.0  0.19793  0.84389  0.00471  1.0000
  C   C855      1.0  0.27403  0.88613  0.99755  1.0000
  N   N74       1.0  0.14702  0.89169  0.99180  1.0000
  C   C856      1.0  0.20645  0.90794  0.10544  1.0000
  C   C857      1.0  0.40012  0.97944  0.19200  1.0000
  C   C858      1.0  0.37779  0.87569  0.20174  1.0000
  H   H858      1.0  0.04377  0.78629  0.09120  1.0000
  C   C859      1.0  0.35999  0.97418  0.13895  1.0000
  H   H859      1.0  0.27856  0.88399  0.00880  1.0000
  C   C860      1.0  0.00025  0.72044  0.02612  1.0000
  N   N75       1.0  0.22103  0.85079  0.00143  1.0000
  C   C861      1.0  0.20651  0.84645  0.01061  1.0000
  C   C862      1.0  0.23194  0.85386  0.00893  1.0000
  C   C863      1.0  0.20257  0.84509  0.02776  1.0000
  C   C864      1.0  0.22835  0.85275  0.02604  1.0000
  C   C865      1.0  0.21358  0.84831  0.03549  1.0000
  C   C866      1.0  0.03632  0.80884  0.06342  1.0000
  H   H860      1.0  0.19958  0.94919  0.08889  1.0000
  Fe  Fe148     1.0  0.99776  0.67640  0.14266  1.0000
  H   H861      1.0  0.19112  0.84142  0.03503  1.0000
  H   H862      1.0  0.23700  0.85521  0.03198  1.0000
  H   H863      1.0  0.21071  0.84729  0.04879  1.0000
  H   H864      1.0  0.06297  0.81947  0.07968  1.0000
  H   H865      1.0  0.28380  0.86113  0.99386  1.0000
  H   H866      1.0  0.16452  0.90722  0.98591  1.0000
  H   H867      1.0  0.26316  0.91188  0.99764  1.0000
  C   C867      1.0  0.17248  0.91131  0.08358  1.0000
  H   H868      1.0  0.02873  0.68215  0.08098  1.0000
  H   H869      1.0  0.32774  0.97118  0.19844  1.0000
  H   H870      1.0  0.17149  0.89812  0.08850  1.0000
  H   H871      1.0  0.30516  0.92513  0.10271  1.0000
  S   S293      1.0  0.02035  0.68694  0.13840  1.0000
  H   H872      1.0  0.21745  0.92779  0.10604  1.0000
  H   H873      1.0  0.28893  0.90153  0.06734  1.0000
  C   C868      1.0  0.05610  0.81921  0.07075  1.0000
  C   C869      1.0  0.29981  0.93003  0.09176  1.0000
  H   H874      1.0  0.30221  0.96065  0.23190  1.0000
  H   H875      1.0  0.29799  0.90627  0.08930  1.0000
  C   C870      1.0  0.18689  0.78563  0.98774  1.0000
  C   C871      1.0  0.21884  0.91769  0.99341  1.0000
  H   H876      1.0  0.02735  0.80304  0.09725  1.0000
  H   H877      1.0  0.17859  0.94130  0.07877  1.0000
  C   C872      1.0  0.18619  0.93190  0.08650  1.0000
  H   H878      1.0  0.38846  0.96308  0.23278  1.0000
  H   H879      1.0  0.35094  0.97133  0.13379  1.0000
  C   C873      1.0  0.28846  0.95340  0.07221  1.0000
  C   C874      1.0  0.29623  0.94709  0.08570  1.0000
  C   C875      1.0  0.13150  0.89113  0.00138  1.0000
  C   C876      1.0  0.20812  0.92439  0.10176  1.0000
  C   C877      1.0  0.04078  0.79965  0.09170  1.0000
  C   C878      1.0  0.23010  0.80797  0.98871  1.0000
  C   C879      1.0  0.00209  0.70410  0.05344  1.0000
  C   C880      1.0  0.16359  0.77784  0.00873  1.0000
  H   H880      1.0  0.00392  0.73019  0.01582  1.0000
  C   C881      1.0  0.34224  0.96762  0.22374  1.0000
  C   C882      1.0  0.33160  0.88954  0.21304  1.0000
  Fe  Fe149     1.0  0.39703  0.92867  0.22838  1.0000
  S   S294      1.0  0.00719  0.74994  0.06496  1.0000
  H   H881      1.0  0.33042  0.89834  0.20105  1.0000
  H   H882      1.0  0.99958  0.74177  0.14284  1.0000
  S   S295      1.0  0.31255  0.97946  0.15690  1.0000
  H   H883      1.0  0.00744  0.70089  0.06435  1.0000
  H   H884      1.0  0.13137  0.78260  0.01714  1.0000
  H   H885      1.0  0.12804  0.79927  0.99995  1.0000
  H   H886      1.0  0.39130  0.98475  0.15799  1.0000
  C   C883      1.0  0.37298  0.96458  0.17963  1.0000
  Fe  Fe150     1.0  0.30584  0.98747  0.13218  1.0000
  C   C884      1.0  0.13518  0.78642  0.00348  1.0000
  N   N76       1.0  0.37208  0.97145  0.16222  1.0000
  H   H887      1.0  0.32598  0.87890  0.21400  1.0000
  H   H888      1.0  0.35570  0.96316  0.21919  1.0000
  H   H889      1.0  0.16821  0.88868  0.00163  1.0000
  C   C885      1.0  0.00318  0.73555  0.13218  1.0000
  C   C886      1.0  0.37082  0.98430  0.12908  1.0000
  H   H890      1.0  0.99897  0.71968  0.11116  1.0000
  C   C887      1.0  0.35312  0.87953  0.22967  1.0000
  H   H891      1.0  0.13158  0.77808  0.99762  1.0000
  C   C888      1.0  0.38204  0.87150  0.21720  1.0000
  C   C889      1.0  0.49345  0.70369  0.44157  1.0000
  H   H892      1.0  0.17415  0.72072  0.45888  1.0000
  Fe  Fe151     1.0  0.40578  0.68081  0.42233  1.0000
  S   S296      1.0  0.40417  0.69599  0.39692  1.0000
  H   H893      1.0  0.47262  0.76600  0.41758  1.0000
  Fe  Fe152     1.0  0.44088  0.68637  0.41979  1.0000
  S   S297      1.0  0.44201  0.70148  0.39410  1.0000
  S   S298      1.0  0.46251  0.67992  0.43263  1.0000
  Fe  Fe153     1.0  0.41577  0.71324  0.40385  1.0000
  S   S299      1.0  0.40977  0.74086  0.39689  1.0000
  Fe  Fe154     1.0  0.43039  0.68274  0.38983  1.0000
  S   S300      1.0  0.41519  0.69939  0.43013  1.0000
  Fe  Fe155     1.0  0.45172  0.77623  0.31504  1.0000
  S   S301      1.0  0.46605  0.78648  0.29008  1.0000
  S   S302      1.0  0.43162  0.76229  0.31944  1.0000
  C   C890      1.0  0.44437  0.75333  0.40469  1.0000
  C   C891      1.0  0.30020  0.94939  0.27747  1.0000
  Fe  Fe156     1.0  0.46588  0.80704  0.30210  1.0000
  S   S303      1.0  0.46241  0.83438  0.29094  1.0000
  H   H894      1.0  0.38883  0.97989  0.25413  1.0000
  S   S304      1.0  0.44970  0.79782  0.32623  1.0000
  S   S305      1.0  0.47408  0.76128  0.32480  1.0000
  H   H895      1.0  0.48643  0.72941  0.40532  1.0000
  H   H896      1.0  0.07029  0.72489  0.47924  1.0000
  S   S306      1.0  0.37763  0.92722  0.28911  1.0000
  C   C892      1.0  0.48891  0.71651  0.34064  1.0000
  H   H897      1.0  0.43502  0.88473  0.30846  1.0000
  C   C893      1.0  0.31295  0.93831  0.26952  1.0000
  H   H898      1.0  0.43310  0.72948  0.45475  1.0000
  C   C894      1.0  0.37510  0.94887  0.28446  1.0000
  C   C895      1.0  0.38461  0.95663  0.27003  1.0000
  C   C896      1.0  0.48735  0.81922  0.25731  1.0000
  H   H899      1.0  0.44175  0.71404  0.44213  1.0000
  H   H900      1.0  0.48054  0.71408  0.29734  1.0000
  C   C897      1.0  0.36265  0.95847  0.29436  1.0000
  H   H901      1.0  0.39438  0.94928  0.26244  1.0000
  C   C898      1.0  0.31847  0.95285  0.29248  1.0000
  H   H902      1.0  0.45287  0.73224  0.36396  1.0000
  H   H903      1.0  0.35542  0.95252  0.30564  1.0000
  C   C899      1.0  0.44799  0.84258  0.27804  1.0000
  C   C900      1.0  0.44450  0.85969  0.27184  1.0000
  C   C901      1.0  0.43220  0.86674  0.26245  1.0000
  C   C902      1.0  0.42360  0.85665  0.25894  1.0000
  C   C903      1.0  0.42743  0.83946  0.26475  1.0000
  C   C904      1.0  0.43957  0.83242  0.27438  1.0000
  H   H904      1.0  0.45112  0.86757  0.27453  1.0000
  H   H905      1.0  0.45494  0.72315  0.33250  1.0000
  H   H906      1.0  0.42082  0.83160  0.26201  1.0000
  H   H907      1.0  0.44220  0.81919  0.27914  1.0000
  C   C905      1.0  0.41498  0.74698  0.37532  1.0000
  C   C906      1.0  0.41668  0.73591  0.36520  1.0000
  C   C907      1.0  0.42121  0.74083  0.34796  1.0000
  C   C908      1.0  0.42462  0.75661  0.34087  1.0000
  C   C909      1.0  0.42303  0.76760  0.35103  1.0000
  C   C910      1.0  0.41800  0.76288  0.36821  1.0000
  H   H908      1.0  0.41430  0.72363  0.37061  1.0000
  H   H909      1.0  0.42232  0.73232  0.34014  1.0000
  H   H910      1.0  0.42531  0.77989  0.34564  1.0000
  H   H911      1.0  0.41659  0.77152  0.37597  1.0000
  C   C911      1.0  0.47514  0.69413  0.43016  1.0000
  H   H912      1.0  0.20384  0.69205  0.46148  1.0000
  C   C912      1.0  0.41278  0.88981  0.29888  1.0000
  C   C913      1.0  0.47673  0.73620  0.36401  1.0000
  Fe  Fe157     1.0  0.39768  0.89257  0.24595  1.0000
  C   C914      1.0  0.40254  0.86568  0.29994  1.0000
  H   H913      1.0  0.37293  0.87031  0.24332  1.0000
  C   C915      1.0  0.42575  0.87950  0.30613  1.0000
  C   C916      1.0  0.36571  0.67655  0.41517  1.0000
  C   C917      1.0  0.35279  0.67538  0.40840  1.0000
  H   H914      1.0  0.37149  0.68715  0.41044  1.0000
  H   H915      1.0  0.34891  0.68500  0.39828  1.0000
  C   C918      1.0  0.44423  0.72449  0.44598  1.0000
  C   C919      1.0  0.46612  0.72935  0.35896  1.0000
  H   H916      1.0  0.34362  0.93882  0.28780  1.0000
  C   C920      1.0  0.38110  0.66813  0.37134  1.0000
  C   C921      1.0  0.28963  0.96874  0.29622  1.0000
  H   H917      1.0  0.45480  0.71915  0.45243  1.0000
  N   N77       1.0  0.47230  0.71952  0.34752  1.0000
  S   S307      1.0  0.15533  0.67297  0.45141  1.0000
  N   N78       1.0  0.17964  0.69830  0.47618  1.0000
  C   C922      1.0  0.45863  0.66073  0.36690  1.0000
  H   H918      1.0  0.41171  0.90317  0.29565  1.0000
  C   C923      1.0  0.17237  0.70778  0.46190  1.0000
  Fe  Fe158     1.0  0.14644  0.66996  0.47885  1.0000
  H   H919      1.0  0.28660  0.97998  0.28658  1.0000
  C   C924      1.0  0.47637  0.70736  0.41651  1.0000
  H   H920      1.0  0.33869  0.92596  0.26719  1.0000
  H   H921      1.0  0.48322  0.68189  0.45297  1.0000
  H   H922      1.0  0.15886  0.70789  0.46440  1.0000
  Fe  Fe159     1.0  0.18019  0.66064  0.45730  1.0000
  C   C925      1.0  0.40108  0.88288  0.29580  1.0000
  C   C926      1.0  0.48406  0.69212  0.44242  1.0000
  H   H923      1.0  0.48316  0.74323  0.29311  1.0000
  H   H924      1.0  0.32092  0.95867  0.30119  1.0000
  S   S308      1.0  0.38683  0.66540  0.43728  1.0000
  C   C927      1.0  0.33143  0.94168  0.28489  1.0000
  H   H925      1.0  0.45096  0.70902  0.35227  1.0000
  H   H926      1.0  0.46733  0.70239  0.33600  1.0000
  H   H927      1.0  0.47666  0.82900  0.25502  1.0000
  H   H928      1.0  0.34923  0.98318  0.29674  1.0000
  S   S309      1.0  0.40827  0.91249  0.24977  1.0000
  H   H929      1.0  0.46969  0.70891  0.40688  1.0000
  S   S310      1.0  0.47698  0.77904  0.35993  1.0000
  S   S311      1.0  0.30330  0.98308  0.25102  1.0000
  H   H930      1.0  0.29308  0.97268  0.30605  1.0000
  Fe  Fe160     1.0  0.38279  0.91974  0.26484  1.0000
  C   C928      1.0  0.46084  0.71321  0.34178  1.0000
  H   H931      1.0  0.39093  0.89085  0.29026  1.0000
  S   S312      1.0  0.37231  0.93736  0.24395  1.0000
  C   C929      1.0  0.42676  0.86235  0.31028  1.0000
  C   C930      1.0  0.41614  0.83774  0.31202  1.0000
  H   H932      1.0  0.43699  0.85438  0.31575  1.0000
  H   H933      1.0  0.41180  0.83324  0.30314  1.0000
  H   H934      1.0  0.42912  0.83084  0.31218  1.0000
  H   H935      1.0  0.40841  0.83465  0.32457  1.0000
  S   S313      1.0  0.37291  0.89880  0.26263  1.0000
  C   C931      1.0  0.19612  0.69084  0.47382  1.0000
  C   C932      1.0  0.47143  0.66238  0.35299  1.0000
  H   H936      1.0  0.43835  0.75582  0.39432  1.0000
  C   C933      1.0  0.49241  0.71678  0.29677  1.0000
  C   C934      1.0  0.45587  0.76250  0.40432  1.0000
  H   H937      1.0  0.34026  0.96953  0.23655  1.0000
  Fe  Fe161     1.0  0.47354  0.78362  0.33388  1.0000
  H   H938      1.0  0.28820  0.95286  0.27399  1.0000
  S   S314      1.0  0.43898  0.67341  0.36633  1.0000
  C   C935      1.0  0.44067  0.74089  0.41854  1.0000
  C   C936      1.0  0.45921  0.74685  0.43157  1.0000
  N   N79       1.0  0.30307  0.95656  0.28872  1.0000
  H   H939      1.0  0.31080  0.93308  0.26019  1.0000
  H   H940      1.0  0.46536  0.74422  0.44187  1.0000
  H   H941      1.0  0.42950  0.87996  0.25781  1.0000
  C   C937      1.0  0.23587  0.66282  0.44032  1.0000
  S   S315      1.0  0.43152  0.66634  0.41473  1.0000
  H   H942      1.0  0.48335  0.66231  0.40243  1.0000
  H   H943      1.0  0.35842  0.66212  0.37010  1.0000
  C   C938      1.0  0.46336  0.75925  0.41784  1.0000
  H   H944      1.0  0.23644  0.67295  0.42965  1.0000
  Fe  Fe162     1.0  0.48838  0.77326  0.30105  1.0000
  C   C939      1.0  0.32864  0.93443  0.27333  1.0000
  H   H945      1.0  0.43175  0.73378  0.41872  1.0000
  H   H946      1.0  0.34360  0.88126  0.24065  1.0000
  C   C940      1.0  0.38143  0.97396  0.26528  1.0000
  N   N80       1.0  0.44827  0.73761  0.43162  1.0000
  H   H947      1.0  0.45899  0.77207  0.39358  1.0000
  H   H948      1.0  0.19845  0.65790  0.40631  1.0000
  N   N81       1.0  0.41529  0.85566  0.30705  1.0000
  S   S316      1.0  0.20247  0.67058  0.44228  1.0000
  C   C941      1.0  0.37075  0.66426  0.42834  1.0000
  H   H949      1.0  0.39347  0.86040  0.29732  1.0000
  H   H950      1.0  0.37955  0.67972  0.36236  1.0000
  C   C942      1.0  0.34498  0.66179  0.41451  1.0000
  C   C943      1.0  0.48599  0.71885  0.41556  1.0000
  C   C944      1.0  0.22054  0.65922  0.44921  1.0000
  C   C945      1.0  0.35905  0.97579  0.28925  1.0000
  C   C946      1.0  0.49516  0.65682  0.40687  1.0000
  S   S317      1.0  0.40786  0.86527  0.24756  1.0000
  C   C947      1.0  0.36934  0.65821  0.37555  1.0000
  S   S318      1.0  0.32978  0.66014  0.40468  1.0000
  Fe  Fe163     1.0  0.36518  0.91569  0.23995  1.0000
  H   H951      1.0  0.49252  0.76571  0.38785  1.0000
  C   C948      1.0  0.36824  0.98352  0.27453  1.0000
  H   H952      1.0  0.26235  0.65595  0.43800  1.0000
  C   C949      1.0  0.49388  0.73326  0.29442  1.0000
  H   H953      1.0  0.47179  0.74431  0.37278  1.0000
  H   H954      1.0  0.27834  0.96347  0.30183  1.0000
  H   H955      1.0  0.17819  0.70206  0.45092  1.0000
  H   H956      1.0  0.46899  0.67086  0.34164  1.0000
  C   C950      1.0  0.48973  0.80414  0.25263  1.0000
  H   H957      1.0  0.40363  0.67110  0.37595  1.0000
  S   S319      1.0  0.33962  0.91992  0.23501  1.0000
  C   C951      1.0  0.49368  0.73321  0.35705  1.0000
  S   S320      1.0  0.48970  0.79474  0.31069  1.0000
  H   H958      1.0  0.48070  0.80234  0.24672  1.0000
  C   C952      1.0  0.39464  0.66322  0.37914  1.0000
  H   H959      1.0  0.09180  0.69879  0.48176  1.0000
  H   H960      1.0  0.49377  0.70903  0.33131  1.0000
  C   C953      1.0  0.49423  0.71726  0.42831  1.0000
  H   H961      1.0  0.49641  0.83285  0.26977  1.0000
  H   H962      1.0  0.48394  0.65995  0.30429  1.0000
  H   H963      1.0  0.49547  0.76891  0.26025  1.0000
  Fe  Fe164     1.0  0.02430  0.73091  0.54215  1.0000
  S   S321      1.0  0.01695  0.74783  0.56002  1.0000
  S   S322      1.0  0.01083  0.73025  0.52319  1.0000
  Fe  Fe165     1.0  0.05568  0.71195  0.55433  1.0000
  S   S323      1.0  0.05150  0.72714  0.57336  1.0000
  S   S324      1.0  0.07596  0.68915  0.55228  1.0000
  Fe  Fe166     1.0  0.02501  0.72499  0.57843  1.0000
  S   S325      1.0  0.01042  0.72258  0.60446  1.0000
  Fe  Fe167     1.0  0.04389  0.74876  0.55365  1.0000
  S   S326      1.0  0.05142  0.77270  0.55050  1.0000
  S   S327      1.0  0.02960  0.70782  0.56119  1.0000
  S   S328      1.0  0.05071  0.73392  0.53388  1.0000
  C   C954      1.0  0.00676  0.70264  0.61325  1.0000
  S   S329      1.0  0.03642  0.94356  0.71757  1.0000
  S   S330      1.0  0.03592  0.79843  0.61680  1.0000
  N   N82       1.0  0.06236  0.68771  0.51514  1.0000
  H   H964      1.0  0.04257  0.72410  0.61027  1.0000
  C   C955      1.0  0.00373  0.83079  0.69599  1.0000
  Fe  Fe168     1.0  0.15996  0.95548  0.67339  1.0000
  C   C956      1.0  0.07688  0.68637  0.50358  1.0000
  S   S331      1.0  0.17058  0.93208  0.68973  1.0000
  H   H965      1.0  0.03500  0.85255  0.68519  1.0000
  S   S332      1.0  0.10398  0.96895  0.65934  1.0000
  S   S333      1.0  0.15313  0.95444  0.65023  1.0000
  Fe  Fe169     1.0  0.04053  0.88281  0.71427  1.0000
  S   S334      1.0  0.06659  0.87002  0.71711  1.0000
  S   S335      1.0  0.02075  0.86880  0.71457  1.0000
  H   H966      1.0  0.13943  0.92300  0.72398  1.0000
  S   S336      1.0  0.13553  0.97094  0.68277  1.0000
  Fe  Fe170     1.0  0.07383  0.89331  0.70077  1.0000
  S   S337      1.0  0.09715  0.89410  0.68134  1.0000
  N   N83       1.0  0.20476  0.94113  0.65153  1.0000
  S   S338      1.0  0.04818  0.90533  0.69625  1.0000
  C   C957      1.0  0.10204  0.94817  0.66435  1.0000
  C   C958      1.0  0.08696  0.94407  0.67346  1.0000
  C   C959      1.0  0.08543  0.92749  0.67847  1.0000
  C   C960      1.0  0.09885  0.91490  0.67408  1.0000
  C   C961      1.0  0.11385  0.91897  0.66460  1.0000
  C   C962      1.0  0.11547  0.93560  0.65982  1.0000
  H   H967      1.0  0.07644  0.95361  0.67691  1.0000
  H   H968      1.0  0.07379  0.92452  0.68571  1.0000
  H   H969      1.0  0.12423  0.90928  0.66109  1.0000
  H   H970      1.0  0.12701  0.93866  0.65241  1.0000
  C   C963      1.0  0.21330  0.96598  0.63474  1.0000
  C   C964      1.0  0.16640  0.95186  0.71164  1.0000
  C   C965      1.0  0.16973  0.93567  0.70921  1.0000
  H   H971      1.0  0.05149  0.67797  0.54004  1.0000
  H   H972      1.0  0.19856  0.67190  0.51357  1.0000
  H   H973      1.0  0.16504  0.96227  0.70135  1.0000
  C   C966      1.0  0.01815  0.83661  0.68684  1.0000
  C   C967      1.0  0.00996  0.81104  0.56241  1.0000
  C   C968      1.0  0.01481  0.68939  0.60540  1.0000
  H   H974      1.0  0.04054  0.97471  0.69063  1.0000
  C   C969      1.0  0.01485  0.85444  0.70637  1.0000
  Fe  Fe171     1.0  0.04581  0.91607  0.71839  1.0000
  S   S339      1.0  0.17259  0.97685  0.66157  1.0000
  C   C970      1.0  0.03603  0.74462  0.64065  1.0000
  H   H975      1.0  0.02091  0.80854  0.56761  1.0000
  H   H976      1.0  0.04348  0.72671  0.49980  1.0000
  N   N84       1.0  0.03479  0.73332  0.63251  1.0000
  C   C971      1.0  0.09214  0.69057  0.53475  1.0000
  C   C972      1.0  0.10318  0.67609  0.53093  1.0000
  C   C973      1.0  0.04398  0.73268  0.61692  1.0000
  C   C974      1.0  0.11663  0.69206  0.50551  1.0000
  C   C975      1.0  0.10596  0.70657  0.50960  1.0000
  C   C976      1.0  0.09367  0.70583  0.52414  1.0000
  H   H977      1.0  0.03545  0.81929  0.72205  1.0000
  H   H978      1.0  0.20440  0.94939  0.62580  1.0000
  H   H979      1.0  0.08540  0.71707  0.52712  1.0000
  C   C977      1.0  0.04672  0.77951  0.56914  1.0000
  C   C978      1.0  0.05494  0.79114  0.57042  1.0000
  C   C979      1.0  0.05131  0.79695  0.58506  1.0000
  C   C980      1.0  0.03911  0.79154  0.59839  1.0000
  C   C981      1.0  0.03053  0.78019  0.59703  1.0000
  C   C982      1.0  0.03453  0.77395  0.58249  1.0000
  H   H980      1.0  0.06432  0.79549  0.56013  1.0000
  H   H981      1.0  0.05802  0.80566  0.58607  1.0000
  H   H982      1.0  0.02125  0.77578  0.60734  1.0000
  H   H983      1.0  0.02811  0.76495  0.58159  1.0000
  H   H984      1.0  0.01534  0.66419  0.60465  1.0000
  H   H985      1.0  0.21563  0.96152  0.67476  1.0000
  H   H986      1.0  0.10084  0.97487  0.72478  1.0000
  Fe  Fe172     1.0  0.01336  0.79456  0.63664  1.0000
  H   H987      1.0  0.02470  0.69092  0.59467  1.0000
  C   C983      1.0  0.05929  0.67362  0.52875  1.0000
  C   C984      1.0  0.02383  0.84826  0.69215  1.0000
  H   H988      1.0  0.10212  0.66427  0.53921  1.0000
  C   C985      1.0  0.12400  0.92813  0.69908  1.0000
  C   C986      1.0  0.12410  0.89857  0.70937  1.0000
  H   H989      1.0  0.22080  0.98069  0.64735  1.0000
  C   C987      1.0  0.16500  0.95465  0.72742  1.0000
  C   C988      1.0  0.05036  0.70188  0.51367  1.0000
  H   H990      1.0  0.21511  0.97444  0.62281  1.0000
  H   H991      1.0  0.10698  0.71842  0.50136  1.0000
  C   C989      1.0  0.20730  0.95173  0.63650  1.0000
  H   H992      1.0  0.08638  0.67512  0.50467  1.0000
  H   H993      1.0  0.02841  0.74546  0.65282  1.0000
  C   C990      1.0  0.05908  0.81982  0.72651  1.0000
  H   H994      1.0  0.06146  0.95873  0.72162  1.0000
  N   N85       1.0  0.12803  0.91256  0.71087  1.0000
  H   H995      1.0  0.02235  0.71841  0.65375  1.0000
  C   C991      1.0  0.99827  0.82578  0.56333  1.0000
  H   H996      1.0  0.02619  0.71120  0.63495  1.0000
  H   H997      1.0  0.18458  0.93013  0.65351  1.0000
  Fe  Fe173     1.0  0.16360  0.97733  0.63899  1.0000
  H   H998      1.0  0.04770  0.76462  0.63960  1.0000
  C   C992      1.0  0.19815  0.92646  0.65307  1.0000
  C   C993      1.0  0.20763  0.94456  0.66517  1.0000
  H   H999      1.0  0.07689  0.97821  0.68678  1.0000
  C   C994      1.0  0.05515  0.74320  0.60926  1.0000
  C   C995      1.0  0.04701  0.75538  0.63333  1.0000
  H   H1000     1.0  0.01029  0.72931  0.63821  1.0000
  C   C996      1.0  0.02287  0.72250  0.64022  1.0000
  H   H1001     1.0  0.21608  0.67475  0.48512  1.0000
  S   S340      1.0  0.17946  0.97831  0.61332  1.0000
  H   H1002     1.0  0.20427  0.92034  0.64244  1.0000
  C   C997      1.0  0.17671  0.68784  0.50550  1.0000
  C   C998      1.0  0.05101  0.95995  0.73189  1.0000
  C   C999      1.0  0.05670  0.75455  0.61759  1.0000
  H   H1003     1.0  0.00201  0.78239  0.53591  1.0000
  C   C1000     1.0  0.03785  0.95213  0.73368  1.0000
  H   H1004     1.0  0.20501  0.93650  0.67723  1.0000
  H   H1005     1.0  0.15707  0.70349  0.49374  1.0000
  C   C1001     1.0  0.19333  0.67957  0.50311  1.0000
  H   H1006     1.0  0.06488  0.76319  0.61160  1.0000
  C   C1002     1.0  0.11537  0.67680  0.51626  1.0000
  C   C1003     1.0  0.05299  0.71542  0.50071  1.0000
  C   C1004     1.0  0.06753  0.98806  0.68093  1.0000
  C   C1005     1.0  0.21647  0.96948  0.64852  1.0000
  H   H1007     1.0  0.12366  0.66557  0.51323  1.0000
  H   H1008     1.0  0.01631  0.78786  0.55463  1.0000
  H   H1009     1.0  0.16276  0.96715  0.72920  1.0000
  H   H1010     1.0  0.06221  0.74290  0.59677  1.0000
  C   C1006     1.0  0.00965  0.67421  0.61116  1.0000
  Fe  Fe174     1.0  0.12960  0.97182  0.65855  1.0000
  H   H1011     1.0  0.20011  0.91719  0.66459  1.0000
  H   H1012     1.0  0.06453  0.98356  0.67120  1.0000
  H   H1013     1.0  0.02501  0.83201  0.67585  1.0000
  C   C1007     1.0  0.12828  0.88344  0.72014  1.0000
  S   S341      1.0  0.01597  0.78143  0.66251  1.0000
  H   H1014     1.0  0.11767  0.89905  0.69982  1.0000
  C   C1008     1.0  0.07998  0.69971  0.49052  1.0000
  C   C1009     1.0  0.02604  0.98785  0.70957  1.0000
  H   H1015     1.0  0.01616  0.98103  0.71269  1.0000
  H   H1016     1.0  0.12487  0.87245  0.71906  1.0000
  H   H1017     1.0  0.19883  0.98822  0.58110  1.0000
  C   C1010     1.0  0.17006  0.69730  0.49181  1.0000
  S   S342      1.0  0.13091  0.69343  0.48655  1.0000
  H   H1018     1.0  0.05299  0.66570  0.52513  1.0000
  H   H1019     1.0  0.03873  0.70285  0.52266  1.0000
  H   H1020     1.0  0.11144  0.92979  0.69659  1.0000
  H   H1021     1.0  0.17451  0.90973  0.72068  1.0000
  C   C1011     1.0  0.17174  0.92228  0.72256  1.0000
  S   S343      1.0  0.07195  0.90546  0.72159  1.0000
  C   C1012     1.0  0.21361  0.95872  0.66386  1.0000
  H   H1022     1.0  0.00006  0.83471  0.56935  1.0000
  H   H1023     1.0  0.16891  0.68668  0.51780  1.0000
  H   H1024     1.0  0.06628  0.81199  0.71789  1.0000
  C   C1013     1.0  0.00731  0.79943  0.55501  1.0000
  C   C1014     1.0  0.04181  0.82384  0.72888  1.0000
  C   C1015     1.0  0.00042  0.84870  0.71516  1.0000
  H   H1025     1.0  0.13330  0.92806  0.68727  1.0000
  C   C1016     1.0  0.03991  0.98431  0.69708  1.0000
  C   C1017     1.0  0.20315  0.68116  0.48718  1.0000
  H   H1026     1.0  0.12406  0.93903  0.70382  1.0000
  C   C1018     1.0  0.13631  0.91191  0.72281  1.0000
  H   H1027     1.0  0.07110  0.66613  0.53232  1.0000
  C   C1019     1.0  0.06797  0.71436  0.48917  1.0000
  C   C1020     1.0  0.11932  0.98671  0.72715  1.0000
  C   C1021     1.0  0.13684  0.88264  0.73228  1.0000
  H   H1028     1.0  0.08047  0.82317  0.73331  1.0000
  C   C1022     1.0  0.14091  0.89695  0.73364  1.0000
  C   C1023     1.0  0.10907  0.97515  0.73242  1.0000
  S   S344      1.0  0.17181  0.65942  0.48451  1.0000
  Fe  Fe175     1.0  0.39435  0.74144  0.90488  1.0000
  S   S345      1.0  0.41170  0.75328  0.88311  1.0000
  S   S346      1.0  0.36795  0.75611  0.90917  1.0000
  Fe  Fe176     1.0  0.42045  0.71015  0.91148  1.0000
  S   S347      1.0  0.43966  0.71940  0.89031  1.0000
  S   S348      1.0  0.42589  0.68510  0.92819  1.0000
  Fe  Fe177     1.0  0.43059  0.74322  0.89902  1.0000
  S   S349      1.0  0.45118  0.75536  0.89839  1.0000
  Fe  Fe178     1.0  0.41931  0.72853  0.87618  1.0000
  S   S350      1.0  0.42695  0.72767  0.84924  1.0000
  S   S351      1.0  0.41278  0.73342  0.92158  1.0000
  S   S352      1.0  0.40052  0.71722  0.89660  1.0000
  C   C1024     1.0  0.48482  0.72767  0.91193  1.0000
  H   H1029     1.0  0.01369  0.94873  0.74784  1.0000
  Fe  Fe179     1.0  0.06217  0.88352  0.73760  1.0000
  C   C1025     1.0  0.15222  0.88502  0.97797  1.0000
  H   H1030     1.0  0.26702  0.89747  0.94251  1.0000
  S   S353      1.0  0.47454  0.78553  0.82287  1.0000
  Fe  Fe180     1.0  0.19635  0.89791  0.90858  1.0000
  S   S354      1.0  0.21661  0.87751  0.90011  1.0000
  S   S355      1.0  0.18125  0.91508  0.89019  1.0000
  Fe  Fe181     1.0  0.20250  0.88714  0.94422  1.0000
  S   S356      1.0  0.22282  0.86568  0.93816  1.0000
  C   C1026     1.0  0.44669  0.67155  0.88050  1.0000
  Fe  Fe182     1.0  0.23108  0.88379  0.91513  1.0000
  S   S357      1.0  0.25693  0.88795  0.90397  1.0000
  Fe  Fe183     1.0  0.20612  0.86178  0.92385  1.0000
  S   S358      1.0  0.19873  0.83847  0.92416  1.0000
  S   S359      1.0  0.21169  0.90569  0.92199  1.0000
  S   S360      1.0  0.18491  0.88180  0.93165  1.0000
  H   H1031     1.0  0.15079  0.80025  0.97410  1.0000
  H   H1032     1.0  0.25250  0.88399  0.95216  1.0000
  N   N86       1.0  0.12954  0.98736  0.73682  1.0000
  C   C1027     1.0  0.03080  0.85240  0.75829  1.0000
  C   C1028     1.0  0.16934  0.84948  0.87801  1.0000
  Fe  Fe184     1.0  0.29691  0.82802  0.96862  1.0000
  S   S361      1.0  0.30613  0.84999  0.95179  1.0000
  C   C1029     1.0  0.49326  0.72105  0.82946  1.0000
  S   S362      1.0  0.29499  0.80723  0.95833  1.0000
  Fe  Fe185     1.0  0.15677  0.90004  0.81333  1.0000
  S   S363      1.0  0.13212  0.89365  0.81568  1.0000
  S   S364      1.0  0.17276  0.88629  0.83218  1.0000
  Fe  Fe186     1.0  0.15397  0.92495  0.78091  1.0000
  S   S365      1.0  0.12927  0.92071  0.78061  1.0000
  S   S366      1.0  0.16336  0.94514  0.76074  1.0000
  Fe  Fe187     1.0  0.12351  0.92100  0.80756  1.0000
  S   S367      1.0  0.09832  0.93537  0.81661  1.0000
  Fe  Fe188     1.0  0.14006  0.89393  0.78848  1.0000
  S   S368      1.0  0.13627  0.87460  0.77706  1.0000
  S   S369      1.0  0.14736  0.92752  0.80740  1.0000
  S   S370      1.0  0.16561  0.89791  0.78659  1.0000
  C   C1030     1.0  0.08943  0.89983  0.80398  1.0000
  S   S371      1.0  0.06886  0.87003  0.76210  1.0000
  C   C1031     1.0  0.44672  0.67533  0.92842  1.0000
  H   H1033     1.0  0.45579  0.69646  0.85490  1.0000
  H   H1034     1.0  0.12370  0.98379  0.79324  1.0000
  H   H1035     1.0  0.48134  0.72735  0.90040  1.0000
  C   C1032     1.0  0.49436  0.70316  0.77979  1.0000
  C   C1033     1.0  0.05307  0.92601  0.77548  1.0000
  C   C1034     1.0  0.05756  0.83660  0.74581  1.0000
  C   C1035     1.0  0.49135  0.71744  0.84662  1.0000
  C   C1036     1.0  0.13802  0.88933  0.87256  1.0000
  H   H1036     1.0  0.11790  0.87094  0.97978  1.0000
  C   C1037     1.0  0.09842  0.95589  0.80607  1.0000
  C   C1038     1.0  0.11211  0.96279  0.80442  1.0000
  H   H1037     1.0  0.01934  0.83767  0.74120  1.0000
  H   H1038     1.0  0.08136  0.93234  0.79340  1.0000
  H   H1039     1.0  0.08885  0.88655  0.80875  1.0000
  C   C1039     1.0  0.08558  0.96486  0.79792  1.0000
  H   H1040     1.0  0.12193  0.95605  0.81091  1.0000
  H   H1041     1.0  0.48323  0.72827  0.76973  1.0000
  H   H1042     1.0  0.06009  0.97656  0.74100  1.0000
  H   H1043     1.0  0.07494  0.95966  0.79914  1.0000
  C   C1040     1.0  0.11658  0.87466  0.77407  1.0000
  C   C1041     1.0  0.11071  0.85993  0.77973  1.0000
  C   C1042     1.0  0.09604  0.85878  0.77604  1.0000
  C   C1043     1.0  0.08750  0.87206  0.76592  1.0000
  C   C1044     1.0  0.09338  0.88686  0.76003  1.0000
  C   C1045     1.0  0.10767  0.88831  0.76450  1.0000
  H   H1044     1.0  0.11762  0.84929  0.78695  1.0000
  H   H1045     1.0  0.09153  0.84737  0.78073  1.0000
  H   H1046     1.0  0.17048  0.86339  0.91134  1.0000
  H   H1047     1.0  0.11214  0.89973  0.76003  1.0000
  H   H1048     1.0  0.22546  0.88865  0.83408  1.0000
  N   N87       1.0  0.15052  0.87571  0.87935  1.0000
  H   H1049     1.0  0.40795  0.67557  0.86028  1.0000
  C   C1046     1.0  0.17906  0.90727  0.87382  1.0000
  C   C1047     1.0  0.16938  0.91733  0.86247  1.0000
  C   C1048     1.0  0.16759  0.91129  0.84932  1.0000
  C   C1049     1.0  0.17562  0.89519  0.84739  1.0000
  C   C1050     1.0  0.18560  0.88535  0.85848  1.0000
  C   C1051     1.0  0.18712  0.89126  0.87172  1.0000
  H   H1050     1.0  0.16313  0.92978  0.86391  1.0000
  H   H1051     1.0  0.15985  0.91902  0.84082  1.0000
  H   H1052     1.0  0.19190  0.87290  0.85705  1.0000
  H   H1053     1.0  0.19444  0.88327  0.88036  1.0000
  C   C1052     1.0  0.18225  0.83633  0.94112  1.0000
  N   N88       1.0  0.46687  0.74010  0.83162  1.0000
  C   C1053     1.0  0.16840  0.83131  0.93974  1.0000
  C   C1054     1.0  0.15444  0.83133  0.95272  1.0000
  H   H1054     1.0  0.16826  0.82791  0.92848  1.0000
  C   C1055     1.0  0.27120  0.87651  0.91639  1.0000
  C   C1056     1.0  0.28557  0.88216  0.91515  1.0000
  C   C1057     1.0  0.29646  0.87383  0.92587  1.0000
  C   C1058     1.0  0.29312  0.85970  0.93768  1.0000
  C   C1059     1.0  0.27905  0.85372  0.93857  1.0000
  C   C1060     1.0  0.26811  0.86213  0.92794  1.0000
  H   H1055     1.0  0.28807  0.89322  0.90616  1.0000
  H   H1056     1.0  0.30736  0.87846  0.92511  1.0000
  H   H1057     1.0  0.27647  0.84268  0.94749  1.0000
  H   H1058     1.0  0.25742  0.85731  0.92854  1.0000
  H   H1059     1.0  0.08670  0.89728  0.75241  1.0000
  C   C1061     1.0  0.46537  0.69139  0.95122  1.0000
  C   C1062     1.0  0.21186  0.91257  0.96951  1.0000
  C   C1063     1.0  0.16672  0.86302  0.90027  1.0000
  H   H1060     1.0  0.21156  0.91600  0.95648  1.0000
  H   H1061     1.0  0.14016  0.89098  0.85888  1.0000
  H   H1062     1.0  0.21037  0.81659  0.97514  1.0000
  C   C1064     1.0  0.20515  0.89914  0.97952  1.0000
  C   C1065     1.0  0.02411  0.95428  0.74664  1.0000
  C   C1066     1.0  0.35684  0.75864  0.92907  1.0000
  C   C1067     1.0  0.36433  0.75297  0.94280  1.0000
  C   C1068     1.0  0.35528  0.75610  0.95832  1.0000
  C   C1069     1.0  0.33884  0.76509  0.96010  1.0000
  C   C1070     1.0  0.33135  0.77071  0.94638  1.0000
  C   C1071     1.0  0.34029  0.76734  0.93096  1.0000
  H   H1063     1.0  0.37707  0.74622  0.94145  1.0000
  H   H1064     1.0  0.36111  0.75167  0.96892  1.0000
  H   H1065     1.0  0.31861  0.77740  0.94768  1.0000
  H   H1066     1.0  0.33441  0.77163  0.92039  1.0000
  C   C1072     1.0  0.45790  0.76479  0.87778  1.0000
  C   C1073     1.0  0.47486  0.76268  0.87068  1.0000
  C   C1074     1.0  0.48010  0.76915  0.85379  1.0000
  C   C1075     1.0  0.46839  0.77784  0.84408  1.0000
  C   C1076     1.0  0.45150  0.78035  0.85134  1.0000
  C   C1077     1.0  0.44626  0.77379  0.86815  1.0000
  H   H1067     1.0  0.48393  0.75580  0.87810  1.0000
  H   H1068     1.0  0.44030  0.65724  0.95048  1.0000
  H   H1069     1.0  0.44241  0.78723  0.84393  1.0000
  H   H1070     1.0  0.43319  0.77590  0.87369  1.0000
  C   C1078     1.0  0.42409  0.71029  0.84391  1.0000
  C   C1079     1.0  0.41530  0.69902  0.85543  1.0000
  C   C1080     1.0  0.41446  0.68445  0.85127  1.0000
  C   C1081     1.0  0.42254  0.68111  0.83565  1.0000
  C   C1082     1.0  0.43090  0.69264  0.82401  1.0000
  C   C1083     1.0  0.43162  0.70723  0.82811  1.0000
  H   H1071     1.0  0.40929  0.70143  0.86758  1.0000
  C   C1084     1.0  0.46113  0.68357  0.85310  1.0000
  H   H1072     1.0  0.43695  0.69025  0.81184  1.0000
  H   H1073     1.0  0.43836  0.71594  0.81913  1.0000
  C   C1085     1.0  0.16623  0.94130  0.74093  1.0000
  C   C1086     1.0  0.03274  0.83427  0.73972  1.0000
  C   C1087     1.0  0.45975  0.68084  0.91623  1.0000
  C   C1088     1.0  0.48934  0.80084  0.86087  1.0000
  Fe  Fe189     1.0  0.47527  0.66950  0.78818  1.0000
  C   C1089     1.0  0.12979  0.97677  0.75184  1.0000
  N   N89       1.0  0.47823  0.71519  0.92564  1.0000
  H   H1074     1.0  0.45717  0.69094  0.90612  1.0000
  C   C1090     1.0  0.47703  0.72520  0.85622  1.0000
  H   H1075     1.0  0.44143  0.70499  0.94624  1.0000
  C   C1091     1.0  0.45032  0.66169  0.94111  1.0000
  C   C1092     1.0  0.45405  0.75194  0.82354  1.0000
  C   C1093     1.0  0.48082  0.73248  0.82212  1.0000
  H   H1076     1.0  0.44812  0.74537  0.81778  1.0000
  H   H1077     1.0  0.44408  0.75823  0.83248  1.0000
  H   H1078     1.0  0.45956  0.76171  0.81398  1.0000
  N   N90       1.0  0.34252  0.80998  0.93072  1.0000
  C   C1094     1.0  0.35552  0.80021  0.92219  1.0000
  C   C1095     1.0  0.32934  0.81884  0.92365  1.0000
  C   C1096     1.0  0.35568  0.79941  0.90604  1.0000
  C   C1097     1.0  0.32902  0.81819  0.90758  1.0000
  C   C1098     1.0  0.34229  0.80838  0.89875  1.0000
  C   C1099     1.0  0.34217  0.81016  0.94788  1.0000
  H   H1079     1.0  0.36563  0.79255  0.92801  1.0000
  H   H1080     1.0  0.31889  0.82637  0.93049  1.0000
  H   H1081     1.0  0.36586  0.79137  0.89945  1.0000
  H   H1082     1.0  0.31845  0.82512  0.90212  1.0000
  H   H1083     1.0  0.34212  0.80747  0.88638  1.0000
  H   H1084     1.0  0.35490  0.80713  0.95036  1.0000
  H   H1085     1.0  0.33607  0.82259  0.95069  1.0000
  H   H1086     1.0  0.33520  0.80087  0.95639  1.0000
  H   H1087     1.0  0.48026  0.82097  0.84216  1.0000
  H   H1088     1.0  0.13871  0.90129  0.87495  1.0000
  C   C1100     1.0  0.17405  0.84976  0.89236  1.0000
  C   C1101     1.0  0.47626  0.67298  0.91693  1.0000
  C   C1102     1.0  0.15916  0.79372  0.98242  1.0000
  C   C1103     1.0  0.15459  0.83571  0.96733  1.0000
  C   C1104     1.0  0.05015  0.97022  0.74272  1.0000
  N   N91       1.0  0.22604  0.91310  0.86601  1.0000
  C   C1105     1.0  0.21465  0.91904  0.85606  1.0000
  C   C1106     1.0  0.23758  0.89879  0.86439  1.0000
  C   C1107     1.0  0.21441  0.91045  0.84431  1.0000
  C   C1108     1.0  0.23756  0.88976  0.85291  1.0000
  C   C1109     1.0  0.22585  0.89563  0.84285  1.0000
  C   C1110     1.0  0.22604  0.92248  0.87810  1.0000
  H   H1089     1.0  0.20534  0.93025  0.85754  1.0000
  H   H1090     1.0  0.24669  0.89409  0.87222  1.0000
  H   H1091     1.0  0.20504  0.91496  0.83677  1.0000
  H   H1092     1.0  0.12541  0.88680  0.87814  1.0000
  N   N92       1.0  0.04066  0.84087  0.74765  1.0000
  H   H1093     1.0  0.21321  0.92605  0.88523  1.0000
  H   H1094     1.0  0.23383  0.91507  0.88718  1.0000
  H   H1095     1.0  0.23094  0.93383  0.87168  1.0000
  C   C1111     1.0  0.48350  0.67324  0.74419  1.0000
  H   H1096     1.0  0.17074  0.91475  0.74887  1.0000
  H   H1097     1.0  0.02407  0.84559  0.76990  1.0000
  C   C1112     1.0  0.18235  0.84086  0.95565  1.0000
  H   H1098     1.0  0.14007  0.87104  0.74086  1.0000
  H   H1099     1.0  0.18086  0.80024  0.96463  1.0000
  C   C1113     1.0  0.46143  0.71624  0.93017  1.0000
  H   H1100     1.0  0.14355  0.82790  0.95145  1.0000
  H   H1101     1.0  0.07723  0.98675  0.78071  1.0000
  H   H1102     1.0  0.22830  0.86408  0.97696  1.0000
  H   H1103     1.0  0.45362  0.74238  0.85602  1.0000
  S   S372      1.0  0.45292  0.66068  0.78680  1.0000
  H   H1104     1.0  0.47727  0.79767  0.86634  1.0000
  C   C1114     1.0  0.11306  0.97854  0.79451  1.0000
  H   H1105     1.0  0.47960  0.74022  0.91470  1.0000
  H   H1106     1.0  0.25336  0.91686  0.97175  1.0000
  S   S373      1.0  0.03399  0.98577  0.76906  1.0000
  H   H1107     1.0  0.03869  0.85913  0.76149  1.0000
  H   H1108     1.0  0.08810  0.90543  0.81474  1.0000
  H   H1109     1.0  0.45310  0.72617  0.92370  1.0000
  H   H1110     1.0  0.23586  0.84180  0.98026  1.0000
  H   H1111     1.0  0.06006  0.94802  0.77688  1.0000
  H   H1112     1.0  0.45924  0.67081  0.74306  1.0000
  H   H1113     1.0  0.04398  0.93269  0.76798  1.0000
  C   C1115     1.0  0.07409  0.92569  0.78983  1.0000
  N   N93       1.0  0.46125  0.67203  0.86911  1.0000
  H   H1114     1.0  0.46037  0.68179  0.96081  1.0000
  S   S374      1.0  0.24597  0.80914  0.97088  1.0000
  H   H1115     1.0  0.47376  0.68319  0.84516  1.0000
  C   C1116     1.0  0.25671  0.89489  0.95317  1.0000
  H   H1116     1.0  0.24647  0.87821  0.85195  1.0000
  H   H1117     1.0  0.16460  0.88516  0.97053  1.0000
  H   H1118     1.0  0.45340  0.68024  0.84634  1.0000
  H   H1119     1.0  0.14602  0.87221  0.96248  1.0000
  H   H1120     1.0  0.06952  0.88693  0.79343  1.0000
  S   S375      1.0  0.48092  0.69437  0.77352  1.0000
  C   C1117     1.0  0.16955  0.92510  0.73850  1.0000
  C   C1118     1.0  0.15742  0.86260  0.87169  1.0000
  C   C1119     1.0  0.17613  0.79373  0.97699  1.0000
  H   H1121     1.0  0.15416  0.86251  0.86026  1.0000
  S   S376      1.0  0.42363  0.66193  0.83116  1.0000
  H   H1122     1.0  0.14953  0.88640  0.89961  1.0000
  H   H1123     1.0  0.12005  0.95678  0.76943  1.0000
  S   S377      1.0  0.19593  0.88761  0.97146  1.0000
  C   C1120     1.0  0.46479  0.73649  0.84848  1.0000
  H   H1124     1.0  0.17512  0.83934  0.87164  1.0000
  H   H1125     1.0  0.43523  0.67980  0.87784  1.0000
  H   H1126     1.0  0.19304  0.84481  0.95671  1.0000
  C   C1121     1.0  0.06704  0.82610  0.73513  1.0000
  C   C1122     1.0  0.06745  0.90034  0.78995  1.0000
  H   H1127     1.0  0.49318  0.76761  0.84840  1.0000
  Fe  Fe190     1.0  0.30618  0.79101  0.97962  1.0000
  H   H1128     1.0  0.48240  0.73530  0.80877  1.0000
  H   H1129     1.0  0.10190  0.90043  0.79597  1.0000
  H   H1130     1.0  0.10125  0.95540  0.75213  1.0000
  H   H1131     1.0  0.14740  0.89645  0.74319  1.0000
  N   N94       1.0  0.26235  0.89183  0.96869  1.0000
  H   H1132     1.0  0.48724  0.66204  0.86351  1.0000
  C   C1123     1.0  0.02340  0.96424  0.75760  1.0000
  H   H1133     1.0  0.20005  0.78575  0.98377  1.0000
  C   C1124     1.0  0.45473  0.70441  0.94305  1.0000
  C   C1125     1.0  0.49295  0.72044  0.77593  1.0000
  C   C1126     1.0  0.10045  0.98729  0.78598  1.0000
  H   H1134     1.0  0.22329  0.93258  0.96877  1.0000
  C   C1127     1.0  0.48249  0.69036  0.94648  1.0000
  C   C1128     1.0  0.48875  0.70249  0.93363  1.0000
  C   C1129     1.0  0.15486  0.87595  0.89360  1.0000
  C   C1130     1.0  0.47988  0.65979  0.93000  1.0000
  N   N95       1.0  0.07653  0.90880  0.79453  1.0000
  C   C1131     1.0  0.03616  0.97260  0.75546  1.0000
  H   H1135     1.0  0.18349  0.83982  0.89728  1.0000
  H   H1136     1.0  0.21467  0.85069  0.97879  1.0000
  C   C1132     1.0  0.16863  0.84027  0.96885  1.0000
  C   C1133     1.0  0.11981  0.96499  0.75743  1.0000
  H   H1137     1.0  0.27336  0.86649  0.96817  1.0000
  H   H1138     1.0  0.13766  0.97742  0.75969  1.0000
  H   H1139     1.0  0.04890  0.90196  0.77623  1.0000
  C   C1134     1.0  0.06220  0.93458  0.78038  1.0000
  C   C1135     1.0  0.08676  0.98038  0.78763  1.0000
  C   C1136     1.0  0.05572  0.90879  0.78023  1.0000
  C   C1137     1.0  0.49098  0.81403  0.84738  1.0000
  C   C1138     1.0  0.14175  0.87771  0.97331  1.0000
  S   S378      1.0  0.46911  0.66644  0.81564  1.0000
  C   C1139     1.0  0.10931  0.96425  0.74771  1.0000
  C   C1140     1.0  0.47190  0.66445  0.74381  1.0000
  H   H1140     1.0  0.16880  0.84386  0.97995  1.0000
  H   H1141     1.0  0.01257  0.96598  0.76742  1.0000
  H   H1142     1.0  0.47540  0.72260  0.86957  1.0000
  H   H1143     1.0  0.48611  0.67707  0.90728  1.0000
  H   H1144     1.0  0.06387  0.84169  0.75221  1.0000
  H   H1145     1.0  0.24606  0.90560  0.95229  1.0000
  S   S379      1.0  0.03560  0.89489  0.73618  1.0000
  H   H1146     1.0  0.02168  0.86194  0.75175  1.0000
  C   C1141     1.0  0.27094  0.87643  0.97469  1.0000
  H   H1147     1.0  0.47959  0.68647  0.74370  1.0000
  H   H1148     1.0  0.43482  0.66037  0.90492  1.0000
  C   C1142     1.0  0.25984  0.90453  0.97661  1.0000
  C   C1143     1.0  0.44635  0.66047  0.89578  1.0000
  H   H1149     1.0  0.49088  0.67992  0.95233  1.0000
  C   C1144     1.0  0.21847  0.92196  0.97649  1.0000
  S   S380      1.0  0.32797  0.76940  0.97951  1.0000
  C   C1145     1.0  0.22521  0.85189  0.98350  1.0000
  Fe  Fe191     1.0  0.27056  0.80799  0.97655  1.0000
  C   C1146     1.0  0.47572  0.66169  0.87252  1.0000
  S   S381      1.0  0.13697  0.83563  0.98336  1.0000
  C   C1147     1.0  0.12592  0.87708  0.98299  1.0000
  Fe  Fe192     1.0  0.54061  0.23600  0.07163  1.0000
  S   S382      1.0  0.54035  0.21943  0.05513  1.0000
  S   S383      1.0  0.54580  0.26161  0.06289  1.0000
  Fe  Fe193     1.0  0.53249  0.21134  0.10307  1.0000
  S   S384      1.0  0.53114  0.19255  0.08994  1.0000
  S   S385      1.0  0.52637  0.20789  0.13056  1.0000
  Fe  Fe194     1.0  0.55411  0.19940  0.07253  1.0000
  S   S386      1.0  0.57487  0.17777  0.06713  1.0000
  Fe  Fe195     1.0  0.51752  0.21382  0.07379  1.0000
  H   H1150     1.0  0.90742  0.03623  0.20078  1.0000
  S   S387      1.0  0.55663  0.21654  0.08725  1.0000
  S   S388      1.0  0.51658  0.23207  0.08863  1.0000
  C   C1148     1.0  0.51727  0.15400  0.09750  1.0000
  H   H1151     1.0  0.52386  0.15050  0.13408  1.0000
  C   C1149     1.0  0.87419  0.01938  0.17614  1.0000
  H   H1152     1.0  0.75562  0.08036  0.12501  1.0000
  H   H1153     1.0  0.52738  0.14785  0.10391  1.0000
  H   H1154     1.0  0.60350  0.21701  0.06209  1.0000
  H   H1155     1.0  0.86421  0.02925  0.18107  1.0000
  S   S389      1.0  0.67973  0.13822  0.03727  1.0000
  H   H1156     1.0  0.76553  0.01313  0.16450  1.0000
  Fe  Fe196     1.0  0.75065  0.05470  0.01902  1.0000
  S   S390      1.0  0.76668  0.07263  0.00400  1.0000
  S   S391      1.0  0.72975  0.05300  0.00790  1.0000
  Fe  Fe197     1.0  0.76665  0.04832  0.04930  1.0000
  S   S392      1.0  0.78377  0.06563  0.03615  1.0000
  S   S393      1.0  0.76956  0.03471  0.07533  1.0000
  Fe  Fe198     1.0  0.76152  0.08223  0.02716  1.0000
  S   S394      1.0  0.75675  0.10956  0.02552  1.0000
  Fe  Fe199     1.0  0.78726  0.05415  0.01449  1.0000
  H   H1157     1.0  0.69931  0.11041  0.05569  1.0000
  S   S395      1.0  0.74386  0.06585  0.04173  1.0000
  S   S396      1.0  0.77173  0.03530  0.02814  1.0000
  Fe  Fe200     1.0  0.90086  0.06531  0.21978  1.0000
  N   N96       1.0  0.79742  0.11529  0.99243  1.0000
  S   S397      1.0  0.89701  0.07298  0.19350  1.0000
  C   C1150     1.0  0.52060  0.16187  0.08088  1.0000
  C   C1151     1.0  0.52506  0.23604  0.15458  1.0000
  C   C1152     1.0  0.94609  0.13458  0.23339  1.0000
  Fe  Fe201     1.0  0.80612  0.05473  0.14070  1.0000
  S   S398      1.0  0.83125  0.05799  0.14174  1.0000
  S   S399      1.0  0.79270  0.06959  0.12012  1.0000
  Fe  Fe202     1.0  0.80469  0.02733  0.17144  1.0000
  S   S400      1.0  0.82981  0.02735  0.17478  1.0000
  S   S401      1.0  0.78959  0.00930  0.18846  1.0000
  Fe  Fe203     1.0  0.82188  0.05498  0.16924  1.0000
  S   S402      1.0  0.82588  0.06763  0.18759  1.0000
  Fe  Fe204     1.0  0.83719  0.03029  0.14732  1.0000
  S   S403      1.0  0.86132  0.01578  0.13617  1.0000
  S   S404      1.0  0.79590  0.05485  0.16772  1.0000
  S   S405      1.0  0.81298  0.02712  0.14445  1.0000
  C   C1153     1.0  0.78982  0.02504  0.21250  1.0000
  C   C1154     1.0  0.78569  0.01172  0.20897  1.0000
  H   H1158     1.0  0.68749  0.09629  0.01537  1.0000
  H   H1159     1.0  0.54828  0.26192  0.12674  1.0000
  H   H1160     1.0  0.79512  0.03415  0.20259  1.0000
  C   C1155     1.0  0.90778  0.99193  0.22758  1.0000
  H   H1161     1.0  0.51092  0.23972  0.19272  1.0000
  N   N97       1.0  0.71117  0.09233  0.99952  1.0000
  H   H1162     1.0  0.83721  0.99556  0.14286  1.0000
  H   H1163     1.0  0.93000  0.11028  0.20698  1.0000
  C   C1156     1.0  0.92258  0.99555  0.22868  1.0000
  H   H1164     1.0  0.52809  0.22193  0.19139  1.0000
  C   C1157     1.0  0.87728  0.07160  0.19164  1.0000
  C   C1158     1.0  0.86385  0.07238  0.20507  1.0000
  C   C1159     1.0  0.84820  0.07123  0.20353  1.0000
  C   C1160     1.0  0.84593  0.06870  0.18881  1.0000
  C   C1161     1.0  0.85944  0.06755  0.17544  1.0000
  C   C1162     1.0  0.87501  0.06932  0.17676  1.0000
  H   H1165     1.0  0.86540  0.07440  0.21649  1.0000
  H   H1166     1.0  0.83774  0.07248  0.21374  1.0000
  H   H1167     1.0  0.85776  0.06583  0.16394  1.0000
  H   H1168     1.0  0.88535  0.06878  0.16630  1.0000
  C   C1163     1.0  0.69785  0.08590  0.01227  1.0000
  C   C1164     1.0  0.73477  0.10514  0.99202  1.0000
  C   C1165     1.0  0.50332  0.30443  0.07874  1.0000
  C   C1166     1.0  0.77613  0.04460  0.08747  1.0000
  C   C1167     1.0  0.77571  0.06163  0.08328  1.0000
  C   C1168     1.0  0.78095  0.06912  0.09332  1.0000
  C   C1169     1.0  0.78681  0.05962  0.10750  1.0000
  C   C1170     1.0  0.78742  0.04256  0.11154  1.0000
  C   C1171     1.0  0.78201  0.03511  0.10163  1.0000
  H   H1169     1.0  0.77107  0.06911  0.07247  1.0000
  H   H1170     1.0  0.78034  0.08235  0.09012  1.0000
  H   H1171     1.0  0.79164  0.03512  0.12250  1.0000
  H   H1172     1.0  0.78236  0.02193  0.10495  1.0000
  H   H1173     1.0  0.93893  0.09025  0.21798  1.0000
  C   C1172     1.0  0.70119  0.13085  0.03481  1.0000
  C   C1173     1.0  0.70762  0.11662  0.04558  1.0000
  C   C1174     1.0  0.72477  0.11010  0.04294  1.0000
  C   C1175     1.0  0.73548  0.11815  0.02985  1.0000
  C   C1176     1.0  0.72909  0.13275  0.01953  1.0000
  C   C1177     1.0  0.71192  0.13886  0.02172  1.0000
  H   H1174     1.0  0.78530  0.14069  0.98588  1.0000
  C   C1178     1.0  0.79978  0.10202  0.00521  1.0000
  H   H1175     1.0  0.73738  0.13914  0.00961  1.0000
  H   H1176     1.0  0.70698  0.14990  0.01341  1.0000
  Fe  Fe205     1.0  0.50707  0.30129  0.13861  1.0000
  C   C1179     1.0  0.59316  0.19012  0.01775  1.0000
  C   C1180     1.0  0.58291  0.19035  0.03352  1.0000
  C   C1181     1.0  0.58641  0.17750  0.04691  1.0000
  C   C1182     1.0  0.59996  0.16438  0.04442  1.0000
  C   C1183     1.0  0.61026  0.16426  0.02874  1.0000
  S   S406      1.0  0.50791  0.28818  0.16480  1.0000
  H   H1177     1.0  0.57243  0.20049  0.03533  1.0000
  H   H1178     1.0  0.60271  0.15442  0.05474  1.0000
  H   H1179     1.0  0.62079  0.15422  0.02712  1.0000
  C   C1184     1.0  0.54160  0.27232  0.07897  1.0000
  C   C1185     1.0  0.52959  0.26887  0.09337  1.0000
  C   C1186     1.0  0.52577  0.27825  0.10562  1.0000
  C   C1187     1.0  0.53426  0.29082  0.10367  1.0000
  C   C1188     1.0  0.54639  0.29411  0.08940  1.0000
  C   C1189     1.0  0.54988  0.28505  0.07698  1.0000
  H   H1180     1.0  0.52299  0.25925  0.09498  1.0000
  H   H1181     1.0  0.51641  0.27562  0.11662  1.0000
  H   H1182     1.0  0.51007  0.17688  0.06027  1.0000
  H   H1183     1.0  0.55914  0.28782  0.06589  1.0000
  C   C1190     1.0  0.51781  0.19022  0.13852  1.0000
  C   C1191     1.0  0.52562  0.17550  0.13304  1.0000
  C   C1192     1.0  0.51787  0.16188  0.13833  1.0000
  C   C1193     1.0  0.72237  0.09830  0.00401  1.0000
  H   H1184     1.0  0.53762  0.17463  0.12470  1.0000
  C   C1194     1.0  0.95834  0.10271  0.22775  1.0000
  S   S407      1.0  0.92595  0.05342  0.22597  1.0000
  H   H1185     1.0  0.73429  0.07783  0.13190  1.0000
  H   H1186     1.0  0.74730  0.07098  0.11355  1.0000
  H   H1187     1.0  0.51780  0.22719  0.15498  1.0000
  N   N98       1.0  0.82219  0.03304  0.07934  1.0000
  H   H1188     1.0  0.82312  0.99444  0.20057  1.0000
  C   C1195     1.0  0.82123  0.04891  0.08062  1.0000
  C   C1196     1.0  0.83769  0.02247  0.10104  1.0000
  C   C1197     1.0  0.82829  0.05191  0.09232  1.0000
  C   C1198     1.0  0.83663  0.03860  0.10252  1.0000
  C   C1199     1.0  0.78684  0.02680  0.22892  1.0000
  H   H1189     1.0  0.50982  0.22361  0.18366  1.0000
  H   H1190     1.0  0.81462  0.05935  0.07288  1.0000
  C   C1200     1.0  0.50206  0.16325  0.14858  1.0000
  H   H1191     1.0  0.82698  0.06449  0.09373  1.0000
  H   H1192     1.0  0.84220  0.04073  0.11163  1.0000
  H   H1193     1.0  0.51964  0.29217  0.05303  1.0000
  C   C1201     1.0  0.60699  0.17717  0.01537  1.0000
  H   H1194     1.0  0.59052  0.20013  0.00742  1.0000
  H   H1195     1.0  0.53200  0.24116  0.12790  1.0000
  C   C1202     1.0  0.54325  0.25911  0.15319  1.0000
  C   C1203     1.0  0.73251  0.04597  0.98942  1.0000
  H   H1196     1.0  0.59032  0.21062  0.05244  1.0000
  C   C1204     1.0  0.53298  0.24399  0.13921  1.0000
  H   H1197     1.0  0.87018  0.00736  0.18116  1.0000
  H   H1198     1.0  0.78033  0.13135  0.00746  1.0000
  C   C1205     1.0  0.53529  0.25081  0.16836  1.0000
  H   H1199     1.0  0.72969  0.09894  0.05108  1.0000
  C   C1206     1.0  0.86135  0.99528  0.14654  1.0000
  H   H1200     1.0  0.70256  0.07880  0.02358  1.0000
  N   N99       1.0  0.52634  0.23946  0.16889  1.0000
  H   H1201     1.0  0.81459  0.07779  0.01302  1.0000
  H   H1202     1.0  0.88037  0.03709  0.19476  1.0000
  H   H1203     1.0  0.93239  0.01629  0.19030  1.0000
  C   C1207     1.0  0.93277  0.10319  0.21915  1.0000
  H   H1204     1.0  0.88529  0.99140  0.15244  1.0000
  C   C1208     1.0  0.81490  0.02996  0.06695  1.0000
  Fe  Fe206     1.0  0.64532  0.16013  0.99466  1.0000
  Fe  Fe207     1.0  0.67323  0.14354  0.01249  1.0000
  N   N100      1.0  0.89008  0.01841  0.18036  1.0000
  C   C1209     1.0  0.89123  0.02852  0.18988  1.0000
  C   C1210     1.0  0.90376  0.00729  0.17464  1.0000
  C   C1211     1.0  0.90649  0.02804  0.19342  1.0000
  C   C1212     1.0  0.91919  0.00645  0.17801  1.0000
  C   C1213     1.0  0.92054  0.01696  0.18740  1.0000
  H   H1205     1.0  0.75720  0.03150  0.98996  1.0000
  H   H1206     1.0  0.59357  0.19972  0.07249  1.0000
  H   H1207     1.0  0.90280  0.99891  0.16752  1.0000
  H   H1208     1.0  0.79133  0.10172  0.01713  1.0000
  H   H1209     1.0  0.50191  0.24393  0.05706  1.0000
  H   H1210     1.0  0.50886  0.27547  0.06185  1.0000
  H   H1211     1.0  0.94913  0.99097  0.22041  1.0000
  C   C1214     1.0  0.78314  0.12901  0.99475  1.0000
  S   S408      1.0  0.66758  0.16865  0.99619  1.0000
  N   N101      1.0  0.61430  0.19511  0.05266  1.0000
  C   C1215     1.0  0.62155  0.18082  0.06207  1.0000
  C   C1216     1.0  0.62087  0.19948  0.03615  1.0000
  C   C1217     1.0  0.63577  0.17048  0.05495  1.0000
  C   C1218     1.0  0.63504  0.18941  0.02863  1.0000
  C   C1219     1.0  0.64254  0.17486  0.03815  1.0000
  H   H1212     1.0  0.96292  0.08997  0.22631  1.0000
  H   H1213     1.0  0.61621  0.17720  0.07510  1.0000
  H   H1214     1.0  0.61495  0.21063  0.02861  1.0000
  H   H1215     1.0  0.64148  0.15904  0.06232  1.0000
  H   H1216     1.0  0.63992  0.19267  0.01544  1.0000
  H   H1217     1.0  0.65347  0.16686  0.03250  1.0000
  H   H1218     1.0  0.92095  0.10247  0.22839  1.0000
  H   H1219     1.0  0.74362  0.10988  0.99564  1.0000
  H   H1220     1.0  0.54999  0.26843  0.15274  1.0000
  N   N102      1.0  0.75237  0.05579  0.13659  1.0000
  C   C1220     1.0  0.75886  0.05479  0.14994  1.0000
  C   C1221     1.0  0.75015  0.04179  0.13324  1.0000
  C   C1222     1.0  0.76350  0.03945  0.16024  1.0000
  C   C1223     1.0  0.75495  0.02622  0.14311  1.0000
  C   C1224     1.0  0.76168  0.02509  0.15669  1.0000
  C   C1225     1.0  0.74706  0.07204  0.12630  1.0000
  H   H1221     1.0  0.76070  0.06587  0.15257  1.0000
  H   H1222     1.0  0.74507  0.04256  0.12260  1.0000
  H   H1223     1.0  0.76855  0.03863  0.17089  1.0000
  H   H1224     1.0  0.75354  0.01513  0.14017  1.0000
  C   C1226     1.0  0.59977  0.20619  0.06031  1.0000
  C   C1227     1.0  0.54215  0.25557  0.13856  1.0000
  H   H1225     1.0  0.62435  0.11388  0.00499  1.0000
  H   H1226     1.0  0.53608  0.25372  0.17969  1.0000
  C   C1228     1.0  0.77883  0.00001  0.22193  1.0000
  C   C1229     1.0  0.81299  0.08853  0.00305  1.0000
  H   H1227     1.0  0.72174  0.09779  0.01692  1.0000
  H   H1228     1.0  0.80732  0.02032  0.07263  1.0000
  H   H1229     1.0  0.92994  0.99736  0.17373  1.0000
  S   S409      1.0  0.81338  0.04643  0.00088  1.0000
  H   H1230     1.0  0.50159  0.29243  0.04586  1.0000
  H   H1231     1.0  0.69302  0.07720  0.00800  1.0000
  S   S410      1.0  0.65023  0.13577  0.01228  1.0000
  C   C1230     1.0  0.83035  0.01990  0.08931  1.0000
  C   C1231     1.0  0.51849  0.23069  0.18498  1.0000
  H   H1232     1.0  0.83117  0.00733  0.08825  1.0000
  H   H1233     1.0  0.51659  0.30376  0.07600  1.0000
  H   H1234     1.0  0.80636  0.04121  0.06166  1.0000
  C   C1232     1.0  0.50241  0.19127  0.14943  1.0000
  H   H1235     1.0  0.55301  0.30382  0.08786  1.0000
  H   H1236     1.0  0.84416  0.01208  0.10901  1.0000
  H   H1237     1.0  0.87549  0.02235  0.16246  1.0000
  S   S411      1.0  0.53008  0.30265  0.11876  1.0000
  C   C1233     1.0  0.50086  0.15437  0.10594  1.0000
  S   S412      1.0  0.68899  0.13129  0.99193  1.0000
  N   N103      1.0  0.94304  0.11113  0.22473  1.0000
  H   H1238     1.0  0.53334  0.16196  0.07430  1.0000
  S   S413      1.0  0.62027  0.17761  0.99577  1.0000
  H   H1239     1.0  0.83380  0.07808  0.98577  1.0000
  C   C1234     1.0  0.61745  0.13845  0.99062  1.0000
  C   C1235     1.0  0.93692  0.12690  0.22737  1.0000
  H   H1240     1.0  0.78972  0.03734  0.23152  1.0000
  C   C1236     1.0  0.82380  0.08870  0.98771  1.0000
  C   C1237     1.0  0.50739  0.17025  0.07300  1.0000
  H   H1241     1.0  0.70787  0.05843  0.98570  1.0000
  Fe  Fe208     1.0  0.66544  0.12580  0.99010  1.0000
  H   H1242     1.0  0.82481  0.02587  0.05665  1.0000
  H   H1243     1.0  0.92463  0.13341  0.22537  1.0000
  H   H1244     1.0  0.77557  0.98972  0.21924  1.0000
  C   C1238     1.0  0.50710  0.28908  0.05702  1.0000
  H   H1245     1.0  0.61325  0.14432  0.00122  1.0000
  H   H1246     1.0  0.49900  0.31700  0.09880  1.0000
  H   H1247     1.0  0.77203  0.12593  0.99271  1.0000
  C   C1239     1.0  0.62357  0.12139  0.99274  1.0000
  S   S414      1.0  0.66637  0.10004  0.98763  1.0000
  H   H1248     1.0  0.49814  0.14836  0.11888  1.0000
  C   C1240     1.0  0.96787  0.11005  0.23368  1.0000
  Fe  Fe209     1.0  0.88321  0.05726  0.25531  1.0000
  S   S415      1.0  0.90665  0.04461  0.26444  1.0000
  S   S416      1.0  0.85780  0.05665  0.27118  1.0000
  S   S417      1.0  0.80257  0.31188  0.41622  1.0000
  S   S418      1.0  0.93586  0.07604  0.25586  1.0000
  S   S419      1.0  0.81274  0.31805  0.45539  1.0000
  C   C1241     1.0  0.94419  0.25518  0.32691  1.0000
  C   C1242     1.0  0.74451  0.99495  0.32516  1.0000
  H   H1249     1.0  0.82913  0.04194  0.28599  1.0000
  C   C1243     1.0  0.93280  0.22705  0.32893  1.0000
  N   N104      1.0  0.94741  0.22558  0.33355  1.0000
  C   C1244     1.0  0.87474  0.26260  0.47147  1.0000
  H   H1250     1.0  0.97750  0.17591  0.41161  1.0000
  Fe  Fe210     1.0  0.93134  0.22778  0.38509  1.0000
  S   S420      1.0  0.91366  0.23172  0.36850  1.0000
  S   S421      1.0  0.95814  0.22645  0.37262  1.0000
  Fe  Fe211     1.0  0.90359  0.23091  0.41541  1.0000
  S   S422      1.0  0.88351  0.23531  0.40139  1.0000
  S   S423      1.0  0.89956  0.23015  0.44251  1.0000
  Fe  Fe212     1.0  0.90041  0.21487  0.38934  1.0000
  S   S424      1.0  0.89124  0.19407  0.38575  1.0000
  Fe  Fe213     1.0  0.89881  0.25171  0.38195  1.0000
  S   S425      1.0  0.88831  0.27661  0.36784  1.0000
  S   S426      1.0  0.91944  0.20907  0.40494  1.0000
  S   S427      1.0  0.91744  0.24916  0.39712  1.0000
  Fe  Fe214     1.0  0.95540  0.14705  0.29376  1.0000
  S   S428      1.0  0.97059  0.13075  0.31215  1.0000
  S   S429      1.0  0.93897  0.13964  0.28041  1.0000
  Fe  Fe215     1.0  0.96028  0.17896  0.30133  1.0000
  S   S430      1.0  0.97530  0.16506  0.32048  1.0000
  S   S431      1.0  0.95293  0.20692  0.29665  1.0000
  H   H1251     1.0  0.85264  0.05105  0.23922  1.0000
  Fe  Fe216     1.0  0.95700  0.14859  0.32863  1.0000
  S   S432      1.0  0.94743  0.13941  0.35551  1.0000
  S   S433      1.0  0.97399  0.16369  0.28227  1.0000
  S   S434      1.0  0.94057  0.16383  0.31130  1.0000
  S   S435      1.0  0.94575  0.31121  0.32088  1.0000
  C   C1245     1.0  0.85610  0.30696  0.43278  1.0000
  S   S436      1.0  0.79957  0.99692  0.29860  1.0000
  H   H1252     1.0  0.92203  0.26906  0.31823  1.0000
  C   C1246     1.0  0.84791  0.30643  0.42077  1.0000
  H   H1253     1.0  0.84987  0.31414  0.44222  1.0000
  C   C1247     1.0  0.90439  0.28628  0.35516  1.0000
  C   C1248     1.0  0.92096  0.27934  0.35629  1.0000
  C   C1249     1.0  0.93368  0.28727  0.34625  1.0000
  C   C1250     1.0  0.92995  0.30178  0.33455  1.0000
  C   C1251     1.0  0.91339  0.30874  0.33343  1.0000
  C   C1252     1.0  0.90062  0.30106  0.34379  1.0000
  H   H1254     1.0  0.92406  0.26784  0.36483  1.0000
  H   H1255     1.0  0.94637  0.28201  0.34746  1.0000
  H   H1256     1.0  0.97921  0.17476  0.36428  1.0000
  H   H1257     1.0  0.88785  0.30648  0.34284  1.0000
  C   C1253     1.0  0.90778  0.17927  0.37786  1.0000
  C   C1254     1.0  0.90892  0.16256  0.38560  1.0000
  C   C1255     1.0  0.92161  0.15046  0.37904  1.0000
  C   C1256     1.0  0.93282  0.15497  0.36437  1.0000
  C   C1257     1.0  0.93172  0.17168  0.35655  1.0000
  C   C1258     1.0  0.91935  0.18388  0.36347  1.0000
  H   H1258     1.0  0.90000  0.15899  0.39673  1.0000
  H   H1259     1.0  0.92244  0.13755  0.38511  1.0000
  H   H1260     1.0  0.94029  0.17520  0.34514  1.0000
  H   H1261     1.0  0.91837  0.19679  0.35742  1.0000
  C   C1259     1.0  0.76555  0.28963  0.43526  1.0000
  C   C1260     1.0  0.92340  0.24268  0.32340  1.0000
  C   C1261     1.0  0.74187  0.99421  0.34209  1.0000
  C   C1262     1.0  0.97313  0.21058  0.38117  1.0000
  C   C1263     1.0  0.96867  0.19760  0.39406  1.0000
  C   C1264     1.0  0.82125  0.06613  0.24920  1.0000
  H   H1262     1.0  0.97272  0.25419  0.37568  1.0000
  Fe  Fe217     1.0  0.91345  0.03299  0.24221  1.0000
  H   H1263     1.0  0.95577  0.19680  0.39855  1.0000
  H   H1264     1.0  0.97237  0.16271  0.38456  1.0000
  H   H1265     1.0  0.72978  0.29179  0.46440  1.0000
  C   C1265     1.0  0.88685  0.25075  0.46400  1.0000
  C   C1266     1.0  0.88452  0.24603  0.45047  1.0000
  C   C1267     1.0  0.86984  0.25308  0.44451  1.0000
  C   C1268     1.0  0.85739  0.26465  0.45239  1.0000
  H   H1266     1.0  0.87724  0.27983  0.40049  1.0000
  H   H1267     1.0  0.89667  0.16191  0.35677  1.0000
  H   H1268     1.0  0.86791  0.24931  0.43416  1.0000
  H   H1269     1.0  0.84597  0.26994  0.44797  1.0000
  H   H1270     1.0  0.96074  0.20966  0.42710  1.0000
  H   H1271     1.0  0.98664  0.19539  0.30206  1.0000
  C   C1269     1.0  0.92581  0.12098  0.32800  1.0000
  C   C1270     1.0  0.93523  0.09282  0.26504  1.0000
  C   C1271     1.0  0.92212  0.10666  0.26513  1.0000
  C   C1272     1.0  0.92329  0.12061  0.27040  1.0000
  C   C1273     1.0  0.93742  0.12088  0.27590  1.0000
  C   C1274     1.0  0.95020  0.10676  0.27651  1.0000
  C   C1275     1.0  0.94914  0.09291  0.27101  1.0000
  H   H1272     1.0  0.83918  0.28643  0.40235  1.0000
  C   C1276     1.0  0.73883  0.29549  0.45336  1.0000
  H   H1273     1.0  0.96118  0.10670  0.28066  1.0000
  H   H1274     1.0  0.95937  0.08230  0.27103  1.0000
  C   C1277     1.0  0.85547  0.03598  0.27647  1.0000
  C   C1278     1.0  0.86912  0.02333  0.27276  1.0000
  C   C1279     1.0  0.86700  0.00714  0.27500  1.0000
  H   H1275     1.0  0.87763  0.99762  0.27168  1.0000
  C   C1280     1.0  0.83760  0.01598  0.28525  1.0000
  C   C1281     1.0  0.83973  0.03223  0.28303  1.0000
  H   H1276     1.0  0.88137  0.02598  0.26800  1.0000
  C   C1282     1.0  0.83863  0.01609  0.24413  1.0000
  H   H1277     1.0  0.82542  0.01328  0.29006  1.0000
  C   C1283     1.0  0.98358  0.20872  0.30025  1.0000
  N   N105      1.0  0.91421  0.13682  0.32938  1.0000
  H   H1278     1.0  0.86103  0.22067  0.45771  1.0000
  H   H1279     1.0  0.80300  0.04356  0.25444  1.0000
  C   C1284     1.0  0.75402  0.28475  0.44947  1.0000
  C   C1285     1.0  0.96447  0.23483  0.29422  1.0000
  H   H1280     1.0  0.72360  0.31934  0.44604  1.0000
  H   H1281     1.0  0.81253  0.06659  0.26130  1.0000
  H   H1282     1.0  0.97092  0.26888  0.38810  1.0000
  H   H1283     1.0  0.98235  0.13959  0.35290  1.0000
  H   H1284     1.0  0.85534  0.29333  0.38544  1.0000
  H   H1285     1.0  0.77066  0.30882  0.41400  1.0000
  H   H1286     1.0  0.91329  0.13142  0.26987  1.0000
  C   C1286     1.0  0.96266  0.23270  0.40951  1.0000
  H   H1287     1.0  0.83529  0.31346  0.42088  1.0000
  S   S437      1.0  0.80850  0.28053  0.45707  1.0000
  Fe  Fe218     1.0  0.78908  0.99419  0.27827  1.0000
  H   H1288     1.0  0.96855  0.13163  0.24191  1.0000
  H   H1289     1.0  0.89126  0.16869  0.30672  1.0000
  C   C1287     1.0  0.78033  0.01492  0.24191  1.0000
  C   C1288     1.0  0.95307  0.23941  0.33276  1.0000
  H   H1290     1.0  0.95036  0.23439  0.40718  1.0000
  C   C1289     1.0  0.85994  0.26946  0.46585  1.0000
  C   C1290     1.0  0.91016  0.14218  0.34392  1.0000
  H   H1291     1.0  0.87850  0.29775  0.44238  1.0000
  S   S438      1.0  0.92326  0.00538  0.24418  1.0000
  H   H1292     1.0  0.89226  0.28046  0.42130  1.0000
  C   C1291     1.0  0.98096  0.18580  0.40145  1.0000
  Fe  Fe219     1.0  0.81965  0.29264  0.47045  1.0000
  C   C1292     1.0  0.87132  0.28773  0.40932  1.0000
  C   C1293     1.0  0.89273  0.16716  0.33188  1.0000
  H   H1293     1.0  0.77751  0.28150  0.43222  1.0000
  Fe  Fe220     1.0  0.78533  0.28576  0.47628  1.0000
  H   H1294     1.0  0.95662  0.20015  0.33258  1.0000
  S   S439      1.0  0.77525  0.31049  0.46168  1.0000
  H   H1295     1.0  0.96467  0.23829  0.33637  1.0000
  C   C1294     1.0  0.95667  0.20910  0.33992  1.0000
  S   S440      1.0  0.84501  0.28364  0.47637  1.0000
  H   H1296     1.0  0.81285  0.01439  0.25198  1.0000
  H   H1297     1.0  0.91181  0.24378  0.31982  1.0000
  H   H1298     1.0  0.95096  0.20483  0.35309  1.0000
  C   C1295     1.0  0.84664  0.29618  0.39701  1.0000
  H   H1299     1.0  0.77133  0.99226  0.24841  1.0000
  H   H1300     1.0  0.83159  0.07184  0.24921  1.0000
  H   H1301     1.0  0.93552  0.11877  0.33533  1.0000
  C   C1296     1.0  0.89642  0.16130  0.31730  1.0000
  H   H1302     1.0  0.87063  0.21986  0.47419  1.0000
  H   H1303     1.0  0.92843  0.21608  0.32937  1.0000
  H   H1304     1.0  0.91132  0.10684  0.26063  1.0000
  C   C1297     1.0  0.89949  0.15748  0.34535  1.0000
  C   C1298     1.0  0.90710  0.14592  0.31633  1.0000
  H   H1305     1.0  0.75372  0.00147  0.31659  1.0000
  C   C1299     1.0  0.96852  0.21859  0.42075  1.0000
  N   N106      1.0  0.97260  0.24369  0.40096  1.0000
  C   C1300     1.0  0.76167  0.30520  0.42507  1.0000
  H   H1306     1.0  0.90995  0.14147  0.30494  1.0000
  H   H1307     1.0  0.91544  0.13476  0.35442  1.0000
  N   N107      1.0  0.74682  0.31574  0.42907  1.0000
  H   H1308     1.0  0.89810  0.24524  0.46873  1.0000
  C   C1301     1.0  0.73543  0.31105  0.44296  1.0000
  H   H1309     1.0  0.97316  0.25676  0.29332  1.0000
  H   H1310     1.0  0.96604  0.16032  0.36709  1.0000
  H   H1311     1.0  0.93245  0.12090  0.31497  1.0000
  H   H1312     1.0  0.95259  0.24169  0.29143  1.0000
  S   S441      1.0  0.77705  0.01709  0.26242  1.0000
  C   C1302     1.0  0.84980  0.02656  0.24030  1.0000
  Fe  Fe221     1.0  0.79952  0.30628  0.44374  1.0000
  C   C1303     1.0  0.97654  0.16247  0.37118  1.0000
  C   C1304     1.0  0.96814  0.21747  0.29680  1.0000
  H   H1313     1.0  0.94901  0.26605  0.32571  1.0000
  Fe  Fe222     1.0  0.97182  0.29662  0.32080  1.0000
  C   C1305     1.0  0.87992  0.28807  0.42106  1.0000
  S   S442      1.0  0.98906  0.29478  0.29626  1.0000
  H   H1314     1.0  0.88466  0.17916  0.33278  1.0000
  C   C1306     1.0  0.82938  0.22906  0.47485  1.0000
  N   N108      1.0  0.82728  0.04896  0.24709  1.0000
  H   H1315     1.0  0.85858  0.20470  0.47630  1.0000
  C   C1307     1.0  0.92915  0.25683  0.32245  1.0000
  H   H1316     1.0  0.91900  0.11069  0.33249  1.0000
  C   C1308     1.0  0.85930  0.21793  0.47142  1.0000
  H   H1317     1.0  0.96986  0.20929  0.33905  1.0000
  S   S443      1.0  0.98023  0.27001  0.33255  1.0000
  C   C1309     1.0  0.97606  0.24337  0.29539  1.0000
  H   H1318     1.0  0.94093  0.14680  0.23619  1.0000
  C   C1310     1.0  0.87222  0.29778  0.43284  1.0000
  H   H1319     1.0  0.74917  0.00000  0.34672  1.0000
  C   C1311     1.0  0.96703  0.25749  0.38797  1.0000
  C   C1312     1.0  0.84385  0.04310  0.24174  1.0000
  C   C1313     1.0  0.98985  0.21148  0.37537  1.0000
  Fe  Fe223     1.0  0.91702  0.06633  0.24771  1.0000
  H   H1320     1.0  0.75687  0.27270  0.45748  1.0000
  C   C1314     1.0  0.82169  0.02234  0.24899  1.0000
  H   H1321     1.0  0.82894  0.22176  0.46640  1.0000
  C   C1315     1.0  0.81619  0.03890  0.25040  1.0000
  Fe  Fe224     1.0  0.98783  0.14874  0.30236  1.0000
  H   H1322     1.0  0.83807  0.30819  0.39353  1.0000
  H   H1323     1.0  0.95333  0.26032  0.38933  1.0000
  C   C1316     1.0  0.85121  0.00344  0.28106  1.0000
  N   N109      1.0  0.85563  0.29705  0.40912  1.0000
  N   N110      1.0  0.84415  0.22864  0.47864  1.0000
  H   H1324     1.0  0.87675  0.26625  0.48188  1.0000
  C   C1317     1.0  0.77648  0.00141  0.23842  1.0000
  H   H1325     1.0  0.84311  0.00307  0.24372  1.0000
  N   N111      1.0  0.99149  0.14950  0.36845  1.0000
  H   H1326     1.0  0.80293  0.23938  0.47873  1.0000
  H   H1327     1.0  0.86304  0.02179  0.23689  1.0000
  S   S444      1.0  0.89275  0.07992  0.23998  1.0000
  S   S445      1.0  0.98865  0.30622  0.33053  1.0000
  C   C1318     1.0  0.98478  0.21559  0.42292  1.0000
  Fe  Fe225     1.0  0.78933  0.32014  0.47468  1.0000
  H   H1328     1.0  0.98979  0.20424  0.43090  1.0000
  C   C1319     1.0  0.98830  0.24121  0.40357  1.0000
  H   H1329     1.0  0.89616  0.99684  0.23517  1.0000
  H   H1330     1.0  0.81488  0.07361  0.23904  1.0000
  C   C1320     1.0  0.99258  0.13878  0.35861  1.0000
  C   C1321     1.0  0.99147  0.23458  0.29892  1.0000
  H   H1331     1.0  0.99336  0.22156  0.36545  1.0000
  C   C1322     1.0  0.96163  0.12605  0.23661  1.0000
  H   H1332     1.0  0.91042  0.32002  0.32445  1.0000
  H   H1333     1.0  0.97970  0.10310  0.23666  1.0000
  C   C1323     1.0  0.99518  0.21724  0.30128  1.0000
  S   S446      1.0  0.88928  0.04404  0.23448  1.0000
  C   C1324     1.0  0.99472  0.22702  0.41439  1.0000
  H   H1334     1.0  0.99616  0.24996  0.39686  1.0000
  C   C1325     1.0  0.81466  0.23894  0.48177  1.0000
  Fe  Fe226     1.0  0.56617  0.05519  0.70938  1.0000
  C   C1326     1.0  0.50826  0.11134  0.69315  1.0000
  S   S447      1.0  0.55538  0.07102  0.68750  1.0000
  C   C1327     1.0  0.63208  0.00587  0.68329  1.0000
  N   N112      1.0  0.53504  0.13862  0.68859  1.0000
  H   H1335     1.0  0.62103  0.30312  0.52720  1.0000
  Fe  Fe227     1.0  0.60128  0.04191  0.71589  1.0000
  S   S448      1.0  0.62782  0.04363  0.70497  1.0000
  S   S449      1.0  0.58723  0.03540  0.70079  1.0000
  Fe  Fe228     1.0  0.52866  0.26432  0.57198  1.0000
  S   S450      1.0  0.53028  0.27946  0.54617  1.0000
  Fe  Fe229     1.0  0.54395  0.23225  0.56069  1.0000
  S   S451      1.0  0.54722  0.24457  0.53385  1.0000
  S   S452      1.0  0.54905  0.20471  0.56935  1.0000
  Fe  Fe230     1.0  0.55594  0.26371  0.54151  1.0000
  S   S453      1.0  0.57828  0.27472  0.52680  1.0000
  Fe  Fe231     1.0  0.52133  0.25896  0.54125  1.0000
  C   C1328     1.0  0.52747  0.08784  0.70580  1.0000
  S   S454      1.0  0.55485  0.24991  0.56777  1.0000
  S   S455      1.0  0.51752  0.24528  0.56753  1.0000
  C   C1329     1.0  0.81515  0.24849  0.49252  1.0000
  S   S456      1.0  0.65314  0.31017  0.51861  1.0000
  C   C1330     1.0  0.74122  0.25741  0.49485  1.0000
  S   S457      1.0  0.52603  0.19027  0.64694  1.0000
  H   H1336     1.0  0.61990  0.01274  0.70658  1.0000
  H   H1337     1.0  0.66506  0.02547  0.70641  1.0000
  C   C1331     1.0  0.71516  0.27570  0.50372  1.0000
  Fe  Fe232     1.0  0.64568  0.30767  0.54602  1.0000
  S   S458      1.0  0.62354  0.29704  0.56179  1.0000
  Fe  Fe233     1.0  0.67898  0.29925  0.52282  1.0000
  S   S459      1.0  0.69340  0.27855  0.51000  1.0000
  S   S460      1.0  0.67122  0.29482  0.55041  1.0000
  H   H1338     1.0  0.50645  0.21514  0.51366  1.0000
  C   C1332     1.0  0.51550  0.21243  0.52180  1.0000
  C   C1333     1.0  0.72381  0.28814  0.50210  1.0000
  C   C1334     1.0  0.51501  0.20555  0.55150  1.0000
  S   S461      1.0  0.50841  0.15133  0.64935  1.0000
  H   H1339     1.0  0.67748  0.01350  0.73141  1.0000
  H   H1340     1.0  0.52479  0.21235  0.54917  1.0000
  H   H1341     1.0  0.64352  0.99535  0.72797  1.0000
  S   S462      1.0  0.50178  0.26412  0.52595  1.0000
  C   C1335     1.0  0.83026  0.24805  0.49625  1.0000
  C   C1336     1.0  0.52308  0.14227  0.70358  1.0000
  C   C1337     1.0  0.58894  0.28306  0.53684  1.0000
  C   C1338     1.0  0.60124  0.29177  0.52726  1.0000
  C   C1339     1.0  0.61155  0.29658  0.53479  1.0000
  C   C1340     1.0  0.60967  0.29272  0.55199  1.0000
  C   C1341     1.0  0.59690  0.28463  0.56163  1.0000
  C   C1342     1.0  0.58651  0.27989  0.55410  1.0000
  H   H1342     1.0  0.60305  0.29449  0.51392  1.0000
  H   H1343     1.0  0.59518  0.28175  0.57496  1.0000
  H   H1344     1.0  0.57696  0.27336  0.56164  1.0000
  C   C1343     1.0  0.54393  0.20006  0.59100  1.0000
  C   C1344     1.0  0.53736  0.18600  0.59920  1.0000
  C   C1345     1.0  0.53185  0.18300  0.61641  1.0000
  C   C1346     1.0  0.53352  0.19367  0.62552  1.0000
  C   C1347     1.0  0.54063  0.20740  0.61740  1.0000
  C   C1348     1.0  0.54555  0.21076  0.60011  1.0000
  H   H1345     1.0  0.53617  0.17763  0.59222  1.0000
  H   H1346     1.0  0.52643  0.17235  0.62258  1.0000
  H   H1347     1.0  0.53845  0.09456  0.66384  1.0000
  H   H1348     1.0  0.55072  0.22156  0.59389  1.0000
  C   C1349     1.0  0.53670  0.08577  0.69012  1.0000
  S   S463      1.0  0.79728  0.29565  0.49104  1.0000
  C   C1350     1.0  0.57073  0.01125  0.68181  1.0000
  H   H1349     1.0  0.74784  0.24544  0.49217  1.0000
  C   C1351     1.0  0.67375  0.00282  0.69719  1.0000
  H   H1350     1.0  0.54190  0.21570  0.62440  1.0000
  C   C1352     1.0  0.65319  0.31821  0.59080  1.0000
  H   H1351     1.0  0.56630  0.12915  0.64884  1.0000
  H   H1352     1.0  0.73994  0.31899  0.51418  1.0000
  C   C1353     1.0  0.51734  0.10902  0.67751  1.0000
  C   C1354     1.0  0.63409  0.03055  0.69085  1.0000
  C   C1355     1.0  0.64440  0.03484  0.67546  1.0000
  C   C1356     1.0  0.64847  0.02461  0.66393  1.0000
  C   C1357     1.0  0.64245  0.00998  0.66793  1.0000
  C   C1358     1.0  0.62799  0.01604  0.69475  1.0000
  H   H1353     1.0  0.64892  0.04622  0.67232  1.0000
  H   H1354     1.0  0.65633  0.02797  0.65197  1.0000
  S   S464      1.0  0.51829  0.27390  0.59527  1.0000
  N   N113      1.0  0.62606  0.25422  0.53570  1.0000
  C   C1359     1.0  0.62582  0.25841  0.51919  1.0000
  C   C1360     1.0  0.63801  0.25790  0.54136  1.0000
  C   C1361     1.0  0.63767  0.26667  0.50789  1.0000
  C   C1362     1.0  0.65013  0.26601  0.53038  1.0000
  C   C1363     1.0  0.64994  0.27039  0.51355  1.0000
  H   H1355     1.0  0.52823  0.14881  0.71007  1.0000
  C   C1364     1.0  0.59377  0.02801  0.65926  1.0000
  H   H1356     1.0  0.63808  0.25480  0.55446  1.0000
  C   C1365     1.0  0.50019  0.28917  0.59424  1.0000
  H   H1357     1.0  0.61018  0.00411  0.66068  1.0000
  Fe  Fe234     1.0  0.57744  0.01849  0.72385  1.0000
  C   C1366     1.0  0.74995  0.26969  0.49319  1.0000
  C   C1367     1.0  0.59774  0.01084  0.66494  1.0000
  H   H1358     1.0  0.74797  0.29473  0.49536  1.0000
  H   H1359     1.0  0.65925  0.27678  0.50496  1.0000
  Fe  Fe235     1.0  0.50506  0.17728  0.65249  1.0000
  C   C1368     1.0  0.49673  0.29875  0.57907  1.0000
  C   C1369     1.0  0.54557  0.12347  0.68892  1.0000
  H   H1360     1.0  0.56188  0.00488  0.69116  1.0000
  H   H1361     1.0  0.54492  0.11393  0.70013  1.0000
  H   H1362     1.0  0.57472  0.05019  0.66098  1.0000
  H   H1363     1.0  0.80384  0.25636  0.49780  1.0000
  C   C1370     1.0  0.55694  0.11980  0.67465  1.0000
  C   C1371     1.0  0.53143  0.09620  0.67601  1.0000
  H   H1364     1.0  0.64829  0.28758  0.60451  1.0000
  S   S465      1.0  0.58110  0.06311  0.72292  1.0000
  H   H1365     1.0  0.60241  0.24731  0.54260  1.0000
  C   C1372     1.0  0.67209  0.01279  0.70837  1.0000
  C   C1373     1.0  0.57789  0.03681  0.66488  1.0000
  C   C1374     1.0  0.49780  0.23277  0.61268  1.0000
  S   S466      1.0  0.57689  0.99300  0.72193  1.0000
  C   C1375     1.0  0.53605  0.15068  0.67448  1.0000
  H   H1366     1.0  0.60309  0.03445  0.65084  1.0000
  H   H1367     1.0  0.52796  0.16282  0.67432  1.0000
  H   H1368     1.0  0.52706  0.20421  0.51668  1.0000
  H   H1369     1.0  0.51120  0.15009  0.70045  1.0000
  H   H1370     1.0  0.56478  0.10751  0.67485  1.0000
  N   N114      1.0  0.64003  0.31179  0.59092  1.0000
  H   H1371     1.0  0.53139  0.07974  0.71674  1.0000
  H   H1372     1.0  0.51417  0.19858  0.57775  1.0000
  H   H1373     1.0  0.61024  0.24892  0.55936  1.0000
  C   C1376     1.0  0.67913  0.00613  0.72231  1.0000
  H   H1374     1.0  0.65956  0.26903  0.53486  1.0000
  S   S467      1.0  0.64800  0.99699  0.65367  1.0000
  H   H1375     1.0  0.66494  0.31010  0.59284  1.0000
  C   C1377     1.0  0.61400  0.24498  0.54731  1.0000
  H   H1376     1.0  0.50561  0.29727  0.56775  1.0000
  H   H1377     1.0  0.71734  0.25085  0.50103  1.0000
  C   C1378     1.0  0.72393  0.26046  0.49988  1.0000
  H   H1378     1.0  0.61533  0.31704  0.58683  1.0000
  C   C1379     1.0  0.56628  0.02841  0.67625  1.0000
  H   H1379     1.0  0.50171  0.25254  0.62151  1.0000
  C   C1380     1.0  0.54733  0.14749  0.66000  1.0000
  C   C1381     1.0  0.74125  0.28519  0.49665  1.0000
  H   H1380     1.0  0.51985  0.13077  0.71210  1.0000
  H   H1381     1.0  0.54784  0.15706  0.64877  1.0000
  H   H1382     1.0  0.83086  0.25584  0.50418  1.0000
  C   C1382     1.0  0.68780  0.98970  0.72482  1.0000
  H   H1383     1.0  0.51837  0.22449  0.52154  1.0000
  C   C1383     1.0  0.55772  0.13189  0.66007  1.0000
  N   N115      1.0  0.50869  0.20455  0.53873  1.0000
  C   C1384     1.0  0.50901  0.19780  0.56772  1.0000
  C   C1385     1.0  0.51318  0.10054  0.70730  1.0000
  H   H1384     1.0  0.63721  0.27031  0.49486  1.0000
  N   N116      1.0  0.58619  0.00268  0.67591  1.0000
  H   H1385     1.0  0.61940  0.23150  0.54930  1.0000
  H   H1386     1.0  0.61611  0.25583  0.51475  1.0000
  H   H1387     1.0  0.62660  0.99525  0.68618  1.0000
  H   H1388     1.0  0.71708  0.29999  0.50495  1.0000
  S   S468      1.0  0.55517  0.03764  0.73160  1.0000
  H   H1389     1.0  0.51094  0.22818  0.60836  1.0000
  H   H1390     1.0  0.55415  0.03528  0.68122  1.0000
  H   H1391     1.0  0.66826  0.00803  0.68642  1.0000
  H   H1392     1.0  0.50609  0.10217  0.71944  1.0000
  H   H1393     1.0  0.62948  0.29021  0.59748  1.0000
  H   H1394     1.0  0.64887  0.28907  0.58289  1.0000
  C   C1386     1.0  0.64177  0.29378  0.59416  1.0000
  Fe  Fe236     1.0  0.67565  0.32031  0.54759  1.0000
  H   H1395     1.0  0.85640  0.23778  0.49215  1.0000
  C   C1387     1.0  0.84470  0.23789  0.48928  1.0000
  H   H1396     1.0  0.51347  0.11702  0.66655  1.0000
  S   S469      1.0  0.77168  0.26498  0.48655  1.0000
  C   C1388     1.0  0.62556  0.32210  0.58742  1.0000
  C   C1389     1.0  0.49660  0.19567  0.54164  1.0000
  H   H1397     1.0  0.78319  0.32122  0.51196  1.0000
  H   H1398     1.0  0.87974  0.23748  0.89213  1.0000
  S   S470      1.0  0.56454  0.04799  0.77035  1.0000
  H   H1399     1.0  0.75914  0.01987  0.96560  1.0000
  C   C1390     1.0  0.73566  0.10582  0.97537  1.0000
  S   S471      1.0  0.64396  0.00700  0.80136  1.0000
  C   C1391     1.0  0.72408  0.09983  0.97089  1.0000
  H   H1400     1.0  0.67404  0.07118  0.97360  1.0000
  C   C1392     1.0  0.77301  0.04728  0.92713  1.0000
  H   H1401     1.0  0.58154  0.06513  0.78626  1.0000
  Fe  Fe237     1.0  0.90802  0.18393  0.91703  1.0000
  S   S472      1.0  0.90636  0.19802  0.89131  1.0000
  S   S473      1.0  0.88573  0.17329  0.93242  1.0000
  Fe  Fe238     1.0  0.94419  0.18761  0.91240  1.0000
  S   S474      1.0  0.94473  0.20142  0.88626  1.0000
  S   S475      1.0  0.96923  0.18243  0.91914  1.0000
  Fe  Fe239     1.0  0.91949  0.21492  0.89650  1.0000
  S   S476      1.0  0.91288  0.24247  0.88937  1.0000
  Fe  Fe240     1.0  0.93164  0.18266  0.88439  1.0000
  S   S477      1.0  0.93868  0.17015  0.86289  1.0000
  S   S478      1.0  0.91944  0.20226  0.92294  1.0000
  S   S479      1.0  0.93281  0.16764  0.90982  1.0000
  Fe  Fe241     1.0  0.95827  0.27311  0.80743  1.0000
  S   S480      1.0  0.97540  0.27700  0.78273  1.0000
  S   S481      1.0  0.93774  0.25964  0.81215  1.0000
  C   C1393     1.0  0.97133  0.22459  0.81796  1.0000
  C   C1394     1.0  0.92812  0.31873  0.75240  1.0000
  Fe  Fe242     1.0  0.97220  0.30262  0.78710  1.0000
  C   C1395     1.0  0.78172  0.05506  0.93349  1.0000
  S   S482      1.0  0.95371  0.29895  0.81110  1.0000
  H   H1402     1.0  0.77965  0.05406  0.94675  1.0000
  Fe  Fe243     1.0  0.68110  0.15557  0.97537  1.0000
  C   C1396     1.0  0.63179  0.03647  0.76534  1.0000
  S   S483      1.0  0.69877  0.16416  0.95205  1.0000
  C   C1397     1.0  0.91098  0.30657  0.80437  1.0000
  H   H1403     1.0  0.98866  0.28724  0.87775  1.0000
  S   S484      1.0  0.65824  0.14942  0.97223  1.0000
  Fe  Fe244     1.0  0.82055  0.14007  0.90597  1.0000
  S   S485      1.0  0.82149  0.11947  0.89374  1.0000
  S   S486      1.0  0.83979  0.15597  0.89420  1.0000
  Fe  Fe245     1.0  0.79101  0.13136  0.93261  1.0000
  S   S487      1.0  0.78948  0.10999  0.92291  1.0000
  S   S488      1.0  0.77416  0.13609  0.95651  1.0000
  Fe  Fe246     1.0  0.81716  0.10426  0.91938  1.0000
  S   S489      1.0  0.83201  0.07855  0.92507  1.0000
  Fe  Fe247     1.0  0.79373  0.12702  0.89821  1.0000
  S   S490      1.0  0.78040  0.12828  0.87829  1.0000
  S   S491      1.0  0.81854  0.12403  0.93136  1.0000
  S   S492      1.0  0.79295  0.14922  0.90809  1.0000
  Fe  Fe248     1.0  0.70688  0.03694  0.89519  1.0000
  S   S493      1.0  0.70798  0.06358  0.88332  1.0000
  S   S494      1.0  0.69402  0.01985  0.88806  1.0000
  Fe  Fe249     1.0  0.72320  0.03790  0.92353  1.0000
  S   S495      1.0  0.72497  0.06437  0.91384  1.0000
  S   S496      1.0  0.73624  0.02387  0.94462  1.0000
  Fe  Fe250     1.0  0.69953  0.06811  0.90915  1.0000
  S   S497      1.0  0.68267  0.09211  0.91368  1.0000
  Fe  Fe251     1.0  0.73343  0.05766  0.88913  1.0000
  S   S498      1.0  0.75533  0.06715  0.87172  1.0000
  S   S499      1.0  0.69668  0.04203  0.92110  1.0000
  S   S500      1.0  0.73337  0.03057  0.89881  1.0000
  Fe  Fe252     1.0  0.97600  0.28971  0.82288  1.0000
  C   C1398     1.0  0.82114  0.10213  0.97466  1.0000
  H   H1404     1.0  0.92177  0.14770  0.89081  1.0000
  C   C1399     1.0  0.74812  0.02871  0.96964  1.0000
  C   C1400     1.0  0.73493  0.03328  0.96123  1.0000
  C   C1401     1.0  0.72066  0.04452  0.96676  1.0000
  H   H1405     1.0  0.56790  0.99760  0.75585  1.0000
  C   C1402     1.0  0.80693  0.06875  0.97245  1.0000
  Fe  Fe253     1.0  0.66284  0.99196  0.81674  1.0000
  H   H1406     1.0  0.71034  0.04801  0.96054  1.0000
  C   C1403     1.0  0.82613  0.06926  0.94592  1.0000
  C   C1404     1.0  0.81134  0.07615  0.95570  1.0000
  H   H1407     1.0  0.96166  0.24353  0.85913  1.0000
  H   H1408     1.0  0.96725  0.25759  0.91631  1.0000
  C   C1405     1.0  0.87156  0.22871  0.89610  1.0000
  C   C1406     1.0  0.83647  0.05501  0.95290  1.0000
  H   H1409     1.0  0.80337  0.08727  0.95046  1.0000
  H   H1410     1.0  0.69847  0.02734  0.82749  1.0000
  H   H1411     1.0  0.71675  0.12807  0.92232  1.0000
  H   H1412     1.0  0.84791  0.04965  0.94538  1.0000
  C   C1407     1.0  0.77414  0.11050  0.87748  1.0000
  C   C1408     1.0  0.76549  0.10117  0.89151  1.0000
  C   C1409     1.0  0.75905  0.08817  0.88992  1.0000
  C   C1410     1.0  0.76185  0.08407  0.87443  1.0000
  C   C1411     1.0  0.77078  0.09324  0.86060  1.0000
  C   C1412     1.0  0.77658  0.10657  0.86205  1.0000
  H   H1413     1.0  0.76328  0.10435  0.90343  1.0000
  H   H1414     1.0  0.75229  0.08112  0.90073  1.0000
  H   H1415     1.0  0.77304  0.09016  0.84860  1.0000
  H   H1416     1.0  0.78308  0.11384  0.85114  1.0000
  C   C1413     1.0  0.67265  0.09755  0.96707  1.0000
  C   C1414     1.0  0.67518  0.08186  0.96359  1.0000
  C   C1415     1.0  0.67896  0.07997  0.94713  1.0000
  C   C1416     1.0  0.67977  0.09386  0.93420  1.0000
  C   C1417     1.0  0.67768  0.10946  0.93768  1.0000
  C   C1418     1.0  0.67442  0.11124  0.95409  1.0000
  C   C1419     1.0  0.74706  0.03528  0.98347  1.0000
  H   H1417     1.0  0.68068  0.06787  0.94447  1.0000
  H   H1418     1.0  0.67846  0.12021  0.92770  1.0000
  H   H1419     1.0  0.67295  0.12328  0.95663  1.0000
  C   C1420     1.0  0.71970  0.15653  0.95338  1.0000
  C   C1421     1.0  0.73189  0.15582  0.93887  1.0000
  C   C1422     1.0  0.74866  0.14938  0.93969  1.0000
  C   C1423     1.0  0.75331  0.14418  0.95504  1.0000
  C   C1424     1.0  0.74116  0.14520  0.96951  1.0000
  C   C1425     1.0  0.72436  0.15115  0.96873  1.0000
  H   H1420     1.0  0.72830  0.16031  0.92702  1.0000
  H   H1421     1.0  0.75798  0.14873  0.92845  1.0000
  H   H1422     1.0  0.89722  0.30931  0.80803  1.0000
  H   H1423     1.0  0.94664  0.25023  0.88620  1.0000
  C   C1426     1.0  0.87313  0.16798  0.92191  1.0000
  C   C1427     1.0  0.85935  0.16107  0.93090  1.0000
  C   C1428     1.0  0.84899  0.15717  0.92266  1.0000
  C   C1429     1.0  0.85223  0.16043  0.90535  1.0000
  C   C1430     1.0  0.86594  0.16734  0.89643  1.0000
  C   C1431     1.0  0.87645  0.17085  0.90465  1.0000
  H   H1424     1.0  0.85665  0.15879  0.94428  1.0000
  H   H1425     1.0  0.83838  0.15190  0.92966  1.0000
  H   H1426     1.0  0.86861  0.16979  0.88305  1.0000
  H   H1427     1.0  0.88717  0.17566  0.89752  1.0000
  C   C1432     1.0  0.91863  0.24792  0.86783  1.0000
  C   C1433     1.0  0.92554  0.26191  0.86046  1.0000
  C   C1434     1.0  0.93147  0.26549  0.84333  1.0000
  C   C1435     1.0  0.92978  0.25555  0.83348  1.0000
  C   C1436     1.0  0.92223  0.24195  0.84079  1.0000
  C   C1437     1.0  0.91704  0.23790  0.85801  1.0000
  H   H1428     1.0  0.92675  0.26973  0.86801  1.0000
  H   H1429     1.0  0.93726  0.27602  0.83779  1.0000
  H   H1430     1.0  0.92076  0.23432  0.83320  1.0000
  H   H1431     1.0  0.91167  0.22710  0.86365  1.0000
  C   C1438     1.0  0.95807  0.15675  0.86355  1.0000
  C   C1439     1.0  0.97052  0.15698  0.84922  1.0000
  C   C1440     1.0  0.96161  0.14685  0.87855  1.0000
  H   H1432     1.0  0.96787  0.16457  0.83756  1.0000
  H   H1433     1.0  0.95202  0.14621  0.88957  1.0000
  C   C1441     1.0  0.73196  0.13803  0.89936  1.0000
  H   H1434     1.0  0.91601  0.31419  0.80983  1.0000
  H   H1435     1.0  0.74476  0.14128  0.98135  1.0000
  C   C1442     1.0  0.97668  0.19956  0.91999  1.0000
  C   C1443     1.0  0.62869  0.04144  0.74938  1.0000
  S   S501      1.0  0.97862  0.26342  0.82149  1.0000
  H   H1436     1.0  0.84816  0.21221  0.88051  1.0000
  H   H1437     1.0  0.70887  0.10856  0.91022  1.0000
  H   H1438     1.0  0.73588  0.14631  0.90457  1.0000
  C   C1444     1.0  0.68286  0.01006  0.84132  1.0000
  C   C1445     1.0  0.79304  0.06424  0.92262  1.0000
  C   C1446     1.0  0.69650  0.02454  0.85375  1.0000
  C   C1447     1.0  0.68981  0.01665  0.86972  1.0000
  C   C1448     1.0  0.67961  0.00546  0.87133  1.0000
  C   C1449     1.0  0.67610  0.00224  0.85730  1.0000
  H   H1439     1.0  0.70440  0.03313  0.85217  1.0000
  C   C1450     1.0  0.95891  0.25763  0.90822  1.0000
  H   H1440     1.0  0.99304  0.15024  0.92113  1.0000
  C   C1451     1.0  0.57399  0.03317  0.78559  1.0000
  C   C1452     1.0  0.56611  0.03233  0.80221  1.0000
  C   C1453     1.0  0.57395  0.02178  0.81475  1.0000
  C   C1454     1.0  0.58989  0.01225  0.81078  1.0000
  C   C1455     1.0  0.59782  0.01295  0.79417  1.0000
  C   C1456     1.0  0.58982  0.02331  0.78160  1.0000
  H   H1441     1.0  0.55394  0.03999  0.80542  1.0000
  H   H1442     1.0  0.56778  0.02130  0.82758  1.0000
  H   H1443     1.0  0.61023  0.00578  0.79099  1.0000
  H   H1444     1.0  0.59630  0.02427  0.76893  1.0000
  H   H1445     1.0  0.94362  0.20022  0.83871  1.0000
  H   H1446     1.0  0.88681  0.13274  0.87261  1.0000
  C   C1457     1.0  0.90353  0.13581  0.90924  1.0000
  H   H1447     1.0  0.99451  0.22274  0.82440  1.0000
  H   H1448     1.0  0.98034  0.12993  0.89098  1.0000
  C   C1458     1.0  0.98668  0.14804  0.85010  1.0000
  H   H1449     1.0  0.64290  0.02738  0.76774  1.0000
  C   C1459     1.0  0.96747  0.21039  0.93038  1.0000
  C   C1460     1.0  0.81750  0.05472  0.97955  1.0000
  Fe  Fe254     1.0  0.99560  0.26980  0.79717  1.0000
  C   C1461     1.0  0.61445  0.05320  0.74638  1.0000
  H   H1450     1.0  0.90784  0.13709  0.91963  1.0000
  C   C1462     1.0  0.85377  0.21466  0.88941  1.0000
  C   C1463     1.0  0.98507  0.25163  0.88824  1.0000
  C   C1464     1.0  0.99397  0.19758  0.85074  1.0000
  C   C1465     1.0  0.83226  0.04788  0.96973  1.0000
  H   H1451     1.0  0.62278  0.03913  0.79060  1.0000
  C   C1466     1.0  0.97460  0.22244  0.93282  1.0000
  H   H1452     1.0  0.76406  0.04029  0.93537  1.0000
  H   H1453     1.0  0.79969  0.07037  0.92762  1.0000
  C   C1467     1.0  0.73778  0.13749  0.88268  1.0000
  H   H1454     1.0  0.73821  0.12564  0.86334  1.0000
  H   H1455     1.0  0.74638  0.14518  0.87496  1.0000
  N   N117      1.0  0.91644  0.31025  0.78634  1.0000
  C   C1468     1.0  0.95997  0.24941  0.88262  1.0000
  C   C1469     1.0  0.93089  0.30112  0.77902  1.0000
  H   H1456     1.0  0.99166  0.25441  0.89611  1.0000
  C   C1470     1.0  0.98342  0.21768  0.82757  1.0000
  C   C1471     1.0  0.71933  0.05052  0.98100  1.0000
  H   H1457     1.0  0.63406  0.10084  0.98070  1.0000
  N   N118      1.0  0.60613  0.05421  0.77521  1.0000
  H   H1458     1.0  0.68673  0.00839  0.94145  1.0000
  H   H1459     1.0  0.95511  0.20900  0.93712  1.0000
  H   H1460     1.0  0.68210  0.00689  0.92278  1.0000
  H   H1461     1.0  0.82911  0.10202  0.96253  1.0000
  C   C1472     1.0  0.95707  0.21811  0.82180  1.0000
  S   S502      1.0  0.67928  0.00624  0.82297  1.0000
  H   H1462     1.0  0.80549  0.12563  0.96697  1.0000
  S   S503      1.0  0.65190  0.99468  0.75864  1.0000
  H   H1463     1.0  0.72452  0.10043  0.95799  1.0000
  C   C1473     1.0  0.96844  0.24548  0.86735  1.0000
  C   C1474     1.0  0.89152  0.13345  0.88296  1.0000
  H   H1464     1.0  0.93800  0.29080  0.78640  1.0000
  H   H1465     1.0  0.59334  0.05101  0.80040  1.0000
  C   C1475     1.0  0.93698  0.30525  0.76198  1.0000
  H   H1466     1.0  0.97295  0.23490  0.80757  1.0000
  H   H1467     1.0  0.99082  0.20356  0.86152  1.0000
  S   S504      1.0  0.97660  0.29283  0.84799  1.0000
  N   N119      1.0  0.62899  0.12359  0.96334  1.0000
  H   H1468     1.0  0.91540  0.29326  0.80970  1.0000
  C   C1476     1.0  0.86425  0.22596  0.88445  1.0000
  N   N120      1.0  0.86877  0.22017  0.91215  1.0000
  S   S505      1.0  0.59986  0.99996  0.82675  1.0000
  H   H1469     1.0  0.85617  0.20244  0.92988  1.0000
  H   H1470     1.0  0.86319  0.12400  0.89144  1.0000
  H   H1471     1.0  0.72487  0.09184  0.88354  1.0000
  H   H1472     1.0  0.64236  0.12323  0.93863  1.0000
  H   H1473     1.0  0.70448  0.10482  0.88316  1.0000
  C   C1477     1.0  0.90526  0.14074  0.87985  1.0000
  H   H1474     1.0  0.95058  0.24898  0.91530  1.0000
  H   H1475     1.0  0.84050  0.03707  0.97518  1.0000
  C   C1478     1.0  0.91127  0.14189  0.89309  1.0000
  C   C1479     1.0  0.88982  0.12860  0.91191  1.0000
  C   C1480     1.0  0.60318  0.05945  0.75951  1.0000
  C   C1481     1.0  0.59426  0.06082  0.78891  1.0000
  H   H1476     1.0  0.94768  0.22334  0.81435  1.0000
  H   H1477     1.0  0.71506  0.15193  0.97998  1.0000
  C   C1482     1.0  0.99396  0.24757  0.87314  1.0000
  H   H1478     1.0  0.71469  0.00187  0.94422  1.0000
  N   N121      1.0  0.96830  0.25251  0.89279  1.0000
  C   C1483     1.0  0.99091  0.22387  0.92477  1.0000
  H   H1479     1.0  0.94886  0.29847  0.75638  1.0000
  H   H1480     1.0  0.64261  0.10325  0.95180  1.0000
  Fe  Fe255     1.0  0.62700  0.99066  0.81771  1.0000
  H   H1481     1.0  0.59821  0.07128  0.79116  1.0000
  H   H1482     1.0  0.62385  0.11460  0.94471  1.0000
  H   H1483     1.0  0.95139  0.27037  0.90539  1.0000
  H   H1484     1.0  0.61263  0.16134  0.97299  1.0000
  N   N122      1.0  0.79567  0.06554  0.90591  1.0000
  C   C1484     1.0  0.78732  0.05776  0.89959  1.0000
  C   C1485     1.0  0.77581  0.04861  0.91008  1.0000
  C   C1486     1.0  0.80703  0.07588  0.89482  1.0000
  H   H1485     1.0  0.78913  0.05898  0.88633  1.0000
  H   H1486     1.0  0.76887  0.04286  0.90498  1.0000
  H   H1487     1.0  0.80157  0.08915  0.89507  1.0000
  H   H1488     1.0  0.81913  0.07250  0.89878  1.0000
  H   H1489     1.0  0.80950  0.07447  0.88181  1.0000
  N   N123      1.0  0.88392  0.12761  0.89885  1.0000
  N   N124      1.0  0.72261  0.11637  0.88598  1.0000
  H   H1490     1.0  0.62285  0.14788  0.94882  1.0000
  H   H1491     1.0  0.88103  0.21110  0.93243  1.0000
  C   C1487     1.0  0.87653  0.22304  0.92427  1.0000
  C   C1488     1.0  0.61708  0.14800  0.97473  1.0000
  C   C1489     1.0  0.63467  0.11579  0.94893  1.0000
  C   C1490     1.0  0.62039  0.04314  0.77817  1.0000
  H   H1492     1.0  0.86741  0.23132  0.93199  1.0000
  H   H1493     1.0  0.88745  0.22885  0.91816  1.0000
  H   H1494     1.0  0.88369  0.12417  0.92451  1.0000
  H   H1495     1.0  0.84264  0.19743  0.90986  1.0000
  H   H1496     1.0  0.61087  0.99522  0.76058  1.0000
  C   C1491     1.0  0.85062  0.20639  0.90590  1.0000
  H   H1497     1.0  0.87398  0.10601  0.90397  1.0000
  C   C1492     1.0  0.85831  0.20928  0.91717  1.0000
  C   C1493     1.0  0.73307  0.12642  0.87617  1.0000
  H   H1498     1.0  0.59185  0.06819  0.75714  1.0000
  C   C1494     1.0  0.98554  0.24463  0.86259  1.0000
  C   C1495     1.0  0.86975  0.11969  0.90195  1.0000
  H   H1499     1.0  0.72108  0.10723  0.86543  1.0000
  C   C1496     1.0  0.69310  0.02121  0.83972  1.0000
  C   C1497     1.0  0.71688  0.11677  0.90239  1.0000
  H   H1500     1.0  0.86682  0.23246  0.87166  1.0000
  C   C1498     1.0  0.71803  0.10453  0.87917  1.0000
  H   H1501     1.0  0.86037  0.12297  0.91296  1.0000
  H   H1502     1.0  0.96757  0.23045  0.94127  1.0000
  H   H1503     1.0  0.79574  0.07436  0.97998  1.0000
  H   H1504     1.0  0.91117  0.14564  0.86728  1.0000
  C   C1499     1.0  0.72137  0.12768  0.90932  1.0000
  H   H1505     1.0  0.74523  0.11110  0.96598  1.0000
  S   S506      1.0  0.99427  0.29579  0.79917  1.0000
  N   N125      1.0  0.98133  0.20464  0.84062  1.0000
  H   H1506     1.0  0.63728  0.03617  0.73935  1.0000
  C   C1500     1.0  0.80774  0.11537  0.97723  1.0000
  H   H1507     1.0  0.96519  0.18870  0.85550  1.0000
  C   C1501     1.0  0.71180  0.09315  0.98320  1.0000
  C   C1502     1.0  0.62914  0.11410  0.97890  1.0000
  Fe  Fe256     1.0  0.57229  0.04354  0.74441  1.0000
  C   C1503     1.0  0.62296  0.14033  0.96114  1.0000
  H   H1508     1.0  0.74446  0.99322  0.93253  1.0000
  C   C1504     1.0  0.71831  0.99647  0.93333  1.0000
  C   C1505     1.0  0.73523  0.99156  0.92677  1.0000
  H   H1509     1.0  0.70276  0.08866  0.97964  1.0000
  C   C1506     1.0  0.97766  0.13753  0.87934  1.0000
  H   H1510     1.0  0.67431  0.99924  0.88354  1.0000
  H   H1511     1.0  0.99224  0.24209  0.85060  1.0000
  H   H1512     1.0  0.99379  0.21298  0.78052  1.0000
  H   H1513     1.0  0.66824  0.99362  0.85885  1.0000
  S   S507      1.0  0.59369  0.02298  0.73820  1.0000
  C   C1507     1.0  0.95481  0.20517  0.83542  1.0000
  H   H1514     1.0  0.99470  0.18401  0.85535  1.0000
  C   C1508     1.0  0.99029  0.13833  0.86517  1.0000
  C   C1509     1.0  0.96708  0.19865  0.84484  1.0000
  C   C1510     1.0  0.68887  0.99995  0.93284  1.0000
  N   N126      1.0  0.70658  0.99481  0.92591  1.0000
  C   C1511     1.0  0.99280  0.20132  0.91153  1.0000
  H   H1515     1.0  0.99630  0.14878  0.83910  1.0000
  H   H1516     1.0  0.61211  0.05730  0.73395  1.0000
  Fe  Fe257     1.0  0.70293  0.56953  0.03148  1.0000
  S   S508      1.0  0.72411  0.54797  0.03542  1.0000
  S   S509      1.0  0.68492  0.57090  0.01610  1.0000
  Fe  Fe258     1.0  0.71440  0.59067  0.04781  1.0000
  S   S510      1.0  0.73675  0.57120  0.05287  1.0000
  S   S511      1.0  0.70821  0.61467  0.05619  1.0000
  Fe  Fe259     1.0  0.73940  0.56755  0.02718  1.0000
  S   S512      1.0  0.76248  0.56781  0.00704  1.0000
  Fe  Fe260     1.0  0.71930  0.55363  0.06069  1.0000
  S   S513      1.0  0.72055  0.53550  0.08497  1.0000
  S   S514      1.0  0.71853  0.58870  0.02156  1.0000
  S   S515      1.0  0.69660  0.57349  0.05742  1.0000
  C   C1512     1.0  0.98417  0.58173  0.22854  1.0000
  H   H1517     1.0  0.80711  0.56052  0.00307  1.0000
  H   H1518     1.0  0.77604  0.60509  0.07828  1.0000
  H   H1519     1.0  0.60496  0.49882  0.11962  1.0000
  C   C1513     1.0  0.52156  0.53030  0.21826  1.0000
  H   H1520     1.0  0.52209  0.52375  0.23120  1.0000
  C   C1514     1.0  0.70481  0.65154  0.01552  1.0000
  H   H1521     1.0  0.68863  0.56079  0.09297  1.0000
  H   H1522     1.0  0.77178  0.62609  0.06639  1.0000
  H   H1523     1.0  0.64630  0.53973  0.15044  1.0000
  Fe  Fe261     1.0  0.57217  0.40401  0.20379  1.0000
  S   S516      1.0  0.59871  0.40558  0.19221  1.0000
  S   S517      1.0  0.54949  0.41406  0.19282  1.0000
  Fe  Fe262     1.0  0.64174  0.50923  0.17831  1.0000
  S   S518      1.0  0.66611  0.49655  0.16490  1.0000
  S   S519      1.0  0.63803  0.53255  0.18727  1.0000
  Fe  Fe263     1.0  0.62219  0.48711  0.17280  1.0000
  S   S520      1.0  0.64452  0.47269  0.15856  1.0000
  S   S521      1.0  0.59674  0.48215  0.17743  1.0000
  Fe  Fe264     1.0  0.65683  0.47324  0.17849  1.0000
  S   S522      1.0  0.66987  0.44902  0.19153  1.0000
  Fe  Fe265     1.0  0.65146  0.49718  0.14628  1.0000
  S   S523      1.0  0.65676  0.50511  0.11855  1.0000
  S   S524      1.0  0.63385  0.48594  0.19368  1.0000
  S   S525      1.0  0.62780  0.51159  0.15876  1.0000
  C   C1515     1.0  0.55305  0.49978  0.18578  1.0000
  C   C1516     1.0  0.65809  0.54249  0.14315  1.0000
  C   C1517     1.0  0.52627  0.46437  0.22724  1.0000
  C   C1518     1.0  0.51246  0.34653  0.17788  1.0000
  C   C1519     1.0  0.65965  0.55006  0.12638  1.0000
  C   C1520     1.0  0.52710  0.50703  0.20455  1.0000
  H   H1524     1.0  0.98077  0.59305  0.21966  1.0000
  S   S526      1.0  0.77476  0.64993  0.99171  1.0000
  S   S527      1.0  0.80768  0.64257  0.00788  1.0000
  C   C1521     1.0  0.68803  0.54990  0.12431  1.0000
  C   C1522     1.0  0.54793  0.52265  0.19922  1.0000
  C   C1523     1.0  0.66890  0.44998  0.21196  1.0000
  H   H1525     1.0  0.79461  0.62053  0.04365  1.0000
  S   S528      1.0  0.53088  0.37851  0.19315  1.0000
  H   H1526     1.0  0.61084  0.51564  0.19952  1.0000
  C   C1524     1.0  0.79410  0.60561  0.02719  1.0000
  H   H1527     1.0  0.66778  0.47626  0.20639  1.0000
  H   H1528     1.0  0.66983  0.62845  0.02248  1.0000
  H   H1529     1.0  0.71393  0.63874  0.07030  1.0000
  H   H1530     1.0  0.64895  0.55296  0.12074  1.0000
  S   S529      1.0  0.98579  0.61957  0.16718  1.0000
  H   H1531     1.0  0.63795  0.43609  0.21337  1.0000
  C   C1525     1.0  0.58219  0.55139  0.20219  1.0000
  H   H1532     1.0  0.62291  0.50154  0.12524  1.0000
  N   N127      1.0  0.53238  0.51991  0.20688  1.0000
  C   C1526     1.0  0.76751  0.59583  0.05091  1.0000
  H   H1533     1.0  0.56109  0.49203  0.17746  1.0000
  C   C1527     1.0  0.59861  0.42675  0.18799  1.0000
  C   C1528     1.0  0.58364  0.43818  0.18711  1.0000
  C   C1529     1.0  0.58311  0.45513  0.18414  1.0000
  C   C1530     1.0  0.59760  0.46081  0.18205  1.0000
  C   C1531     1.0  0.61263  0.44941  0.18318  1.0000
  C   C1532     1.0  0.61317  0.43236  0.18600  1.0000
  H   H1534     1.0  0.57236  0.43401  0.18853  1.0000
  H   H1535     1.0  0.57141  0.46372  0.18341  1.0000
  H   H1536     1.0  0.62380  0.45364  0.18208  1.0000
  H   H1537     1.0  0.62478  0.42355  0.18682  1.0000
  H   H1538     1.0  0.69987  0.55251  0.11695  1.0000
  C   C1533     1.0  0.76950  0.61337  0.06857  1.0000
  H   H1539     1.0  0.62842  0.37641  0.20956  1.0000
  C   C1534     1.0  0.61653  0.53994  0.19258  1.0000
  C   C1535     1.0  0.60998  0.55692  0.19139  1.0000
  C   C1536     1.0  0.59276  0.56267  0.19595  1.0000
  H   H1540     1.0  0.80459  0.60933  0.01797  1.0000
  H   H1541     1.0  0.60516  0.49778  0.14101  1.0000
  H   H1542     1.0  0.61816  0.56563  0.18686  1.0000
  H   H1543     1.0  0.58768  0.57580  0.19502  1.0000
  C   C1537     1.0  0.70353  0.52583  0.09366  1.0000
  C   C1538     1.0  0.70187  0.51669  0.10997  1.0000
  C   C1539     1.0  0.68756  0.51025  0.11774  1.0000
  C   C1540     1.0  0.67503  0.51261  0.10906  1.0000
  C   C1541     1.0  0.67693  0.52130  0.09258  1.0000
  C   C1542     1.0  0.69112  0.52798  0.08490  1.0000
  H   H1544     1.0  0.71153  0.51488  0.11673  1.0000
  H   H1545     1.0  0.68630  0.50336  0.13036  1.0000
  H   H1546     1.0  0.66732  0.52305  0.08577  1.0000
  H   H1547     1.0  0.69238  0.53491  0.07226  1.0000
  C   C1543     1.0  0.72428  0.62555  0.05048  1.0000
  C   C1544     1.0  0.72394  0.63693  0.05974  1.0000
  S   S530      1.0  0.66005  0.64748  0.99218  1.0000
  H   H1548     1.0  0.67083  0.58951  0.98805  1.0000
  C   C1545     1.0  0.74970  0.63254  0.03234  1.0000
  C   C1546     1.0  0.73716  0.62333  0.03674  1.0000
  C   C1547     1.0  0.66622  0.46597  0.23245  1.0000
  H   H1549     1.0  0.60159  0.36928  0.21187  1.0000
  H   H1550     1.0  0.75975  0.63062  0.02191  1.0000
  H   H1551     1.0  0.73739  0.61460  0.02949  1.0000
  C   C1548     1.0  0.67612  0.59193  0.01046  1.0000
  C   C1549     1.0  0.67574  0.60294  0.02019  1.0000
  C   C1550     1.0  0.67008  0.61999  0.01493  1.0000
  C   C1551     1.0  0.66530  0.62608  0.99967  1.0000
  H   H1552     1.0  0.67005  0.42382  0.22128  1.0000
  C   C1552     1.0  0.67070  0.59797  0.99553  1.0000
  H   H1553     1.0  0.67980  0.59833  0.03181  1.0000
  C   C1553     1.0  0.60235  0.45332  0.22467  1.0000
  H   H1554     1.0  0.51333  0.35547  0.21992  1.0000
  H   H1555     1.0  0.58077  0.52564  0.20822  1.0000
  C   C1554     1.0  0.68695  0.54211  0.14100  1.0000
  C   C1555     1.0  0.67183  0.53851  0.15047  1.0000
  H   H1556     1.0  0.69778  0.53882  0.14651  1.0000
  H   H1557     1.0  0.67073  0.53259  0.16347  1.0000
  C   C1556     1.0  0.78851  0.61169  0.04179  1.0000
  H   H1558     1.0  0.62530  0.52680  0.22332  1.0000
  C   C1557     1.0  0.67556  0.56252  0.09995  1.0000
  H   H1559     1.0  0.52535  0.54234  0.21603  1.0000
  S   S531      1.0  0.56201  0.41776  0.22430  1.0000
  C   C1558     1.0  0.55850  0.51263  0.18859  1.0000
  H   H1560     1.0  0.55224  0.53264  0.20129  1.0000
  H   H1561     1.0  0.75698  0.59203  0.06004  1.0000
  H   H1562     1.0  0.75587  0.61441  0.07306  1.0000
  H   H1563     1.0  0.67053  0.57598  0.09930  1.0000
  H   H1564     1.0  0.59848  0.44776  0.21666  1.0000
  H   H1565     1.0  0.65519  0.36496  0.22340  1.0000
  S   S532      1.0  0.52700  0.45336  0.21215  1.0000
  C   C1559     1.0  0.80801  0.56800  0.99026  1.0000
  C   C1560     1.0  0.58881  0.53443  0.20348  1.0000
  S   S533      1.0  0.52782  0.40400  0.23035  1.0000
  H   H1566     1.0  0.63616  0.42937  0.13761  1.0000
  N   N128      1.0  0.67448  0.55370  0.11722  1.0000
  C   C1561     1.0  0.61271  0.49458  0.12912  1.0000
  C   C1562     1.0  0.66754  0.46517  0.21600  1.0000
  C   C1563     1.0  0.50470  0.33731  0.19256  1.0000
  C   C1564     1.0  0.60590  0.52875  0.19845  1.0000
  Fe  Fe266     1.0  0.53868  0.42593  0.21489  1.0000
  C   C1565     1.0  0.51316  0.35307  0.20818  1.0000
  H   H1567     1.0  0.73638  0.65440  0.06300  1.0000
  H   H1568     1.0  0.49911  0.33376  0.21915  1.0000
  C   C1566     1.0  0.66560  0.61506  0.98999  1.0000
  C   C1567     1.0  0.53729  0.49686  0.19385  1.0000
  N   N129      1.0  0.77520  0.60694  0.05331  1.0000
  C   C1568     1.0  0.77261  0.58980  0.03628  1.0000
  H   H1569     1.0  0.58068  0.47322  0.22516  1.0000
  H   H1570     1.0  0.50849  0.53307  0.21679  1.0000
  C   C1569     1.0  0.52035  0.35900  0.17837  1.0000
  H   H1571     1.0  0.81911  0.57365  0.98714  1.0000
  C   C1570     1.0  0.62259  0.36966  0.22131  1.0000
  H   H1572     1.0  0.53312  0.48656  0.19213  1.0000
  H   H1573     1.0  0.52626  0.36604  0.16692  1.0000
  H   H1574     1.0  0.60719  0.44052  0.15087  1.0000
  H   H1575     1.0  0.64290  0.47906  0.11576  1.0000
  Fe  Fe267     1.0  0.98130  0.64701  0.15631  1.0000
  C   C1571     1.0  0.74948  0.64368  0.04189  1.0000
  S   S534      1.0  0.76543  0.65455  0.03768  1.0000
  H   H1576     1.0  0.57090  0.51476  0.18263  1.0000
  C   C1572     1.0  0.59213  0.46766  0.22957  1.0000
  H   H1577     1.0  0.51234  0.34411  0.16613  1.0000
  S   S535      1.0  0.56425  0.38047  0.21807  1.0000
  H   H1578     1.0  0.73847  0.55251  0.00120  1.0000
  H   H1579     1.0  0.76626  0.58142  0.03402  1.0000
  H   H1580     1.0  0.59660  0.47081  0.14674  1.0000
  S   S536      1.0  0.56087  0.55833  0.20924  1.0000
  H   H1581     1.0  0.79684  0.57817  0.98983  1.0000
  C   C1573     1.0  0.52084  0.36237  0.19350  1.0000
  C   C1574     1.0  0.50508  0.34074  0.20768  1.0000
  H   H1582     1.0  0.55234  0.46490  0.22109  1.0000
  Fe  Fe268     1.0  0.54033  0.39120  0.20871  1.0000
  H   H1583     1.0  0.65404  0.44889  0.11979  1.0000
  H   H1584     1.0  0.66856  0.55769  0.09360  1.0000
  C   C1575     1.0  0.66889  0.43560  0.22440  1.0000
  H   H1585     1.0  0.64801  0.50549  0.23285  1.0000
  H   H1586     1.0  0.97248  0.56723  0.21966  1.0000
  H   H1587     1.0  0.51505  0.50440  0.21115  1.0000
  C   C1576     1.0  0.78586  0.59489  0.02433  1.0000
  N   N130      1.0  0.61702  0.44648  0.22984  1.0000
  H   H1588     1.0  0.78964  0.59068  0.01279  1.0000
  N   N131      1.0  0.61920  0.47667  0.13124  1.0000
  C   C1577     1.0  0.60917  0.46604  0.14067  1.0000
  C   C1578     1.0  0.63498  0.47066  0.12342  1.0000
  C   C1579     1.0  0.61508  0.44889  0.14304  1.0000
  C   C1580     1.0  0.64135  0.45357  0.12562  1.0000
  C   C1581     1.0  0.63134  0.44265  0.13559  1.0000
  C   C1582     1.0  0.75851  0.56516  0.98880  1.0000
  H   H1589     1.0  0.70073  0.64246  0.02639  1.0000
  Fe  Fe269     1.0  0.80157  0.63770  0.98582  1.0000
  H   H1590     1.0  0.62124  0.42497  0.21975  1.0000
  H   H1591     1.0  0.72783  0.60738  0.98559  1.0000
  C   C1583     1.0  0.73660  0.64581  0.05558  1.0000
  C   C1584     1.0  0.74611  0.55688  0.98948  1.0000
  H   H1592     1.0  0.70938  0.58800  0.98969  1.0000
  H   H1593     1.0  0.79304  0.54278  0.99581  1.0000
  C   C1585     1.0  0.69861  0.65431  0.00126  1.0000
  H   H1594     1.0  0.64385  0.38403  0.23001  1.0000
  C   C1586     1.0  0.97955  0.56724  0.22853  1.0000
  C   C1587     1.0  0.60736  0.36567  0.22255  1.0000
  C   C1588     1.0  0.54037  0.46924  0.22850  1.0000
  C   C1589     1.0  0.62809  0.43200  0.22393  1.0000
  H   H1595     1.0  0.60503  0.55272  0.22742  1.0000
  C   C1590     1.0  0.64555  0.37031  0.23317  1.0000
  H   H1596     1.0  0.68973  0.64738  0.00096  1.0000
  Fe  Fe270     1.0  0.54106  0.54734  0.27076  1.0000
  S   S537      1.0  0.56604  0.54741  0.25403  1.0000
  S   S538      1.0  0.52961  0.56508  0.28835  1.0000
  Fe  Fe271     1.0  0.53634  0.51811  0.25864  1.0000
  H   H1597     1.0  0.59532  0.60434  0.34794  1.0000
  S   S539      1.0  0.52007  0.49999  0.26141  1.0000
  Fe  Fe272     1.0  0.57014  0.51982  0.26161  1.0000
  S   S540      1.0  0.59528  0.50525  0.26506  1.0000
  C   C1591     1.0  0.59884  0.64444  0.33231  1.0000
  S   S541      1.0  0.54611  0.51968  0.28006  1.0000
  H   H1598     1.0  0.50484  0.59911  0.28749  1.0000
  H   H1599     1.0  0.64888  0.49982  0.25438  1.0000
  S   S542      1.0  0.55877  0.38690  0.26362  1.0000
  H   H1600     1.0  0.58729  0.35487  0.23902  1.0000
  Fe  Fe273     1.0  0.65168  0.43203  0.28287  1.0000
  S   S543      1.0  0.62659  0.43047  0.28087  1.0000
  S   S544      1.0  0.66204  0.45337  0.26565  1.0000
  Fe  Fe274     1.0  0.65335  0.40283  0.31213  1.0000
  S   S545      1.0  0.62831  0.39841  0.31204  1.0000
  S   S546      1.0  0.66770  0.38763  0.33203  1.0000
  Fe  Fe275     1.0  0.63640  0.40321  0.28431  1.0000
  S   S547      1.0  0.63108  0.39243  0.26518  1.0000
  Fe  Fe276     1.0  0.62073  0.42602  0.30843  1.0000
  S   S548      1.0  0.59668  0.44033  0.32015  1.0000
  S   S549      1.0  0.66234  0.40487  0.28454  1.0000
  S   S550      1.0  0.64494  0.43017  0.31027  1.0000
  Fe  Fe277     1.0  0.70181  0.40505  0.40030  1.0000
  S   S551      1.0  0.71768  0.38036  0.39703  1.0000
  S   S552      1.0  0.68698  0.42067  0.38109  1.0000
  Fe  Fe278     1.0  0.71125  0.40214  0.43369  1.0000
  S   S553      1.0  0.72778  0.37709  0.43266  1.0000
  S   S554      1.0  0.70368  0.41162  0.45761  1.0000
  Fe  Fe279     1.0  0.73633  0.38818  0.40590  1.0000
  S   S555      1.0  0.76202  0.38319  0.39057  1.0000
  Fe  Fe280     1.0  0.70753  0.37184  0.42382  1.0000
  S   S556      1.0  0.70061  0.34704  0.43330  1.0000
  S   S557      1.0  0.72130  0.41383  0.40729  1.0000
  S   S558      1.0  0.69017  0.39601  0.42670  1.0000
  S   S559      1.0  0.77907  0.34508  0.48107  1.0000
  H   H1601     1.0  0.75097  0.37860  0.36249  1.0000
  H   H1602     1.0  0.72931  0.37792  0.47675  1.0000
  C   C1592     1.0  0.98418  0.55277  0.23990  1.0000
  H   H1603     1.0  0.96723  0.33020  0.29498  1.0000
  Fe  Fe281     1.0  0.55142  0.63454  0.31492  1.0000
  S   S560      1.0  0.55530  0.63512  0.33984  1.0000
  S   S561      1.0  0.56656  0.61606  0.29913  1.0000
  H   H1604     1.0  0.63357  0.44830  0.24386  1.0000
  N   N132      1.0  0.62978  0.36555  0.23479  1.0000
  Fe  Fe282     1.0  0.52752  0.64179  0.34628  1.0000
  C   C1593     1.0  0.99039  0.36848  0.30402  1.0000
  H   H1605     1.0  0.63191  0.40615  0.34214  1.0000
  S   S562      1.0  0.52376  0.63878  0.32240  1.0000
  H   H1606     1.0  0.51979  0.44585  0.26607  1.0000
  C   C1594     1.0  0.62189  0.45359  0.23988  1.0000
  H   H1607     1.0  0.52919  0.60987  0.26940  1.0000
  H   H1608     1.0  0.66558  0.47762  0.23549  1.0000
  C   C1595     1.0  0.74389  0.41694  0.47164  1.0000
  C   C1596     1.0  0.64635  0.40645  0.39182  1.0000
  C   C1597     1.0  0.68449  0.34821  0.45067  1.0000
  H   H1609     1.0  0.61426  0.39870  0.23867  1.0000
  C   C1598     1.0  0.67222  0.36266  0.45130  1.0000
  N   N133      1.0  0.63134  0.41110  0.36527  1.0000
  H   H1610     1.0  0.67122  0.37216  0.44029  1.0000
  C   C1599     1.0  0.77347  0.36358  0.39792  1.0000
  C   C1600     1.0  0.77210  0.35715  0.41491  1.0000
  C   C1601     1.0  0.78136  0.34143  0.42058  1.0000
  N   N134      1.0  0.72585  0.41590  0.35260  1.0000
  C   C1602     1.0  0.50611  0.61151  0.28727  1.0000
  C   C1603     1.0  0.78403  0.35422  0.38664  1.0000
  H   H1611     1.0  0.76431  0.36450  0.42367  1.0000
  N   N135      1.0  0.59764  0.64572  0.31636  1.0000
  H   H1612     1.0  0.58177  0.45166  0.27959  1.0000
  H   H1613     1.0  0.78520  0.35919  0.37350  1.0000
  C   C1604     1.0  0.60672  0.35354  0.25146  1.0000
  C   C1605     1.0  0.73378  0.41465  0.46209  1.0000
  H   H1614     1.0  0.70858  0.42165  0.33676  1.0000
  H   H1615     1.0  0.64039  0.43303  0.38829  1.0000
  H   H1616     1.0  0.73842  0.41487  0.44903  1.0000
  H   H1617     1.0  0.68420  0.38676  0.46455  1.0000
  S   S563      1.0  0.52866  0.54590  0.25102  1.0000
  C   C1606     1.0  0.67373  0.39703  0.34507  1.0000
  C   C1607     1.0  0.67057  0.41425  0.34323  1.0000
  C   C1608     1.0  0.67474  0.42130  0.35432  1.0000
  C   C1609     1.0  0.68225  0.41123  0.36730  1.0000
  C   C1610     1.0  0.68569  0.39401  0.36901  1.0000
  C   C1611     1.0  0.68146  0.38696  0.35792  1.0000
  H   H1618     1.0  0.66487  0.42218  0.33331  1.0000
  H   H1619     1.0  0.67207  0.43463  0.35285  1.0000
  H   H1620     1.0  0.69134  0.38609  0.37902  1.0000
  H   H1621     1.0  0.68395  0.37363  0.35948  1.0000
  C   C1612     1.0  0.66560  0.45173  0.24498  1.0000
  H   H1622     1.0  0.69424  0.32407  0.46418  1.0000
  C   C1613     1.0  0.74286  0.33208  0.41838  1.0000
  H   H1623     1.0  0.53273  0.63772  0.26992  1.0000
  C   C1614     1.0  0.61022  0.39308  0.26525  1.0000
  C   C1615     1.0  0.60553  0.39573  0.25011  1.0000
  C   C1616     1.0  0.58986  0.39378  0.24958  1.0000
  C   C1617     1.0  0.57854  0.38942  0.26422  1.0000
  C   C1618     1.0  0.58295  0.38745  0.27943  1.0000
  C   C1619     1.0  0.59875  0.38929  0.27996  1.0000
  C   C1620     1.0  0.69758  0.36536  0.47869  1.0000
  C   C1621     1.0  0.53877  0.48043  0.23870  1.0000
  H   H1624     1.0  0.57422  0.38421  0.29084  1.0000
  H   H1625     1.0  0.60226  0.38716  0.29174  1.0000
  C   C1622     1.0  0.54099  0.57796  0.29196  1.0000
  C   C1623     1.0  0.53435  0.58605  0.30530  1.0000
  C   C1624     1.0  0.54211  0.59767  0.30764  1.0000
  C   C1625     1.0  0.55674  0.60117  0.29677  1.0000
  C   C1626     1.0  0.56366  0.59275  0.28371  1.0000
  C   C1627     1.0  0.55578  0.58125  0.28125  1.0000
  H   H1626     1.0  0.52300  0.58348  0.31373  1.0000
  H   H1627     1.0  0.53681  0.60381  0.31793  1.0000
  H   H1628     1.0  0.57499  0.59535  0.27527  1.0000
  H   H1629     1.0  0.56095  0.57523  0.27087  1.0000
  C   C1628     1.0  0.59494  0.48850  0.28191  1.0000
  C   C1629     1.0  0.58009  0.48373  0.29090  1.0000
  C   C1630     1.0  0.58038  0.46949  0.30361  1.0000
  C   C1631     1.0  0.59559  0.45987  0.30698  1.0000
  C   C1632     1.0  0.61031  0.46498  0.29825  1.0000
  C   C1633     1.0  0.61001  0.47926  0.28581  1.0000
  H   H1630     1.0  0.56843  0.49070  0.28786  1.0000
  H   H1631     1.0  0.56896  0.46555  0.31031  1.0000
  H   H1632     1.0  0.62207  0.45783  0.30088  1.0000
  H   H1633     1.0  0.62156  0.48285  0.27896  1.0000
  C   C1634     1.0  0.79169  0.33196  0.40929  1.0000
  H   H1634     1.0  0.53447  0.43496  0.25132  1.0000
  C   C1635     1.0  0.64030  0.50426  0.24560  1.0000
  C   C1636     1.0  0.52180  0.63315  0.27738  1.0000
  H   H1635     1.0  0.98423  0.37291  0.32874  1.0000
  H   H1636     1.0  0.53013  0.46213  0.27773  1.0000
  H   H1637     1.0  0.59379  0.63366  0.29914  1.0000
  C   C1637     1.0  0.71747  0.41285  0.46933  1.0000
  H   H1638     1.0  0.49718  0.48559  0.25410  1.0000
  H   H1639     1.0  0.96927  0.34796  0.27843  1.0000
  C   C1638     1.0  0.56088  0.43171  0.26481  1.0000
  C   C1639     1.0  0.55561  0.45866  0.27917  1.0000
  C   C1640     1.0  0.57424  0.43531  0.26889  1.0000
  C   C1641     1.0  0.57155  0.44888  0.27615  1.0000
  C   C1642     1.0  0.66275  0.35270  0.48060  1.0000
  H   H1640     1.0  0.56296  0.42118  0.25921  1.0000
  H   H1641     1.0  0.55333  0.46927  0.28479  1.0000
  C   C1643     1.0  0.59542  0.63249  0.31159  1.0000
  H   H1642     1.0  0.98743  0.33237  0.28286  1.0000
  H   H1643     1.0  0.66664  0.42545  0.25054  1.0000
  H   H1644     1.0  0.99505  0.36064  0.28107  1.0000
  C   C1644     1.0  0.64557  0.39285  0.38613  1.0000
  H   H1645     1.0  0.65276  0.40469  0.40177  1.0000
  H   H1646     1.0  0.62088  0.42653  0.34470  1.0000
  C   C1645     1.0  0.54250  0.45453  0.27516  1.0000
  C   C1646     1.0  0.50928  0.48112  0.24696  1.0000
  H   H1647     1.0  0.60029  0.34783  0.26345  1.0000
  C   C1647     1.0  0.79296  0.33835  0.39232  1.0000
  H   H1648     1.0  0.49981  0.46702  0.23536  1.0000
  C   C1648     1.0  0.66133  0.36494  0.46629  1.0000
  H   H1649     1.0  0.63288  0.49473  0.24758  1.0000
  C   C1649     1.0  0.73779  0.40409  0.35950  1.0000
  C   C1650     1.0  0.99355  0.55298  0.25103  1.0000
  C   C1651     1.0  0.52313  0.48644  0.24793  1.0000
  H   H1650     1.0  0.62733  0.35502  0.26063  1.0000
  C   C1652     1.0  0.72139  0.39624  0.33945  1.0000
  C   C1653     1.0  0.66699  0.43651  0.24094  1.0000
  H   H1651     1.0  0.58651  0.42744  0.26671  1.0000
  H   H1652     1.0  0.61577  0.47324  0.25329  1.0000
  C   C1654     1.0  0.68499  0.33542  0.46466  1.0000
  C   C1655     1.0  0.98205  0.36630  0.32052  1.0000
  S   S564      1.0  0.56077  0.51635  0.24095  1.0000
  H   H1653     1.0  0.60941  0.54140  0.27825  1.0000
  H   H1654     1.0  0.61160  0.40904  0.35555  1.0000
  H   H1655     1.0  0.59998  0.65509  0.33630  1.0000
  C   C1656     1.0  0.59621  0.61589  0.33903  1.0000
  H   H1656     1.0  0.73222  0.33276  0.41281  1.0000
  C   C1657     1.0  0.96892  0.34664  0.31569  1.0000
  H   H1657     1.0  0.73942  0.34189  0.42571  1.0000
  C   C1658     1.0  0.51984  0.61754  0.27709  1.0000
  H   H1658     1.0  0.65230  0.37641  0.46692  1.0000
  H   H1659     1.0  0.70951  0.43950  0.35346  1.0000
  H   H1660     1.0  0.73594  0.37148  0.34475  1.0000
  H   H1661     1.0  0.73151  0.43966  0.34778  1.0000
  N   N136      1.0  0.97743  0.34861  0.29961  1.0000
  H   H1662     1.0  0.74424  0.40702  0.36741  1.0000
  C   C1659     1.0  0.72200  0.43268  0.35575  1.0000
  H   H1663     1.0  0.72160  0.43217  0.36897  1.0000
  H   H1664     1.0  0.80095  0.33109  0.38354  1.0000
  C   C1660     1.0  0.73328  0.38401  0.34676  1.0000
  C   C1661     1.0  0.63184  0.42451  0.37091  1.0000
  H   H1665     1.0  0.63798  0.38484  0.36795  1.0000
  C   C1662     1.0  0.67409  0.33767  0.47962  1.0000
  H   H1666     1.0  0.98071  0.54139  0.23999  1.0000
  H   H1667     1.0  0.51149  0.65474  0.28790  1.0000
  H   H1668     1.0  0.71463  0.39328  0.33182  1.0000
  H   H1669     1.0  0.52938  0.42439  0.27257  1.0000
  C   C1663     1.0  0.53151  0.43642  0.26437  1.0000
  C   C1664     1.0  0.50979  0.64267  0.28767  1.0000
  C   C1665     1.0  0.61188  0.46776  0.24522  1.0000
  H   H1670     1.0  0.66889  0.41079  0.47592  1.0000
  C   C1666     1.0  0.62352  0.41335  0.35127  1.0000
  H   H1671     1.0  0.75633  0.41884  0.46584  1.0000
  H   H1672     1.0  0.62951  0.51548  0.27365  1.0000
  C   C1667     1.0  0.60632  0.54909  0.25299  1.0000
  C   C1668     1.0  0.63944  0.42239  0.38420  1.0000
  C   C1669     1.0  0.74167  0.38797  0.35672  1.0000
  H   H1673     1.0  0.65129  0.38043  0.39169  1.0000
  C   C1670     1.0  0.61328  0.53857  0.26602  1.0000
  C   C1671     1.0  0.61074  0.54489  0.23751  1.0000
  S   S565      1.0  0.51135  0.63290  0.37029  1.0000
  H   H1674     1.0  0.62665  0.43695  0.36493  1.0000
  C   C1672     1.0  0.71795  0.41227  0.34237  1.0000
  H   H1675     1.0  0.70403  0.36002  0.46798  1.0000
  N   N137      1.0  0.54527  0.44118  0.26805  1.0000
  C   C1673     1.0  0.63802  0.39542  0.37272  1.0000
  H   H1676     1.0  0.59715  0.56026  0.25500  1.0000
  C   C1674     1.0  0.59813  0.62953  0.34388  1.0000
  H   H1677     1.0  0.56395  0.65553  0.36535  1.0000
  H   H1678     1.0  0.78058  0.33677  0.43369  1.0000
  N   N138      1.0  0.62913  0.52006  0.24803  1.0000
  H   H1679     1.0  0.75354  0.33489  0.40822  1.0000
  C   C1675     1.0  0.98802  0.35938  0.29371  1.0000
  C   C1676     1.0  0.62203  0.35762  0.24976  1.0000
  C   C1677     1.0  0.59481  0.61735  0.32280  1.0000
  H   H1680     1.0  0.59874  0.62872  0.35658  1.0000
  C   C1678     1.0  0.99368  0.58146  0.23973  1.0000
  H   H1681     1.0  0.96474  0.35344  0.33925  1.0000
  H   H1682     1.0  0.59271  0.60702  0.31901  1.0000
  H   H1683     1.0  0.96048  0.33813  0.32040  1.0000
  H   H1684     1.0  0.54956  0.48436  0.23949  1.0000
  H   H1685     1.0  0.50086  0.64491  0.40277  1.0000
  Fe  Fe283     1.0  0.55267  0.39495  0.23814  1.0000
  C   C1679     1.0  0.97520  0.33935  0.28843  1.0000
  H   H1686     1.0  0.74867  0.36405  0.47060  1.0000
  H   H1687     1.0  0.58922  0.48602  0.24387  1.0000
  C   C1680     1.0  0.51079  0.47044  0.23647  1.0000
  C   C1681     1.0  0.59938  0.35758  0.23774  1.0000
  C   C1682     1.0  0.62472  0.52398  0.26331  1.0000
  C   C1683     1.0  0.68629  0.38049  0.47681  1.0000
  C   C1684     1.0  0.97121  0.35534  0.32642  1.0000
  C   C1685     1.0  0.62219  0.53020  0.23526  1.0000
  C   C1686     1.0  0.59695  0.47488  0.23996  1.0000
  C   C1687     1.0  0.74116  0.37085  0.48041  1.0000
  H   H1688     1.0  0.74845  0.37971  0.48091  1.0000
  H   H1689     1.0  0.58689  0.39497  0.23778  1.0000
  Fe  Fe284     1.0  0.55422  0.54403  0.23505  1.0000
  H   H1690     1.0  0.49742  0.65536  0.34330  1.0000
  H   H1691     1.0  0.65016  0.36603  0.24492  1.0000
  H   H1692     1.0  0.63406  0.42337  0.23395  1.0000
  H   H1693     1.0  0.90044  0.60545  0.69560  1.0000
  S   S566      1.0  0.91993  0.63070  0.68216  1.0000
  Fe  Fe285     1.0  0.88321  0.56507  0.66400  1.0000
  S   S567      1.0  0.85827  0.57513  0.67833  1.0000
  S   S568      1.0  0.89972  0.58275  0.64842  1.0000
  Fe  Fe286     1.0  0.87813  0.52945  0.67610  1.0000
  S   S569      1.0  0.85323  0.53675  0.69210  1.0000
  S   S570      1.0  0.88602  0.50302  0.67309  1.0000
  Fe  Fe287     1.0  0.84893  0.55691  0.67017  1.0000
  S   S571      1.0  0.82468  0.56307  0.66193  1.0000
  Fe  Fe288     1.0  0.86525  0.55388  0.69867  1.0000
  S   S572      1.0  0.86262  0.42299  0.72283  1.0000
  S   S573      1.0  0.87315  0.54891  0.65363  1.0000
  S   S574      1.0  0.89079  0.54463  0.68482  1.0000
  C   C1688     1.0  0.87407  0.62342  0.65019  1.0000
  C   C1689     1.0  0.84527  0.38872  0.71022  1.0000
  C   C1690     1.0  0.79651  0.54857  0.70069  1.0000
  Fe  Fe289     1.0  0.88403  0.40228  0.71722  1.0000
  S   S575      1.0  0.89319  0.39805  0.69127  1.0000
  C   C1691     1.0  0.88805  0.63713  0.62390  1.0000
  Fe  Fe290     1.0  0.82836  0.45243  0.64390  1.0000
  S   S576      1.0  0.80956  0.43819  0.66037  1.0000
  S   S577      1.0  0.85476  0.44052  0.63495  1.0000
  Fe  Fe291     1.0  0.80445  0.48517  0.64360  1.0000
  S   S578      1.0  0.78330  0.47363  0.65997  1.0000
  S   S579      1.0  0.80254  0.51257  0.63360  1.0000
  Fe  Fe292     1.0  0.80260  0.45853  0.67459  1.0000
  S   S580      1.0  0.80153  0.45249  0.70219  1.0000
  Fe  Fe293     1.0  0.79207  0.45432  0.64395  1.0000
  S   S581      1.0  0.77465  0.44140  0.63750  1.0000
  S   S582      1.0  0.82290  0.47139  0.65928  1.0000
  S   S583      1.0  0.81170  0.46728  0.62646  1.0000
  Fe  Fe294     1.0  0.75669  0.38136  0.55284  1.0000
  S   S584      1.0  0.76728  0.40388  0.54052  1.0000
  S   S585      1.0  0.77177  0.35557  0.55321  1.0000
  Fe  Fe295     1.0  0.72170  0.40092  0.55924  1.0000
  S   S586      1.0  0.72942  0.42537  0.54743  1.0000
  S   S587      1.0  0.69538  0.39735  0.56497  1.0000
  Fe  Fe296     1.0  0.74576  0.41207  0.52770  1.0000
  S   S588      1.0  0.75048  0.42117  0.49991  1.0000
  Fe  Fe297     1.0  0.75034  0.41526  0.56150  1.0000
  S   S589      1.0  0.76313  0.43162  0.56958  1.0000
  S   S590      1.0  0.73660  0.38871  0.53854  1.0000
  S   S591      1.0  0.74122  0.39168  0.57488  1.0000
  C   C1692     1.0  0.78116  0.38472  0.60190  1.0000
  C   C1693     1.0  0.83867  0.48949  0.69344  1.0000
  C   C1694     1.0  0.80505  0.46543  0.72689  1.0000
  C   C1695     1.0  0.74609  0.46276  0.53931  1.0000
  Fe  Fe298     1.0  0.65893  0.33419  0.51868  1.0000
  H   H1694     1.0  0.71399  0.33698  0.57356  1.0000
  N   N139      1.0  0.88358  0.64810  0.64820  1.0000
  H   H1695     1.0  0.84403  0.38780  0.72335  1.0000
  C   C1696     1.0  0.94568  0.59110  0.69039  1.0000
  H   H1696     1.0  0.94975  0.58589  0.65998  1.0000
  H   H1697     1.0  0.93868  0.59981  0.69868  1.0000
  H   H1698     1.0  0.82978  0.58182  0.72084  1.0000
  C   C1697     1.0  0.69442  0.37733  0.56375  1.0000
  C   C1698     1.0  0.68168  0.37502  0.55751  1.0000
  C   C1699     1.0  0.68078  0.35902  0.55672  1.0000
  C   C1700     1.0  0.69236  0.34524  0.56264  1.0000
  C   C1701     1.0  0.70504  0.34758  0.56890  1.0000
  C   C1702     1.0  0.70623  0.36357  0.56922  1.0000
  H   H1699     1.0  0.67251  0.38564  0.55330  1.0000
  H   H1700     1.0  0.67089  0.35732  0.55197  1.0000
  H   H1701     1.0  0.69899  0.41136  0.49200  1.0000
  H   H1702     1.0  0.71607  0.36522  0.57408  1.0000
  C   C1703     1.0  0.77503  0.35216  0.53311  1.0000
  C   C1704     1.0  0.77321  0.36572  0.51994  1.0000
  C   C1705     1.0  0.77482  0.36331  0.50402  1.0000
  C   C1706     1.0  0.77840  0.34730  0.50107  1.0000
  H   H1703     1.0  0.77336  0.37393  0.49395  1.0000
  H   H1704     1.0  0.81792  0.59436  0.69561  1.0000
  H   H1705     1.0  0.77069  0.37817  0.52191  1.0000
  H   H1706     1.0  0.61241  0.34741  0.58123  1.0000
  C   C1707     1.0  0.71161  0.41265  0.48631  1.0000
  C   C1708     1.0  0.88230  0.46585  0.72240  1.0000
  C   C1709     1.0  0.78837  0.37972  0.57465  1.0000
  C   C1710     1.0  0.80701  0.57352  0.69789  1.0000
  C   C1711     1.0  0.79798  0.49477  0.72748  1.0000
  N   N140      1.0  0.78035  0.37610  0.59082  1.0000
  C   C1712     1.0  0.77162  0.43893  0.61842  1.0000
  C   C1713     1.0  0.76007  0.42955  0.61882  1.0000
  C   C1714     1.0  0.75722  0.42721  0.60411  1.0000
  C   C1715     1.0  0.76587  0.43427  0.58869  1.0000
  C   C1716     1.0  0.77741  0.44363  0.58828  1.0000
  C   C1717     1.0  0.78033  0.44589  0.60299  1.0000
  H   H1707     1.0  0.75318  0.42416  0.63065  1.0000
  H   H1708     1.0  0.74824  0.42005  0.60471  1.0000
  H   H1709     1.0  0.78420  0.44920  0.57648  1.0000
  H   H1710     1.0  0.78922  0.45315  0.60241  1.0000
  C   C1718     1.0  0.80136  0.46896  0.71114  1.0000
  C   C1719     1.0  0.78051  0.33362  0.51413  1.0000
  N   N141      1.0  0.67768  0.38715  0.49024  1.0000
  H   H1711     1.0  0.85239  0.52881  0.72686  1.0000
  C   C1720     1.0  0.79480  0.49832  0.71149  1.0000
  C   C1721     1.0  0.79651  0.48547  0.70332  1.0000
  C   C1722     1.0  0.84828  0.46009  0.69198  1.0000
  H   H1712     1.0  0.63602  0.35927  0.58179  1.0000
  H   H1713     1.0  0.79362  0.48833  0.69116  1.0000
  C   C1723     1.0  0.88250  0.41091  0.67595  1.0000
  C   C1724     1.0  0.88985  0.41079  0.65934  1.0000
  C   C1725     1.0  0.88134  0.42010  0.64683  1.0000
  C   C1726     1.0  0.86532  0.42946  0.65085  1.0000
  C   C1727     1.0  0.85788  0.42968  0.66744  1.0000
  C   C1728     1.0  0.86649  0.42042  0.67996  1.0000
  H   H1714     1.0  0.90217  0.40341  0.65612  1.0000
  H   H1715     1.0  0.88714  0.41989  0.63402  1.0000
  H   H1716     1.0  0.84540  0.43668  0.67061  1.0000
  H   H1717     1.0  0.86041  0.42009  0.69268  1.0000
  C   C1729     1.0  0.81857  0.54817  0.65521  1.0000
  C   C1730     1.0  0.82515  0.53111  0.65939  1.0000
  C   C1731     1.0  0.81972  0.51978  0.65362  1.0000
  C   C1732     1.0  0.80814  0.52559  0.64327  1.0000
  C   C1733     1.0  0.80168  0.54259  0.63924  1.0000
  C   C1734     1.0  0.80665  0.55376  0.64539  1.0000
  H   H1718     1.0  0.83456  0.52675  0.66678  1.0000
  H   H1719     1.0  0.82491  0.50669  0.65657  1.0000
  H   H1720     1.0  0.79281  0.54719  0.63121  1.0000
  H   H1721     1.0  0.80150  0.56688  0.64212  1.0000
  H   H1722     1.0  0.85001  0.46487  0.67841  1.0000
  S   S592      1.0  0.86205  0.55969  0.72347  1.0000
  N   N142      1.0  0.95454  0.59991  0.67489  1.0000
  H   H1723     1.0  0.71709  0.41468  0.50892  1.0000
  C   C1735     1.0  0.77885  0.33606  0.53018  1.0000
  C   C1736     1.0  0.62383  0.33931  0.58420  1.0000
  H   H1724     1.0  0.74948  0.46388  0.55029  1.0000
  N   N143      1.0  0.73791  0.35969  0.49658  1.0000
  C   C1737     1.0  0.63707  0.34595  0.58447  1.0000
  H   H1725     1.0  0.83717  0.49239  0.68075  1.0000
  C   C1738     1.0  0.88519  0.48877  0.69209  1.0000
  C   C1739     1.0  0.88752  0.47185  0.69241  1.0000
  C   C1740     1.0  0.88605  0.46040  0.70755  1.0000
  H   H1726     1.0  0.71192  0.46953  0.52302  1.0000
  H   H1727     1.0  0.80215  0.57895  0.68670  1.0000
  C   C1741     1.0  0.88177  0.49418  0.70693  1.0000
  H   H1728     1.0  0.89034  0.46759  0.68095  1.0000
  H   H1729     1.0  0.88766  0.44738  0.70772  1.0000
  H   H1730     1.0  0.86934  0.37213  0.70777  1.0000
  H   H1731     1.0  0.88012  0.50720  0.70676  1.0000
  C   C1742     1.0  0.91413  0.61751  0.67269  1.0000
  C   C1743     1.0  0.91938  0.61791  0.65572  1.0000
  C   C1744     1.0  0.91529  0.60687  0.64859  1.0000
  C   C1745     1.0  0.90561  0.59544  0.65826  1.0000
  C   C1746     1.0  0.90024  0.59499  0.67525  1.0000
  C   C1747     1.0  0.90456  0.60595  0.68243  1.0000
  H   H1732     1.0  0.92683  0.62650  0.64804  1.0000
  H   H1733     1.0  0.91944  0.60733  0.63543  1.0000
  H   H1734     1.0  0.89273  0.58624  0.68285  1.0000
  N   N144      1.0  0.85606  0.51293  0.62839  1.0000
  C   C1748     1.0  0.86774  0.50631  0.63799  1.0000
  C   C1749     1.0  0.84922  0.50279  0.62330  1.0000
  C   C1750     1.0  0.87275  0.48913  0.64285  1.0000
  C   C1751     1.0  0.85408  0.48555  0.62779  1.0000
  C   C1752     1.0  0.86592  0.47871  0.63763  1.0000
  C   C1753     1.0  0.85166  0.53094  0.62265  1.0000
  H   H1735     1.0  0.87332  0.51430  0.64194  1.0000
  H   H1736     1.0  0.83983  0.50798  0.61581  1.0000
  H   H1737     1.0  0.88204  0.48398  0.65046  1.0000
  H   H1738     1.0  0.84869  0.47752  0.62368  1.0000
  H   H1739     1.0  0.86984  0.46534  0.64110  1.0000
  H   H1740     1.0  0.85241  0.53757  0.63194  1.0000
  H   H1741     1.0  0.86020  0.53486  0.61085  1.0000
  H   H1742     1.0  0.83868  0.53490  0.62070  1.0000
  S   S593      1.0  0.69097  0.32487  0.56320  1.0000
  C   C1754     1.0  0.67985  0.37896  0.50579  1.0000
  H   H1743     1.0  0.65309  0.39948  0.48846  1.0000
  C   C1755     1.0  0.69101  0.36375  0.50816  1.0000
  H   H1744     1.0  0.76261  0.44809  0.50448  1.0000
  H   H1745     1.0  0.96091  0.61575  0.68678  1.0000
  C   C1756     1.0  0.88046  0.48271  0.72206  1.0000
  H   H1746     1.0  0.67266  0.38396  0.51650  1.0000
  H   H1747     1.0  0.81008  0.53876  0.72734  1.0000
  H   H1748     1.0  0.69242  0.35711  0.52055  1.0000
  H   H1749     1.0  0.89310  0.63775  0.61079  1.0000
  S   S594      1.0  0.64937  0.33288  0.54584  1.0000
  C   C1757     1.0  0.97249  0.61581  0.64576  1.0000
  C   C1758     1.0  0.83487  0.50232  0.70198  1.0000
  C   C1759     1.0  0.83688  0.49874  0.71828  1.0000
  C   C1760     1.0  0.97124  0.62015  0.66071  1.0000
  H   H1750     1.0  0.70782  0.34472  0.49615  1.0000
  C   C1761     1.0  0.77146  0.36242  0.59657  1.0000
  H   H1751     1.0  0.97722  0.62984  0.66096  1.0000
  C   C1762     1.0  0.73795  0.41700  0.48856  1.0000
  H   H1752     1.0  0.83029  0.51492  0.69605  1.0000
  H   H1753     1.0  0.77936  0.35116  0.60263  1.0000
  C   C1763     1.0  0.73152  0.36628  0.51040  1.0000
  H   H1754     1.0  0.93635  0.58541  0.68813  1.0000
  H   H1755     1.0  0.78799  0.37273  0.56589  1.0000
  C   C1764     1.0  0.75341  0.45396  0.51378  1.0000
  H   H1756     1.0  0.66358  0.40951  0.49775  1.0000
  C   C1765     1.0  0.95585  0.59545  0.66030  1.0000
  H   H1757     1.0  0.72290  0.36127  0.53690  1.0000
  H   H1758     1.0  0.78369  0.45429  0.51709  1.0000
  H   H1759     1.0  0.95461  0.58125  0.69680  1.0000
  C   C1766     1.0  0.73730  0.33230  0.51319  1.0000
  H   H1760     1.0  0.79078  0.51103  0.70545  1.0000
  H   H1761     1.0  0.87185  0.63432  0.67080  1.0000
  H   H1762     1.0  0.67490  0.32794  0.49047  1.0000
  H   H1763     1.0  0.80407  0.41191  0.57609  1.0000
  C   C1767     1.0  0.72780  0.35602  0.52595  1.0000
  H   H1764     1.0  0.80293  0.39577  0.55617  1.0000
  N   N145      1.0  0.83325  0.39891  0.70219  1.0000
  C   C1768     1.0  0.83488  0.40028  0.68558  1.0000
  H   H1765     1.0  0.81346  0.40121  0.72307  1.0000
  C   C1769     1.0  0.84894  0.39146  0.67652  1.0000
  C   C1770     1.0  0.85948  0.37969  0.70155  1.0000
  C   C1771     1.0  0.86135  0.38118  0.68458  1.0000
  C   C1772     1.0  0.72944  0.46792  0.53789  1.0000
  H   H1766     1.0  0.82551  0.40851  0.67914  1.0000
  H   H1767     1.0  0.72945  0.37953  0.50944  1.0000
  H   H1768     1.0  0.85052  0.39315  0.66323  1.0000
  H   H1769     1.0  0.97939  0.62218  0.63440  1.0000
  H   H1770     1.0  0.87270  0.37488  0.67761  1.0000
  H   H1771     1.0  0.73341  0.45675  0.50149  1.0000
  H   H1772     1.0  0.75963  0.36579  0.60538  1.0000
  C   C1773     1.0  0.81904  0.40900  0.71142  1.0000
  C   C1774     1.0  0.72484  0.46596  0.52411  1.0000
  C   C1775     1.0  0.73687  0.45889  0.51199  1.0000
  C   C1776     1.0  0.79776  0.40159  0.58027  1.0000
  C   C1777     1.0  0.84546  0.46982  0.71721  1.0000
  C   C1778     1.0  0.96211  0.61207  0.67525  1.0000
  H   H1773     1.0  0.96547  0.60006  0.63391  1.0000
  H   H1774     1.0  0.80584  0.54040  0.69300  1.0000
  C   C1779     1.0  0.78996  0.39750  0.59683  1.0000
  C   C1780     1.0  0.79702  0.39263  0.56910  1.0000
  H   H1775     1.0  0.82319  0.41883  0.71467  1.0000
  H   H1776     1.0  0.79031  0.40457  0.60556  1.0000
  C   C1781     1.0  0.72185  0.41453  0.49593  1.0000
  H   H1777     1.0  0.77485  0.38186  0.61473  1.0000
  N   N146      1.0  0.80491  0.55809  0.70667  1.0000
  C   C1782     1.0  0.88965  0.64904  0.63160  1.0000
  S   S595      1.0  0.65189  0.35690  0.49989  1.0000
  C   C1783     1.0  0.74076  0.34292  0.49780  1.0000
  C   C1784     1.0  0.81591  0.58233  0.70286  1.0000
  H   H1778     1.0  0.78774  0.55684  0.69293  1.0000
  H   H1779     1.0  0.77807  0.43661  0.53263  1.0000
  H   H1780     1.0  0.80919  0.41512  0.70417  1.0000
  H   H1781     1.0  0.76810  0.35936  0.58616  1.0000
  H   H1782     1.0  0.83412  0.50856  0.72503  1.0000
  H   H1783     1.0  0.72013  0.47299  0.54761  1.0000
  S   S596      1.0  0.94143  0.65260  0.63955  1.0000
  H   H1784     1.0  0.80897  0.45270  0.73298  1.0000
  C   C1785     1.0  0.73072  0.33894  0.52735  1.0000
  H   H1785     1.0  0.83821  0.45297  0.69603  1.0000
  C   C1786     1.0  0.77520  0.45033  0.52894  1.0000
  H   H1786     1.0  0.78027  0.32552  0.54032  1.0000
  C   C1787     1.0  0.96471  0.60342  0.64550  1.0000
  N   N147      1.0  0.75785  0.45606  0.52722  1.0000
  N   N148      1.0  0.84417  0.47350  0.70101  1.0000
  C   C1788     1.0  0.69975  0.35686  0.49449  1.0000
  H   H1787     1.0  0.78926  0.54087  0.71118  1.0000
  H   H1788     1.0  0.86018  0.45165  0.69424  1.0000
  H   H1789     1.0  0.77771  0.45533  0.53861  1.0000
  H   H1790     1.0  0.87756  0.48701  0.73350  1.0000
  H   H1791     1.0  0.87940  0.61456  0.62765  1.0000
  C   C1789     1.0  0.84211  0.48237  0.72599  1.0000
  H   H1792     1.0  0.86856  0.61305  0.65767  1.0000
  C   C1790     1.0  0.82026  0.55962  0.72594  1.0000
  H   H1793     1.0  0.84958  0.45717  0.72336  1.0000
  C   C1791     1.0  0.87603  0.63542  0.65753  1.0000
  C   C1792     1.0  0.88022  0.62424  0.63329  1.0000
  C   C1793     1.0  0.66514  0.40250  0.48802  1.0000
  S   S597      1.0  0.90002  0.40745  0.73176  1.0000
  H   H1794     1.0  0.76488  0.46473  0.72475  1.0000
  H   H1795     1.0  0.72800  0.33088  0.53941  1.0000
  H   H1796     1.0  0.74618  0.33764  0.48689  1.0000
  H   H1797     1.0  0.77665  0.43644  0.72891  1.0000
  C   C1794     1.0  0.82256  0.57530  0.71699  1.0000
  H   H1798     1.0  0.75705  0.49158  0.73351  1.0000
  Fe  Fe299     1.0  0.93148  0.65237  0.66646  1.0000
  C   C1795     1.0  0.81149  0.55107  0.72049  1.0000
  H   H1799     1.0  0.89490  0.65433  0.66436  1.0000
  S   S598      1.0  0.98750  0.65503  0.62994  1.0000
  H   H1800     1.0  0.66235  0.34035  0.58769  1.0000
  C   C1796     1.0  0.65184  0.33535  0.58779  1.0000
  S   S599      1.0  0.68558  0.32353  0.52034  1.0000
  Fe  Fe300     1.0  0.76890  0.56525  0.91934  1.0000
  S   S600      1.0  0.77212  0.59134  0.91426  1.0000
  S   S601      1.0  0.75137  0.55467  0.94169  1.0000
  Fe  Fe301     1.0  0.79320  0.55769  0.88803  1.0000
  S   S602      1.0  0.79906  0.58312  0.88026  1.0000
  S   S603      1.0  0.80492  0.53671  0.87444  1.0000
  Fe  Fe302     1.0  0.79916  0.58066  0.90707  1.0000
  S   S604      1.0  0.81842  0.58967  0.91417  1.0000
  Fe  Fe303     1.0  0.77164  0.59164  0.88821  1.0000
  S   S605      1.0  0.75590  0.61406  0.87591  1.0000
  S   S606      1.0  0.79612  0.55423  0.91421  1.0000
  S   S607      1.0  0.76564  0.56654  0.89389  1.0000
  C   C1797     1.0  0.79152  0.63939  0.91692  1.0000
  C   C1798     1.0  0.77474  0.51986  0.91543  1.0000
  H   H1801     1.0  0.78748  0.52122  0.90852  1.0000
  H   H1802     1.0  0.73449  0.54703  0.97568  1.0000
  S   S608      1.0  0.54036  0.65073  0.89617  1.0000
  Fe  Fe304     1.0  0.68036  0.63450  0.93608  1.0000
  S   S609      1.0  0.68865  0.61047  0.92752  1.0000
  H   H1803     1.0  0.73516  0.63654  0.89618  1.0000
  H   H1804     1.0  0.82217  0.55631  0.78756  1.0000
  H   H1805     1.0  0.89429  0.43377  0.77652  1.0000
  C   C1799     1.0  0.76391  0.48107  0.75718  1.0000
  H   H1806     1.0  0.80865  0.54223  0.79941  1.0000
  H   H1807     1.0  0.89225  0.46231  0.76557  1.0000
  S   S610      1.0  0.82669  0.40276  0.75204  1.0000
  C   C1800     1.0  0.86511  0.54244  0.75449  1.0000
  Fe  Fe305     1.0  0.80209  0.47639  0.79299  1.0000
  S   S611      1.0  0.78129  0.49744  0.78619  1.0000
  S   S612      1.0  0.79738  0.45054  0.80248  1.0000
  Fe  Fe306     1.0  0.82668  0.49859  0.78387  1.0000
  S   S613      1.0  0.80838  0.52113  0.77510  1.0000
  S   S614      1.0  0.85186  0.50115  0.78441  1.0000
  Fe  Fe307     1.0  0.79140  0.51182  0.79868  1.0000
  S   S615      1.0  0.77710  0.53054  0.81460  1.0000
  Fe  Fe308     1.0  0.80039  0.50451  0.76351  1.0000
  H   H1808     1.0  0.69931  0.57031  0.97981  1.0000
  S   S616      1.0  0.81020  0.48985  0.80775  1.0000
  S   S617      1.0  0.82074  0.48305  0.76985  1.0000
  C   C1801     1.0  0.76608  0.46508  0.73697  1.0000
  C   C1802     1.0  0.80323  0.47826  0.73509  1.0000
  H   H1809     1.0  0.87215  0.47521  0.76559  1.0000
  S   S618      1.0  0.50140  0.63027  0.83399  1.0000
  H   H1810     1.0  0.77498  0.50675  0.92188  1.0000
  N   N149      1.0  0.87220  0.45184  0.78207  1.0000
  C   C1803     1.0  0.85305  0.51595  0.75196  1.0000
  N   N150      1.0  0.63534  0.63770  0.88727  1.0000
  Fe  Fe309     1.0  0.88773  0.38986  0.75293  1.0000
  H   H1811     1.0  0.61097  0.63388  0.92580  1.0000
  Fe  Fe310     1.0  0.87759  0.42672  0.73895  1.0000
  C   C1804     1.0  0.87395  0.42244  0.79092  1.0000
  C   C1805     1.0  0.88005  0.46602  0.77372  1.0000
  C   C1806     1.0  0.51707  0.63980  0.85305  1.0000
  C   C1807     1.0  0.64371  0.62286  0.89481  1.0000
  C   C1808     1.0  0.91332  0.32789  0.75993  1.0000
  H   H1812     1.0  0.79220  0.52723  0.97555  1.0000
  H   H1813     1.0  0.76559  0.63258  0.89628  1.0000
  C   C1809     1.0  0.77817  0.43514  0.74173  1.0000
  C   C1810     1.0  0.92365  0.35025  0.78576  1.0000
  S   S619      1.0  0.87390  0.38273  0.73773  1.0000
  H   H1814     1.0  0.77970  0.44042  0.77032  1.0000
  N   N151      1.0  0.76321  0.52494  0.90409  1.0000
  H   H1815     1.0  0.52916  0.64726  0.86827  1.0000
  H   H1816     1.0  0.73333  0.53864  0.87367  1.0000
  C   C1811     1.0  0.94916  0.33886  0.76827  1.0000
  C   C1812     1.0  0.94388  0.34991  0.75441  1.0000
  H   H1817     1.0  0.82373  0.57199  0.95866  1.0000
  H   H1818     1.0  0.73935  0.60861  0.93333  1.0000
  C   C1813     1.0  0.85576  0.45461  0.78957  1.0000
  H   H1819     1.0  0.77098  0.42599  0.75015  1.0000
  H   H1820     1.0  0.91586  0.35034  0.79795  1.0000
  C   C1814     1.0  0.81820  0.41607  0.76591  1.0000
  C   C1815     1.0  0.80546  0.41250  0.77951  1.0000
  C   C1816     1.0  0.79945  0.42287  0.79101  1.0000
  C   C1817     1.0  0.80580  0.43707  0.78862  1.0000
  C   C1818     1.0  0.81858  0.44046  0.77505  1.0000
  C   C1819     1.0  0.82474  0.43005  0.76372  1.0000
  H   H1821     1.0  0.80058  0.40152  0.78138  1.0000
  H   H1822     1.0  0.78971  0.42002  0.80162  1.0000
  H   H1823     1.0  0.82417  0.45077  0.77347  1.0000
  H   H1824     1.0  0.83466  0.43282  0.75330  1.0000
  H   H1825     1.0  0.61239  0.65068  0.88000  1.0000
  C   C1820     1.0  0.75749  0.52519  0.87796  1.0000
  H   H1826     1.0  0.61297  0.62957  0.89001  1.0000
  C   C1821     1.0  0.84790  0.44134  0.79763  1.0000
  H   H1827     1.0  0.76164  0.52188  0.86591  1.0000
  S   S620      1.0  0.87802  0.45212  0.74144  1.0000
  H   H1828     1.0  0.82559  0.55401  0.73682  1.0000
  C   C1822     1.0  0.79704  0.53542  0.85775  1.0000
  C   C1823     1.0  0.80392  0.52177  0.85019  1.0000
  C   C1824     1.0  0.79804  0.52028  0.83687  1.0000
  C   C1825     1.0  0.78506  0.53232  0.83107  1.0000
  C   C1826     1.0  0.77816  0.54601  0.83865  1.0000
  C   C1827     1.0  0.78417  0.54762  0.85189  1.0000
  H   H1829     1.0  0.81388  0.51228  0.85463  1.0000
  H   H1830     1.0  0.80342  0.50964  0.83128  1.0000
  H   H1831     1.0  0.76813  0.55543  0.83424  1.0000
  H   H1832     1.0  0.77880  0.55825  0.85758  1.0000
  C   C1828     1.0  0.81357  0.59830  0.93186  1.0000
  C   C1829     1.0  0.79802  0.59902  0.94260  1.0000
  C   C1830     1.0  0.79523  0.60450  0.95743  1.0000
  C   C1831     1.0  0.80790  0.60938  0.96150  1.0000
  C   C1832     1.0  0.82316  0.60934  0.95039  1.0000
  C   C1833     1.0  0.82596  0.60384  0.93563  1.0000
  H   H1833     1.0  0.78836  0.59482  0.93982  1.0000
  H   H1834     1.0  0.78344  0.60443  0.96605  1.0000
  H   H1835     1.0  0.83311  0.61278  0.95357  1.0000
  H   H1836     1.0  0.83801  0.60334  0.92737  1.0000
  C   C1834     1.0  0.73635  0.61394  0.88884  1.0000
  C   C1835     1.0  0.72888  0.60041  0.89164  1.0000
  C   C1836     1.0  0.71407  0.59940  0.90340  1.0000
  C   C1837     1.0  0.70697  0.61175  0.91260  1.0000
  C   C1838     1.0  0.71472  0.62500  0.91009  1.0000
  C   C1839     1.0  0.72923  0.62626  0.89803  1.0000
  H   H1837     1.0  0.73452  0.59075  0.88469  1.0000
  H   H1838     1.0  0.70822  0.58902  0.90547  1.0000
  H   H1839     1.0  0.70985  0.63413  0.91769  1.0000
  H   H1840     1.0  0.51647  0.64198  0.74848  1.0000
  H   H1841     1.0  0.86952  0.55282  0.75554  1.0000
  H   H1842     1.0  0.79281  0.61992  0.90453  1.0000
  C   C1840     1.0  0.76612  0.56757  0.95898  1.0000
  C   C1841     1.0  0.75397  0.55898  0.95973  1.0000
  N   N152      1.0  0.78264  0.65412  0.92094  1.0000
  N   N153      1.0  0.77268  0.45099  0.74711  1.0000
  C   C1842     1.0  0.82163  0.54412  0.79610  1.0000
  H   H1843     1.0  0.77404  0.57154  0.94728  1.0000
  H   H1844     1.0  0.77231  0.46694  0.77949  1.0000
  C   C1843     1.0  0.77031  0.63859  0.90330  1.0000
  H   H1845     1.0  0.88174  0.47212  0.78296  1.0000
  C   C1844     1.0  0.76818  0.52041  0.88908  1.0000
  H   H1846     1.0  0.77770  0.57735  0.97279  1.0000
  C   C1845     1.0  0.86333  0.52915  0.76798  1.0000
  C   C1846     1.0  0.80019  0.54546  0.98328  1.0000
  H   H1847     1.0  0.51795  0.62722  0.86016  1.0000
  C   C1847     1.0  0.86114  0.54235  0.73966  1.0000
  C   C1848     1.0  0.50408  0.64844  0.74678  1.0000
  H   H1848     1.0  0.80566  0.47528  0.74740  1.0000
  C   C1849     1.0  0.88132  0.43601  0.78271  1.0000
  S   S621      1.0  0.89760  0.37243  0.77460  1.0000
  S   S622      1.0  0.80600  0.61168  0.98179  1.0000
  C   C1850     1.0  0.85699  0.51609  0.76679  1.0000
  H   H1849     1.0  0.74296  0.61788  0.95723  1.0000
  C   C1851     1.0  0.72641  0.60345  0.97506  1.0000
  C   C1852     1.0  0.85708  0.42516  0.79824  1.0000
  H   H1850     1.0  0.85108  0.41474  0.80417  1.0000
  H   H1851     1.0  0.89675  0.33138  0.78291  1.0000
  C   C1853     1.0  0.73492  0.60930  0.95917  1.0000
  N   N154      1.0  0.80890  0.55788  0.97853  1.0000
  H   H1852     1.0  0.84810  0.50585  0.75107  1.0000
  C   C1854     1.0  0.93915  0.33935  0.78397  1.0000
  Fe  Fe311     1.0  0.85361  0.40399  0.74432  1.0000
  H   H1853     1.0  0.84862  0.46715  0.78921  1.0000
  S   S623      1.0  0.79532  0.51118  0.73759  1.0000
  C   C1855     1.0  0.76164  0.48033  0.74183  1.0000
  C   C1856     1.0  0.66411  0.63637  0.89754  1.0000
  C   C1857     1.0  0.74390  0.55372  0.97499  1.0000
  C   C1858     1.0  0.70339  0.57580  0.96650  1.0000
  C   C1859     1.0  0.92830  0.36082  0.75619  1.0000
  S   S624      1.0  0.86641  0.40964  0.76117  1.0000
  C   C1860     1.0  0.74747  0.53371  0.90870  1.0000
  N   N155      1.0  0.71439  0.58720  0.96414  1.0000
  C   C1861     1.0  0.72268  0.59287  0.94853  1.0000
  H   H1854     1.0  0.80332  0.63369  0.92060  1.0000
  C   C1862     1.0  0.50957  0.64464  0.83928  1.0000
  C   C1863     1.0  0.91803  0.36074  0.77187  1.0000
  C   C1864     1.0  0.77033  0.46658  0.76756  1.0000
  C   C1865     1.0  0.76828  0.57076  0.97346  1.0000
  C   C1866     1.0  0.74161  0.53460  0.88233  1.0000
  H   H1855     1.0  0.94335  0.33139  0.79475  1.0000
  C   C1867     1.0  0.77460  0.45158  0.76230  1.0000
  S   S625      1.0  0.69286  0.64031  0.95319  1.0000
  H   H1856     1.0  0.86628  0.52932  0.77948  1.0000
  S   S626      1.0  0.50043  0.65080  0.93223  1.0000
  H   H1857     1.0  0.76103  0.49290  0.76087  1.0000
  S   S627      1.0  0.96777  0.32393  0.76557  1.0000
  H   H1858     1.0  0.77109  0.52770  0.92484  1.0000
  C   C1868     1.0  0.78559  0.63149  0.90790  1.0000
  C   C1869     1.0  0.71602  0.59244  0.97732  1.0000
  H   H1859     1.0  0.66480  0.61027  0.90623  1.0000
  H   H1860     1.0  0.78062  0.51334  0.88549  1.0000
  H   H1861     1.0  0.83474  0.44358  0.80323  1.0000
  C   C1870     1.0  0.79957  0.53669  0.97183  1.0000
  C   C1871     1.0  0.73649  0.53883  0.89783  1.0000
  H   H1862     1.0  0.72419  0.54619  0.90135  1.0000
  H   H1863     1.0  0.74344  0.53717  0.92068  1.0000
  H   H1864     1.0  0.82302  0.55694  0.93794  1.0000
  N   N156      1.0  0.82725  0.54338  0.81111  1.0000
  C   C1872     1.0  0.83924  0.53040  0.81648  1.0000
  C   C1873     1.0  0.82004  0.55559  0.81992  1.0000
  C   C1874     1.0  0.84443  0.52953  0.83097  1.0000
  C   C1875     1.0  0.82502  0.55517  0.83438  1.0000
  C   C1876     1.0  0.83724  0.54201  0.83995  1.0000
  H   H1865     1.0  0.84474  0.52054  0.80968  1.0000
  H   H1866     1.0  0.81013  0.56555  0.81596  1.0000
  H   H1867     1.0  0.85375  0.51911  0.83533  1.0000
  H   H1868     1.0  0.81897  0.56461  0.84162  1.0000
  H   H1869     1.0  0.84074  0.54126  0.85149  1.0000
  H   H1870     1.0  0.82952  0.53444  0.78930  1.0000
  H   H1871     1.0  0.62439  0.63461  0.86896  1.0000
  H   H1872     1.0  0.72137  0.58868  0.93812  1.0000
  C   C1877     1.0  0.73298  0.60406  0.94578  1.0000
  C   C1878     1.0  0.65819  0.62198  0.90010  1.0000
  S   S628      1.0  0.65447  0.64308  0.94945  1.0000
  C   C1879     1.0  0.81676  0.55342  0.95072  1.0000
  C   C1880     1.0  0.81712  0.56191  0.96250  1.0000
  H   H1873     1.0  0.67541  0.63576  0.90146  1.0000
  H   H1874     1.0  0.95168  0.34972  0.74224  1.0000
  H   H1875     1.0  0.63916  0.61162  0.89683  1.0000
  C   C1881     1.0  0.85546  0.52892  0.73827  1.0000
  H   H1876     1.0  0.84391  0.47934  0.73859  1.0000
  C   C1882     1.0  0.61008  0.64705  0.92100  1.0000
  C   C1883     1.0  0.80791  0.54073  0.95545  1.0000
  H   H1877     1.0  0.93307  0.32247  0.73929  1.0000
  H   H1878     1.0  0.88116  0.40989  0.79109  1.0000
  H   H1879     1.0  0.80729  0.53423  0.94639  1.0000
  H   H1880     1.0  0.92409  0.36898  0.74541  1.0000
  C   C1884     1.0  0.62062  0.63816  0.88119  1.0000
  S   S629      1.0  0.58289  0.64583  0.91039  1.0000
  H   H1881     1.0  0.70996  0.56543  0.96011  1.0000
  H   H1882     1.0  0.79160  0.43024  0.74186  1.0000
  H   H1883     1.0  0.69221  0.58256  0.96134  1.0000
  C   C1885     1.0  0.90773  0.32357  0.77705  1.0000
  H   H1884     1.0  0.90671  0.33885  0.75274  1.0000
  C   C1886     1.0  0.64105  0.65190  0.88479  1.0000
  C   C1887     1.0  0.65543  0.65148  0.89001  1.0000
  H   H1885     1.0  0.66183  0.61965  0.97827  1.0000
  Fe  Fe312     1.0  0.66702  0.65163  0.96469  1.0000
  C   C1888     1.0  0.52336  0.65117  0.85770  1.0000
  H   H1886     1.0  0.63181  0.64762  0.92903  1.0000
  C   C1889     1.0  0.76119  0.65347  0.90773  1.0000
  H   H1887     1.0  0.73246  0.65436  0.95258  1.0000
  C   C1890     1.0  0.62189  0.65484  0.92290  1.0000
  H   H1888     1.0  0.58906  0.65392  0.95855  1.0000
  H   H1889     1.0  0.98045  0.76410  0.99935  1.0000
  H   H1890     1.0  0.86714  0.86927  0.14132  1.0000
  H   H1891     1.0  0.90659  0.77920  0.03039  1.0000
  Fe  Fe313     1.0  0.92894  0.78867  0.14626  1.0000
  S   S630      1.0  0.92423  0.78507  0.12317  1.0000
  S   S631      1.0  0.94996  0.77086  0.15669  1.0000
  Fe  Fe314     1.0  0.90201  0.81979  0.14739  1.0000
  S   S632      1.0  0.89475  0.81876  0.12416  1.0000
  S   S633      1.0  0.88862  0.83906  0.16284  1.0000
  Fe  Fe315     1.0  0.89735  0.79141  0.13466  1.0000
  S   S634      1.0  0.88244  0.77377  0.13329  1.0000
  Fe  Fe316     1.0  0.92227  0.81237  0.11464  1.0000
  S   S635      1.0  0.93623  0.81956  0.08879  1.0000
  S   S636      1.0  0.90211  0.79287  0.15882  1.0000
  S   S637      1.0  0.92936  0.81558  0.13689  1.0000
  Fe  Fe317     1.0  0.96089  0.68170  0.15653  1.0000
  S   S638      1.0  0.97597  0.69268  0.13261  1.0000
  S   S639      1.0  0.93827  0.69838  0.16785  1.0000
  C   C1891     1.0  0.95099  0.67939  0.09591  1.0000
  Fe  Fe318     1.0  0.89468  0.71184  0.06766  1.0000
  S   S640      1.0  0.90208  0.70561  0.04253  1.0000
  S   S641      1.0  0.89699  0.69220  0.09066  1.0000
  Fe  Fe319     1.0  0.88506  0.74870  0.05446  1.0000
  S   S642      1.0  0.89150  0.74554  0.02816  1.0000
  S   S643      1.0  0.87826  0.77410  0.06037  1.0000
  Fe  Fe320     1.0  0.87854  0.72381  0.03757  1.0000
  S   S644      1.0  0.85677  0.72093  0.02793  1.0000
  Fe  Fe321     1.0  0.91425  0.72774  0.03561  1.0000
  S   S645      1.0  0.94038  0.72813  0.02050  1.0000
  S   S646      1.0  0.87047  0.72862  0.06352  1.0000
  S   S647      1.0  0.90847  0.73240  0.06114  1.0000
  H   H1892     1.0  0.82510  0.71334  0.05063  1.0000
  S   S648      1.0  0.91757  0.91562  0.21240  1.0000
  N   N157      1.0  0.84128  0.69249  0.06151  1.0000
  Fe  Fe322     1.0  0.88010  0.93488  0.19137  1.0000
  S   S649      1.0  0.90634  0.93376  0.17745  1.0000
  S   S650      1.0  0.85899  0.94382  0.17813  1.0000
  Fe  Fe323     1.0  0.91089  0.90773  0.19218  1.0000
  S   S651      1.0  0.92548  0.88723  0.17849  1.0000
  Fe  Fe324     1.0  0.90996  0.94194  0.19897  1.0000
  S   S652      1.0  0.92477  0.96184  0.19395  1.0000
  S   S653      1.0  0.88432  0.90852  0.20484  1.0000
  S   S654      1.0  0.88317  0.94517  0.21171  1.0000
  C   C1892     1.0  0.86017  0.96340  0.16560  1.0000
  N   N158      1.0  0.72164  0.67180  0.00199  1.0000
  C   C1893     1.0  0.82513  0.70020  0.05700  1.0000
  H   H1893     1.0  0.98589  0.80147  0.11276  1.0000
  S   S655      1.0  0.98284  0.66735  0.16770  1.0000
  C   C1894     1.0  0.89193  0.91415  0.15494  1.0000
  C   C1895     1.0  0.92337  0.97424  0.20805  1.0000
  H   H1894     1.0  0.84040  0.97845  0.19396  1.0000
  C   C1896     1.0  0.99030  0.73146  0.11153  1.0000
  Fe  Fe325     1.0  0.78148  0.65667  0.01225  1.0000
  C   C1897     1.0  0.82013  0.95484  0.20490  1.0000
  C   C1898     1.0  0.84706  0.97242  0.15784  1.0000
  C   C1899     1.0  0.95291  0.74039  0.02322  1.0000
  C   C1900     1.0  0.96267  0.74832  0.00911  1.0000
  C   C1901     1.0  0.97343  0.75759  0.01045  1.0000
  C   C1902     1.0  0.97505  0.75867  0.02596  1.0000
  C   C1903     1.0  0.96549  0.75054  0.04025  1.0000
  C   C1904     1.0  0.95436  0.74146  0.03888  1.0000
  H   H1895     1.0  0.96176  0.74748  0.99698  1.0000
  S   S656      1.0  0.78774  0.68092  0.99756  1.0000
  H   H1896     1.0  0.96633  0.75166  0.05229  1.0000
  H   H1897     1.0  0.94705  0.73516  0.04989  1.0000
  C   C1905     1.0  0.91780  0.68680  0.09257  1.0000
  C   C1906     1.0  0.92999  0.69257  0.07948  1.0000
  C   C1907     1.0  0.94649  0.68905  0.08123  1.0000
  H   H1898     1.0  0.92675  0.69973  0.06795  1.0000
  H   H1899     1.0  0.95568  0.69411  0.07135  1.0000
  C   C1908     1.0  0.89926  0.85213  0.16711  1.0000
  C   C1909     1.0  0.89081  0.86224  0.17850  1.0000
  C   C1910     1.0  0.89872  0.87299  0.18209  1.0000
  C   C1911     1.0  0.91517  0.87379  0.17431  1.0000
  C   C1912     1.0  0.92366  0.86361  0.16296  1.0000
  C   C1913     1.0  0.91573  0.85285  0.15932  1.0000
  H   H1900     1.0  0.87809  0.86172  0.18461  1.0000
  H   H1901     1.0  0.89211  0.88050  0.19104  1.0000
  H   H1902     1.0  0.93639  0.86415  0.15687  1.0000
  H   H1903     1.0  0.92234  0.84524  0.15043  1.0000
  C   C1914     1.0  0.87891  0.77401  0.08079  1.0000
  C   C1915     1.0  0.87851  0.75958  0.09307  1.0000
  C   C1916     1.0  0.87908  0.75974  0.10928  1.0000
  C   C1917     1.0  0.88088  0.77409  0.11309  1.0000
  C   C1918     1.0  0.88157  0.78844  0.10074  1.0000
  C   C1919     1.0  0.88014  0.78852  0.08474  1.0000
  H   H1904     1.0  0.87741  0.74838  0.09016  1.0000
  H   H1905     1.0  0.87829  0.74866  0.11882  1.0000
  H   H1906     1.0  0.88275  0.79961  0.10364  1.0000
  H   H1907     1.0  0.88008  0.79983  0.07540  1.0000
  C   C1920     1.0  0.95690  0.80955  0.08919  1.0000
  C   C1921     1.0  0.96569  0.79979  0.07767  1.0000
  C   C1922     1.0  0.98167  0.79062  0.07882  1.0000
  H   H1908     1.0  0.72731  0.69287  0.00625  1.0000
  C   C1923     1.0  0.98030  0.80102  0.10295  1.0000
  C   C1924     1.0  0.96423  0.81018  0.10182  1.0000
  H   H1909     1.0  0.96004  0.79879  0.06819  1.0000
  H   H1910     1.0  0.97180  0.68988  0.02556  1.0000
  C   C1925     1.0  0.85228  0.68100  0.05331  1.0000
  H   H1911     1.0  0.95758  0.81786  0.11063  1.0000
  C   C1926     1.0  0.94680  0.75066  0.15997  1.0000
  C   C1927     1.0  0.93091  0.74806  0.16144  1.0000
  C   C1928     1.0  0.92832  0.73194  0.16430  1.0000
  C   C1929     1.0  0.94172  0.71841  0.16490  1.0000
  C   C1930     1.0  0.95770  0.72099  0.16310  1.0000
  C   C1931     1.0  0.96017  0.73709  0.16102  1.0000
  H   H1912     1.0  0.92050  0.75843  0.16073  1.0000
  H   H1913     1.0  0.91592  0.73001  0.16595  1.0000
  H   H1914     1.0  0.96807  0.71054  0.16378  1.0000
  H   H1915     1.0  0.97240  0.73902  0.16019  1.0000
  H   H1916     1.0  0.81888  0.70072  0.00679  1.0000
  C   C1932     1.0  0.83150  0.69872  0.00835  1.0000
  C   C1933     1.0  0.83603  0.70972  0.01536  1.0000
  C   C1934     1.0  0.85237  0.70742  0.01755  1.0000
  C   C1935     1.0  0.86426  0.69410  0.01224  1.0000
  S   S657      1.0  0.97168  0.67580  0.09780  1.0000
  H   H1917     1.0  0.91290  0.67237  0.11736  1.0000
  H   H1918     1.0  0.82674  0.72009  0.01917  1.0000
  H   H1919     1.0  0.87689  0.69216  0.01371  1.0000
  H   H1920     1.0  0.97084  0.67975  0.04689  1.0000
  H   H1921     1.0  0.84959  0.88767  0.16028  1.0000
  H   H1922     1.0  0.81483  0.93028  0.21351  1.0000
  C   C1936     1.0  0.92227  0.67701  0.10727  1.0000
  H   H1923     1.0  0.86136  0.90859  0.16634  1.0000
  H   H1924     1.0  0.88876  0.92646  0.14679  1.0000
  H   H1925     1.0  0.88450  0.67402  0.07253  1.0000
  C   C1937     1.0  0.96807  0.75217  0.10112  1.0000
  H   H1926     1.0  0.92702  0.77239  0.01882  1.0000
  H   H1927     1.0  0.72078  0.65859  0.02693  1.0000
  H   H1928     1.0  0.88676  0.91536  0.16798  1.0000
  N   N159      1.0  0.88509  0.90195  0.15101  1.0000
  C   C1938     1.0  0.80586  0.94461  0.23253  1.0000
  H   H1929     1.0  0.95493  0.80463  0.15967  1.0000
  C   C1939     1.0  0.87389  0.97031  0.16376  1.0000
  H   H1930     1.0  0.82596  0.95290  0.19252  1.0000
  H   H1931     1.0  0.95806  0.70003  0.04145  1.0000
  C   C1940     1.0  0.97988  0.75600  0.12222  1.0000
  C   C1941     1.0  0.99012  0.69601  0.05258  1.0000
  Fe  Fe326     1.0  0.97481  0.67056  0.12404  1.0000
  C   C1942     1.0  0.81368  0.94208  0.21666  1.0000
  C   C1943     1.0  0.93889  0.67326  0.10891  1.0000
  C   C1944     1.0  0.87228  0.67899  0.06955  1.0000
  C   C1945     1.0  0.84546  0.69738  0.07360  1.0000
  H   H1932     1.0  0.82246  0.69389  0.04844  1.0000
  C   C1946     1.0  0.70368  0.66622  0.98751  1.0000
  C   C1947     1.0  0.73380  0.68101  0.00239  1.0000
  C   C1948     1.0  0.87198  0.87883  0.14365  1.0000
  H   H1933     1.0  0.90751  0.89310  0.13488  1.0000
  C   C1949     1.0  0.85979  0.68326  0.00494  1.0000
  C   C1950     1.0  0.89468  0.89222  0.14020  1.0000
  S   S658      1.0  0.95790  0.66064  0.14725  1.0000
  S   S659      1.0  0.83852  0.67135  0.99362  1.0000
  C   C1951     1.0  0.84337  0.68542  0.00301  1.0000
  C   C1952     1.0  0.86220  0.88903  0.15442  1.0000
  H   H1934     1.0  0.90564  0.91032  0.15366  1.0000
  C   C1953     1.0  0.86896  0.90071  0.15788  1.0000
  H   H1935     1.0  0.96509  0.80789  0.17427  1.0000
  H   H1936     1.0  0.83697  0.70686  0.07973  1.0000
  H   H1937     1.0  0.87688  0.66553  0.05019  1.0000
  N   N160      1.0  0.93881  0.80919  0.18218  1.0000
  C   C1954     1.0  0.93639  0.82323  0.18811  1.0000
  C   C1955     1.0  0.92585  0.80170  0.18424  1.0000
  C   C1956     1.0  0.92073  0.82991  0.19666  1.0000
  C   C1957     1.0  0.90996  0.80821  0.19247  1.0000
  C   C1958     1.0  0.90744  0.82237  0.19875  1.0000
  C   C1959     1.0  0.95517  0.80236  0.17301  1.0000
  H   H1938     1.0  0.94650  0.82951  0.18609  1.0000
  H   H1939     1.0  0.92773  0.79070  0.17934  1.0000
  H   H1940     1.0  0.91878  0.84123  0.20107  1.0000
  H   H1941     1.0  0.89959  0.80256  0.19361  1.0000
  H   H1942     1.0  0.89508  0.82782  0.20474  1.0000
  H   H1943     1.0  0.98806  0.78275  0.07015  1.0000
  N   N161      1.0  0.91267  0.71470  0.13891  1.0000
  C   C1960     1.0  0.92654  0.70598  0.13031  1.0000
  C   C1961     1.0  0.90799  0.73148  0.13377  1.0000
  C   C1962     1.0  0.93613  0.71405  0.11615  1.0000
  C   C1963     1.0  0.91730  0.73995  0.11969  1.0000
  C   C1964     1.0  0.93134  0.73112  0.11074  1.0000
  C   C1965     1.0  0.90217  0.70598  0.15315  1.0000
  H   H1944     1.0  0.93032  0.69270  0.13443  1.0000
  H   H1945     1.0  0.89698  0.73842  0.14056  1.0000
  H   H1946     1.0  0.94710  0.70705  0.10939  1.0000
  H   H1947     1.0  0.91347  0.75325  0.11570  1.0000
  H   H1948     1.0  0.93842  0.73748  0.09958  1.0000
  H   H1949     1.0  0.90929  0.69380  0.15866  1.0000
  H   H1950     1.0  0.89749  0.71322  0.16307  1.0000
  H   H1951     1.0  0.89154  0.70396  0.14925  1.0000
  N   N162      1.0  0.92585  0.78626  0.03689  1.0000
  C   C1966     1.0  0.94075  0.79061  0.02911  1.0000
  C   C1967     1.0  0.91659  0.79237  0.05044  1.0000
  C   C1968     1.0  0.94652  0.80165  0.03468  1.0000
  C   C1969     1.0  0.92191  0.80351  0.05630  1.0000
  C   C1970     1.0  0.93688  0.80833  0.04821  1.0000
  C   C1971     1.0  0.91988  0.77452  0.03120  1.0000
  H   H1952     1.0  0.94832  0.78550  0.01859  1.0000
  H   H1953     1.0  0.90501  0.78864  0.05675  1.0000
  H   H1954     1.0  0.95850  0.80480  0.02864  1.0000
  H   H1955     1.0  0.91455  0.80831  0.06712  1.0000
  H   H1956     1.0  0.94107  0.81704  0.05262  1.0000
  H   H1957     1.0  0.92098  0.76244  0.04008  1.0000
  H   H1958     1.0  0.95958  0.75684  0.09268  1.0000
  H   H1959     1.0  0.81500  0.69976  0.06818  1.0000
  H   H1960     1.0  0.89607  0.87230  0.12833  1.0000
  Fe  Fe327     1.0  0.89038  0.91841  0.22380  1.0000
  H   H1961     1.0  0.88390  0.96360  0.16997  1.0000
  C   C1972     1.0  0.86089  0.69051  0.07799  1.0000
  H   H1962     1.0  0.86914  0.67312  0.00073  1.0000
  C   C1973     1.0  0.71516  0.67503  0.98815  1.0000
  H   H1963     1.0  0.83641  0.96713  0.15927  1.0000
  H   H1964     1.0  0.95853  0.78874  0.17763  1.0000
  C   C1974     1.0  0.88827  0.88052  0.13635  1.0000
  C   C1975     1.0  0.84751  0.98849  0.14856  1.0000
  C   C1976     1.0  0.93762  0.98861  0.21933  1.0000
  H   H1965     1.0  0.84912  0.67737  0.04347  1.0000
  H   H1966     1.0  0.74203  0.68374  0.99001  1.0000
  H   H1967     1.0  0.82220  0.98474  0.18486  1.0000
  C   C1977     1.0  0.97045  0.69196  0.03817  1.0000
  N   N163      1.0  0.81919  0.96956  0.20895  1.0000
  C   C1978     1.0  0.97899  0.73685  0.10099  1.0000
  H   H1968     1.0  0.98624  0.68652  0.06306  1.0000
  H   H1969     1.0  0.98030  0.76378  0.13023  1.0000
  H   H1970     1.0  0.74203  0.67374  0.01112  1.0000
  N   N164      1.0  0.99058  0.74100  0.12200  1.0000
  C   C1979     1.0  0.96838  0.76171  0.11194  1.0000
  H   H1971     1.0  0.98277  0.71550  0.01487  1.0000
  H   H1972     1.0  0.94971  0.97315  0.20163  1.0000
  H   H1973     1.0  0.96014  0.77374  0.11205  1.0000
  Fe  Fe328     1.0  0.81392  0.66637  0.99159  1.0000
  C   C1980     1.0  0.93797  0.97829  0.20889  1.0000
  C   C1981     1.0  0.71625  0.66059  0.01572  1.0000
  H   H1974     1.0  0.86417  0.69448  0.08756  1.0000
  N   N165      1.0  0.98348  0.69999  0.03875  1.0000
  H   H1975     1.0  0.94233  0.66551  0.12015  1.0000
  H   H1976     1.0  0.97902  0.72933  0.09255  1.0000
  C   C1982     1.0  0.82665  0.98243  0.19653  1.0000
  C   C1983     1.0  0.87463  0.98612  0.15394  1.0000
  C   C1984     1.0  0.98833  0.71209  0.02566  1.0000
  C   C1985     1.0  0.90818  0.98117  0.21736  1.0000
  S   S660      1.0  0.98666  0.77279  0.02666  1.0000
  C   C1986     1.0  0.86800  0.67421  0.05709  1.0000
  C   C1987     1.0  0.98900  0.79121  0.09143  1.0000
  H   H1977     1.0  0.89680  0.97828  0.21663  1.0000
  H   H1978     1.0  0.81109  0.98366  0.22786  1.0000
  C   C1988     1.0  0.81176  0.97205  0.22456  1.0000
  Fe  Fe329     1.0  0.71035  0.91535  0.43572  1.0000
  S   S661      1.0  0.72662  0.89175  0.44579  1.0000
  S   S662      1.0  0.69165  0.93131  0.45188  1.0000
  Fe  Fe330     1.0  0.72612  0.91364  0.39984  1.0000
  S   S663      1.0  0.74336  0.88951  0.40691  1.0000
  S   S664      1.0  0.72795  0.92487  0.37260  1.0000
  Fe  Fe331     1.0  0.72147  0.88231  0.42591  1.0000
  S   S665      1.0  0.71864  0.85588  0.43223  1.0000
  Fe  Fe332     1.0  0.74695  0.90107  0.42591  1.0000
  S   S666      1.0  0.77307  0.89880  0.42803  1.0000
  S   S667      1.0  0.70355  0.90540  0.41713  1.0000
  S   S668      1.0  0.73124  0.92579  0.41770  1.0000
  H   H1979     1.0  0.60465  0.73355  0.43559  1.0000
  Fe  Fe333     1.0  0.64835  0.81697  0.45647  1.0000
  S   S669      1.0  0.66346  0.79506  0.44591  1.0000
  S   S670      1.0  0.64720  0.84261  0.44067  1.0000
  C   C1989     1.0  0.56614  0.66675  0.36722  1.0000
  C   C1990     1.0  0.51056  0.77616  0.34728  1.0000
  H   H1980     1.0  0.89667  0.93346  0.25064  1.0000
  S   S671      1.0  0.78074  0.97010  0.34002  1.0000
  H   H1981     1.0  0.58505  0.76420  0.36740  1.0000
  S   S672      1.0  0.80311  0.82275  0.45039  1.0000
  H   H1982     1.0  0.58983  0.78286  0.41561  1.0000
  N   N166      1.0  0.50300  0.79167  0.25585  1.0000
  C   C1991     1.0  0.51212  0.67433  0.41067  1.0000
  S   S673      1.0  0.81481  0.95691  0.30370  1.0000
  H   H1983     1.0  0.72839  0.80720  0.46022  1.0000
  C   C1992     1.0  0.52280  0.68547  0.40435  1.0000
  Fe  Fe334     1.0  0.80267  0.95747  0.28330  1.0000
  S   S674      1.0  0.80521  0.93348  0.27615  1.0000
  H   H1984     1.0  0.55960  0.80582  0.40512  1.0000
  Fe  Fe335     1.0  0.56286  0.73893  0.42475  1.0000
  S   S675      1.0  0.57650  0.73091  0.40074  1.0000
  S   S676      1.0  0.57075  0.75419  0.43887  1.0000
  Fe  Fe336     1.0  0.52977  0.73191  0.42186  1.0000
  S   S677      1.0  0.54106  0.72375  0.39808  1.0000
  C   C1993     1.0  0.52236  0.68393  0.37675  1.0000
  Fe  Fe337     1.0  0.56254  0.71005  0.40983  1.0000
  S   S678      1.0  0.57062  0.68386  0.40564  1.0000
  Fe  Fe338     1.0  0.55358  0.74509  0.39117  1.0000
  S   S679      1.0  0.55223  0.76114  0.36613  1.0000
  S   S680      1.0  0.55043  0.71677  0.43469  1.0000
  S   S681      1.0  0.54080  0.75456  0.41414  1.0000
  H   H1985     1.0  0.56084  0.78114  0.38268  1.0000
  C   C1994     1.0  0.52310  0.72386  0.29510  1.0000
  C   C1995     1.0  0.73554  0.98694  0.31937  1.0000
  C   C1996     1.0  0.58628  0.76831  0.37793  1.0000
  Fe  Fe339     1.0  0.64488  0.78103  0.46388  1.0000
  S   S682      1.0  0.56865  0.67865  0.33355  1.0000
  H   H1986     1.0  0.69732  0.97598  0.36051  1.0000
  C   C1997     1.0  0.52150  0.70737  0.29802  1.0000
  Fe  Fe340     1.0  0.82245  0.98013  0.28783  1.0000
  H   H1987     1.0  0.50291  0.77762  0.23864  1.0000
  S   S683      1.0  0.70481  0.78868  0.46015  1.0000
  H   H1988     1.0  0.87364  0.93167  0.27459  1.0000
  H   H1989     1.0  0.53218  0.69743  0.29953  1.0000
  H   H1990     1.0  0.76399  0.95343  0.32561  1.0000
  H   H1991     1.0  0.63015  0.73660  0.44254  1.0000
  C   C1998     1.0  0.53138  0.76599  0.36426  1.0000
  H   H1992     1.0  0.66171  0.91441  0.45457  1.0000
  H   H1993     1.0  0.51292  0.72131  0.33940  1.0000
  H   H1994     1.0  0.72221  0.80438  0.42741  1.0000
  C   C1999     1.0  0.71521  0.78845  0.47556  1.0000
  C   C2000     1.0  0.49984  0.72333  0.34526  1.0000
  H   H1995     1.0  0.76017  0.89472  0.46247  1.0000
  H   H1996     1.0  0.85628  0.89096  0.27180  1.0000
  H   H1997     1.0  0.50828  0.67059  0.42396  1.0000
  H   H1998     1.0  0.53692  0.77417  0.33780  1.0000
  C   C2001     1.0  0.56987  0.68241  0.38566  1.0000
  C   C2002     1.0  0.57174  0.69578  0.37230  1.0000
  C   C2003     1.0  0.57125  0.69449  0.35641  1.0000
  C   C2004     1.0  0.57258  0.77784  0.38668  1.0000
  H   H1999     1.0  0.74938  0.83283  0.41954  1.0000
  H   H2000     1.0  0.57385  0.70705  0.37416  1.0000
  H   H2001     1.0  0.57304  0.70479  0.34611  1.0000
  C   C2005     1.0  0.66190  0.85863  0.47293  1.0000
  N   N167      1.0  0.74087  0.91213  0.47412  1.0000
  C   C2006     1.0  0.87271  0.94493  0.27441  1.0000
  C   C2007     1.0  0.55935  0.79245  0.40944  1.0000
  C   C2008     1.0  0.86025  0.91466  0.25685  1.0000
  C   C2009     1.0  0.73044  0.98524  0.35306  1.0000
  C   C2010     1.0  0.83352  0.90945  0.27319  1.0000
  C   C2011     1.0  0.82628  0.92616  0.26838  1.0000
  C   C2012     1.0  0.83602  0.93706  0.25768  1.0000
  C   C2013     1.0  0.85289  0.93124  0.25161  1.0000
  H   H2002     1.0  0.86367  0.95275  0.26677  1.0000
  C   C2014     1.0  0.72417  0.97809  0.33069  1.0000
  H   H2003     1.0  0.83058  0.94996  0.25396  1.0000
  H   H2004     1.0  0.74690  0.80378  0.47944  1.0000
  C   C2015     1.0  0.61890  0.75961  0.45061  1.0000
  C   C2016     1.0  0.60421  0.77155  0.45287  1.0000
  C   C2017     1.0  0.58963  0.76950  0.44942  1.0000
  C   C2018     1.0  0.58960  0.75581  0.44315  1.0000
  C   C2019     1.0  0.60442  0.74415  0.44039  1.0000
  C   C2020     1.0  0.56713  0.66786  0.38306  1.0000
  H   H2005     1.0  0.60402  0.78220  0.45755  1.0000
  H   H2006     1.0  0.57827  0.77866  0.45154  1.0000
  H   H2007     1.0  0.61192  0.75595  0.37675  1.0000
  H   H2008     1.0  0.50194  0.73891  0.36049  1.0000
  H   H2009     1.0  0.66345  0.88641  0.45018  1.0000
  C   C2021     1.0  0.74331  0.93667  0.36358  1.0000
  C   C2022     1.0  0.74843  0.94045  0.34633  1.0000
  C   C2023     1.0  0.76010  0.95057  0.33891  1.0000
  C   C2024     1.0  0.76652  0.95705  0.34874  1.0000
  C   C2025     1.0  0.76137  0.95329  0.36594  1.0000
  C   C2026     1.0  0.74989  0.94305  0.37334  1.0000
  H   H2010     1.0  0.74332  0.93559  0.33871  1.0000
  S   S684      1.0  0.88165  0.90772  0.25056  1.0000
  H   H2011     1.0  0.76628  0.95831  0.37360  1.0000
  H   H2012     1.0  0.74597  0.94036  0.38658  1.0000
  C   C2027     1.0  0.78156  0.87774  0.43444  1.0000
  C   C2028     1.0  0.77128  0.86703  0.44441  1.0000
  C   C2029     1.0  0.77798  0.85023  0.44961  1.0000
  C   C2030     1.0  0.79489  0.84393  0.44437  1.0000
  C   C2031     1.0  0.80515  0.85456  0.43412  1.0000
  C   C2032     1.0  0.79854  0.87154  0.42940  1.0000
  H   H2013     1.0  0.75819  0.87165  0.44831  1.0000
  H   H2014     1.0  0.76993  0.84207  0.45726  1.0000
  H   H2015     1.0  0.81824  0.84971  0.43006  1.0000
  H   H2016     1.0  0.80653  0.87976  0.42164  1.0000
  C   C2033     1.0  0.69895  0.85267  0.43294  1.0000
  C   C2034     1.0  0.68605  0.86567  0.42829  1.0000
  C   C2035     1.0  0.67023  0.86256  0.42985  1.0000
  C   C2036     1.0  0.66739  0.84644  0.43596  1.0000
  C   C2037     1.0  0.68058  0.83347  0.43979  1.0000
  C   C2038     1.0  0.69614  0.83660  0.43866  1.0000
  H   H2017     1.0  0.68818  0.87809  0.42361  1.0000
  H   H2018     1.0  0.66013  0.87264  0.42664  1.0000
  H   H2019     1.0  0.67886  0.82092  0.44380  1.0000
  H   H2020     1.0  0.70593  0.82650  0.44248  1.0000
  C   C2039     1.0  0.73921  0.92437  0.45873  1.0000
  C   C2040     1.0  0.75213  0.89742  0.47393  1.0000
  H   H2021     1.0  0.88371  0.96759  0.28260  1.0000
  C   C2041     1.0  0.70989  0.96790  0.35895  1.0000
  H   H2022     1.0  0.73995  0.93672  0.46005  1.0000
  H   H2023     1.0  0.50754  0.78092  0.33526  1.0000
  H   H2024     1.0  0.82606  0.90099  0.28152  1.0000
  H   H2025     1.0  0.65200  0.85914  0.46640  1.0000
  H   H2026     1.0  0.74917  0.92100  0.44813  1.0000
  C   C2042     1.0  0.51404  0.79375  0.26386  1.0000
  N   N168      1.0  0.57385  0.78262  0.40027  1.0000
  H   H2027     1.0  0.54758  0.79030  0.40788  1.0000
  C   C2043     1.0  0.58875  0.77879  0.40504  1.0000
  H   H2028     1.0  0.53622  0.69888  0.38220  1.0000
  H   H2029     1.0  0.93109  0.96279  0.24924  1.0000
  H   H2030     1.0  0.55921  0.78875  0.42294  1.0000
  C   C2044     1.0  0.56840  0.68003  0.35382  1.0000
  C   C2045     1.0  0.50474  0.77575  0.25143  1.0000
  C   C2046     1.0  0.51163  0.67284  0.38348  1.0000
  C   C2047     1.0  0.60134  0.76372  0.38316  1.0000
  H   H2031     1.0  0.60207  0.67044  0.30910  1.0000
  C   C2048     1.0  0.89261  0.96162  0.27320  1.0000
  C   C2049     1.0  0.72713  0.79824  0.47174  1.0000
  H   H2032     1.0  0.52437  0.78376  0.26679  1.0000
  C   C2050     1.0  0.52724  0.77233  0.34873  1.0000
  C   C2051     1.0  0.90787  0.96647  0.26670  1.0000
  S   S685      1.0  0.52586  0.66913  0.33864  1.0000
  C   C2052     1.0  0.60264  0.76904  0.39677  1.0000
  N   N169      1.0  0.50656  0.66829  0.40025  1.0000
  C   C2053     1.0  0.89982  0.94260  0.25537  1.0000
  S   S686      1.0  0.62847  0.80361  0.47304  1.0000
  H   H2033     1.0  0.56558  0.65752  0.39337  1.0000
  H   H2034     1.0  0.73692  0.80577  0.40785  1.0000
  H   H2035     1.0  0.91071  0.97624  0.27080  1.0000
  H   H2036     1.0  0.61422  0.76546  0.40109  1.0000
  N   N170      1.0  0.74588  0.80790  0.42795  1.0000
  C   C2054     1.0  0.75356  0.82055  0.42659  1.0000
  C   C2055     1.0  0.75115  0.79245  0.43689  1.0000
  C   C2056     1.0  0.76676  0.81792  0.43449  1.0000
  C   C2057     1.0  0.76415  0.78947  0.44517  1.0000
  C   C2058     1.0  0.77199  0.80231  0.44392  1.0000
  C   C2059     1.0  0.73228  0.81067  0.41936  1.0000
  C   C2060     1.0  0.61889  0.74594  0.44432  1.0000
  H   H2037     1.0  0.74482  0.78252  0.43825  1.0000
  H   H2038     1.0  0.77288  0.82792  0.43336  1.0000
  H   H2039     1.0  0.76788  0.77739  0.45278  1.0000
  H   H2040     1.0  0.72702  0.92532  0.45573  1.0000
  H   H2041     1.0  0.69882  0.89930  0.47437  1.0000
  C   C2061     1.0  0.91521  0.94710  0.24863  1.0000
  S   S687      1.0  0.63718  0.76053  0.45653  1.0000
  N   N171      1.0  0.79167  0.91933  0.35252  1.0000
  C   C2062     1.0  0.80025  0.92900  0.35606  1.0000
  C   C2063     1.0  0.78297  0.90925  0.36501  1.0000
  C   C2064     1.0  0.80000  0.92899  0.37248  1.0000
  C   C2065     1.0  0.78259  0.90883  0.38156  1.0000
  C   C2066     1.0  0.79113  0.91880  0.38528  1.0000
  C   C2067     1.0  0.79247  0.91918  0.33523  1.0000
  H   H2042     1.0  0.80701  0.93714  0.34617  1.0000
  H   H2043     1.0  0.77610  0.90161  0.36226  1.0000
  H   H2044     1.0  0.80651  0.93697  0.37522  1.0000
  H   H2045     1.0  0.77566  0.90089  0.39148  1.0000
  H   H2046     1.0  0.79079  0.91862  0.39810  1.0000
  H   H2047     1.0  0.78096  0.91644  0.33374  1.0000
  H   H2048     1.0  0.79370  0.93148  0.32709  1.0000
  H   H2049     1.0  0.80330  0.90973  0.33088  1.0000
  C   C2068     1.0  0.85059  0.90379  0.26772  1.0000
  S   S688      1.0  0.77800  0.97244  0.29334  1.0000
  H   H2050     1.0  0.72658  0.82408  0.41613  1.0000
  S   S689      1.0  0.50418  0.68323  0.30202  1.0000
  Fe  Fe341     1.0  0.52428  0.66579  0.31417  1.0000
  C   C2069     1.0  0.51878  0.76347  0.37831  1.0000
  C   C2070     1.0  0.66187  0.88817  0.46263  1.0000
  H   H2051     1.0  0.53502  0.72657  0.29437  1.0000
  H   H2052     1.0  0.70952  0.95686  0.35457  1.0000
  H   H2053     1.0  0.52040  0.81000  0.27570  1.0000
  C   C2071     1.0  0.50623  0.70382  0.29859  1.0000
  H   H2054     1.0  0.71143  0.84195  0.46985  1.0000
  C   C2072     1.0  0.69111  0.92561  0.47323  1.0000
  H   H2055     1.0  0.60691  0.65942  0.29261  1.0000
  C   C2073     1.0  0.66071  0.90404  0.46503  1.0000
  N   N172      1.0  0.88889  0.94961  0.26771  1.0000
  S   S690      1.0  0.50198  0.73395  0.42975  1.0000
  H   H2056     1.0  0.52727  0.69021  0.41262  1.0000
  H   H2057     1.0  0.86773  0.94675  0.28732  1.0000
  H   H2058     1.0  0.52665  0.68736  0.36348  1.0000
  H   H2059     1.0  0.79849  0.96184  0.24873  1.0000
  C   C2074     1.0  0.51192  0.80860  0.26889  1.0000
  Fe  Fe342     1.0  0.79093  0.97356  0.31265  1.0000
  N   N173      1.0  0.72194  0.97713  0.34731  1.0000
  H   H2060     1.0  0.52176  0.75851  0.39036  1.0000
  H   H2061     1.0  0.78205  0.80024  0.45033  1.0000
  C   C2075     1.0  0.91930  0.95897  0.25451  1.0000
  C   C2076     1.0  0.50212  0.76758  0.37689  1.0000
  S   S691      1.0  0.51155  0.75739  0.28948  1.0000
  H   H2062     1.0  0.51724  0.76775  0.25216  1.0000
  C   C2077     1.0  0.52783  0.69036  0.38728  1.0000
  H   H2063     1.0  0.71338  0.96300  0.37124  1.0000
  S   S692      1.0  0.66263  0.81265  0.47620  1.0000
  Fe  Fe343     1.0  0.67701  0.79014  0.46655  1.0000
  C   C2078     1.0  0.49796  0.77401  0.36138  1.0000
  H   H2064     1.0  0.68281  0.95091  0.47617  1.0000
  C   C2079     1.0  0.50931  0.73682  0.29333  1.0000
  H   H2065     1.0  0.72879  0.98439  0.36623  1.0000
  C   C2080     1.0  0.59813  0.66144  0.30435  1.0000
  C   C2081     1.0  0.68594  0.93808  0.48236  1.0000
  N   N174      1.0  0.66096  0.87506  0.47579  1.0000
  H   H2066     1.0  0.67416  0.85431  0.46524  1.0000
  H   H2067     1.0  0.80091  0.93481  0.24188  1.0000
  Fe  Fe344     1.0  0.79385  0.81437  0.47758  1.0000
  S   S693      1.0  0.81259  0.97908  0.26643  1.0000
  H   H2068     1.0  0.86032  0.93973  0.24339  1.0000
  C   C2082     1.0  0.69505  0.90901  0.48133  1.0000
  H   H2069     1.0  0.69411  0.82103  0.47582  1.0000
  H   H2070     1.0  0.92378  0.94166  0.23870  1.0000
  H   H2071     1.0  0.71738  0.97173  0.32612  1.0000
  C   C2083     1.0  0.70558  0.83728  0.48253  1.0000
  H   H2072     1.0  0.50746  0.66774  0.37528  1.0000
  C   C2084     1.0  0.65833  0.90647  0.48105  1.0000
  H   H2073     1.0  0.49951  0.70250  0.45160  1.0000
  S   S694      1.0  0.84882  0.98326  0.28249  1.0000
  C   C2085     1.0  0.80464  0.95978  0.23643  1.0000
  C   C2086     1.0  0.73746  0.79651  0.48274  1.0000
  H   H2074     1.0  0.73760  0.98738  0.30622  1.0000
  H   H2075     1.0  0.65731  0.91874  0.48311  1.0000
  S   S695      1.0  0.55175  0.66154  0.30449  1.0000
  C   C2087     1.0  0.49848  0.82140  0.26556  1.0000
  H   H2076     1.0  0.58554  0.66727  0.30182  1.0000
  Fe  Fe345     1.0  0.55330  0.66247  0.33008  1.0000
  S   S696      1.0  0.66018  0.77381  0.48373  1.0000
  Fe  Fe346     1.0  0.92130  0.76295  0.55664  1.0000
  S   S697      1.0  0.92687  0.76527  0.57986  1.0000
  S   S698      1.0  0.93275  0.74108  0.54484  1.0000
  Fe  Fe347     1.0  0.89601  0.79537  0.55367  1.0000
  S   S699      1.0  0.89986  0.80111  0.57657  1.0000
  S   S700      1.0  0.87835  0.81154  0.53724  1.0000
  Fe  Fe348     1.0  0.92706  0.79165  0.56723  1.0000
  S   S701      1.0  0.94976  0.79979  0.56841  1.0000
  Fe  Fe349     1.0  0.89950  0.77426  0.58729  1.0000
  S   S702      1.0  0.88788  0.76385  0.61320  1.0000
  S   S703      1.0  0.92342  0.78870  0.54314  1.0000
  S   S704      1.0  0.89383  0.76916  0.56525  1.0000
  Fe  Fe350     1.0  0.97602  0.80248  0.64558  1.0000
  S   S705      1.0  0.97552  0.79049  0.67230  1.0000
  S   S706      1.0  0.95160  0.81276  0.63742  1.0000
  H   H2077     1.0  0.90826  0.76512  0.63456  1.0000
  H   H2078     1.0  0.93012  0.70845  0.58220  1.0000
  C   C2088     1.0  0.62169  0.76768  0.51099  1.0000
  C   C2089     1.0  0.65930  0.87723  0.49145  1.0000
  S   S707      1.0  0.76708  0.82160  0.48953  1.0000
  H   H2079     1.0  0.74491  0.81890  0.56926  1.0000
  Fe  Fe351     1.0  0.92682  0.67845  0.63590  1.0000
  S   S708      1.0  0.91570  0.67799  0.66264  1.0000
  S   S709      1.0  0.91146  0.68720  0.61662  1.0000
  Fe  Fe352     1.0  0.93807  0.68736  0.66276  1.0000
  S   S710      1.0  0.93489  0.71092  0.67188  1.0000
  C   C2090     1.0  0.69339  0.90495  0.49865  1.0000
  S   S711      1.0  0.94780  0.68969  0.63550  1.0000
  H   H2080     1.0  0.87374  0.66532  0.66407  1.0000
  Fe  Fe353     1.0  0.65925  0.93489  0.65998  1.0000
  S   S712      1.0  0.63719  0.95452  0.65381  1.0000
  S   S713      1.0  0.67464  0.91915  0.64150  1.0000
  Fe  Fe354     1.0  0.65510  0.94312  0.69410  1.0000
  S   S714      1.0  0.63252  0.96258  0.69050  1.0000
  S   S715      1.0  0.66318  0.93823  0.71856  1.0000
  Fe  Fe355     1.0  0.62525  0.94492  0.67994  1.0000
  S   S716      1.0  0.59878  0.94239  0.68816  1.0000
  H   H2081     1.0  0.69633  0.89215  0.50494  1.0000
  H   H2082     1.0  0.68125  0.94387  0.50637  1.0000
  S   S717      1.0  0.64669  0.92433  0.68575  1.0000
  S   S718      1.0  0.67008  0.95163  0.66886  1.0000
  Fe  Fe356     1.0  0.67516  0.89252  0.54361  1.0000
  S   S719      1.0  0.67599  0.86954  0.53546  1.0000
  S   S720      1.0  0.68799  0.91320  0.52898  1.0000
  Fe  Fe357     1.0  0.65260  0.88316  0.57680  1.0000
  S   S721      1.0  0.65095  0.85908  0.57162  1.0000
  S   S722      1.0  0.63853  0.89370  0.59947  1.0000
  Fe  Fe358     1.0  0.67828  0.85676  0.56139  1.0000
  S   S723      1.0  0.69625  0.83246  0.56306  1.0000
  Fe  Fe359     1.0  0.64871  0.87347  0.54604  1.0000
  S   S724      1.0  0.63323  0.87075  0.52956  1.0000
  S   S725      1.0  0.68025  0.87948  0.56865  1.0000
  S   S726      1.0  0.64755  0.89789  0.55202  1.0000
  H   H2083     1.0  0.62122  0.88521  0.71249  1.0000
  S   S727      1.0  0.63802  0.79889  0.51850  1.0000
  C   C2091     1.0  0.58957  0.91140  0.73213  1.0000
  Fe  Fe360     1.0  0.80467  0.79563  0.50947  1.0000
  C   C2092     1.0  0.97879  0.73415  0.66930  1.0000
  S   S728      1.0  0.82465  0.78029  0.52351  1.0000
  Fe  Fe361     1.0  0.77038  0.79543  0.50383  1.0000
  N   N175      1.0  0.99347  0.80253  0.54851  1.0000
  S   S729      1.0  0.74955  0.78143  0.51119  1.0000
  H   H2084     1.0  0.97082  0.81934  0.54446  1.0000
  Fe  Fe362     1.0  0.77731  0.82649  0.50891  1.0000
  S   S730      1.0  0.76475  0.84812  0.52086  1.0000
  H   H2085     1.0  0.98368  0.78121  0.55230  1.0000
  S   S731      1.0  0.77876  0.80083  0.52427  1.0000
  H   H2086     1.0  0.70249  0.84055  0.52193  1.0000
  H   H2087     1.0  0.97482  0.84010  0.55760  1.0000
  C   C2093     1.0  0.72320  0.77596  0.50203  1.0000
  C   C2094     1.0  0.73580  0.78505  0.49776  1.0000
  C   C2095     1.0  0.98155  0.71748  0.66823  1.0000
  H   H2088     1.0  0.59748  0.98231  0.69228  1.0000
  H   H2089     1.0  0.72179  0.76715  0.51370  1.0000
  H   H2090     1.0  0.89014  0.67098  0.64724  1.0000
  H   H2091     1.0  0.58779  0.84864  0.72414  1.0000
  C   C2096     1.0  0.71547  0.83657  0.55185  1.0000
  C   C2097     1.0  0.72570  0.82603  0.54161  1.0000
  C   C2098     1.0  0.74050  0.82999  0.53159  1.0000
  C   C2099     1.0  0.74550  0.84406  0.53234  1.0000
  C   C2100     1.0  0.73542  0.85445  0.54284  1.0000
  C   C2101     1.0  0.72027  0.85083  0.55240  1.0000
  H   H2092     1.0  0.72200  0.81502  0.54107  1.0000
  H   H2093     1.0  0.74796  0.82208  0.52329  1.0000
  H   H2094     1.0  0.73931  0.86522  0.54370  1.0000
  H   H2095     1.0  0.71247  0.85889  0.56048  1.0000
  C   C2102     1.0  0.63496  0.85064  0.52662  1.0000
  C   C2103     1.0  0.63967  0.83654  0.53843  1.0000
  C   C2104     1.0  0.64040  0.82069  0.53596  1.0000
  C   C2105     1.0  0.63710  0.81883  0.52140  1.0000
  C   C2106     1.0  0.63289  0.83292  0.50937  1.0000
  C   C2107     1.0  0.63150  0.84877  0.51214  1.0000
  H   H2096     1.0  0.64220  0.83787  0.54971  1.0000
  H   H2097     1.0  0.64352  0.80986  0.54538  1.0000
  C   C2108     1.0  0.60175  0.89718  0.72989  1.0000
  H   H2098     1.0  0.97213  0.67512  0.60005  1.0000
  H   H2099     1.0  0.98512  0.72907  0.57172  1.0000
  C   C2109     1.0  0.63738  0.74213  0.50143  1.0000
  C   C2110     1.0  0.68560  0.92960  0.58319  1.0000
  C   C2111     1.0  0.66438  0.91081  0.63107  1.0000
  C   C2112     1.0  0.67383  0.90120  0.61948  1.0000
  C   C2113     1.0  0.66608  0.89562  0.60992  1.0000
  C   C2114     1.0  0.64877  0.89939  0.61203  1.0000
  C   C2115     1.0  0.63930  0.90856  0.62400  1.0000
  C   C2116     1.0  0.64705  0.91433  0.63341  1.0000
  H   H2100     1.0  0.68722  0.89833  0.61767  1.0000
  H   H2101     1.0  0.67352  0.88840  0.60093  1.0000
  H   H2102     1.0  0.62590  0.91141  0.62585  1.0000
  H   H2103     1.0  0.63962  0.92158  0.64241  1.0000
  H   H2104     1.0  0.96050  0.72246  0.62719  1.0000
  C   C2117     1.0  0.74326  0.88899  0.50343  1.0000
  C   C2118     1.0  0.96662  0.74586  0.62562  1.0000
  C   C2119     1.0  0.88841  0.74704  0.53435  1.0000
  H   H2105     1.0  0.69412  0.81085  0.53892  1.0000
  H   H2106     1.0  0.90108  0.74119  0.53677  1.0000
  C   C2120     1.0  0.59861  0.92437  0.70353  1.0000
  C   C2121     1.0  0.61044  0.90996  0.70117  1.0000
  C   C2122     1.0  0.98941  0.68521  0.63335  1.0000
  H   H2107     1.0  0.61856  0.90941  0.68920  1.0000
  H   H2108     1.0  0.75178  0.79839  0.58048  1.0000
  C   C2123     1.0  0.68404  0.81783  0.53220  1.0000
  N   N176      1.0  0.88861  0.76227  0.52158  1.0000
  C   C2124     1.0  0.96260  0.74361  0.67080  1.0000
  C   C2125     1.0  0.94926  0.73629  0.67175  1.0000
  C   C2126     1.0  0.95203  0.71964  0.67061  1.0000
  C   C2127     1.0  0.96828  0.71032  0.66864  1.0000
  H   H2109     1.0  0.99397  0.70996  0.66728  1.0000
  H   H2110     1.0  0.63139  0.76707  0.51734  1.0000
  H   H2111     1.0  0.93672  0.74355  0.67348  1.0000
  H   H2112     1.0  0.97055  0.69744  0.66799  1.0000
  H   H2113     1.0  0.62767  0.85962  0.50304  1.0000
  C   C2128     1.0  0.86221  0.80359  0.53462  1.0000
  C   C2129     1.0  0.85309  0.81234  0.52237  1.0000
  C   C2130     1.0  0.84116  0.80558  0.51910  1.0000
  C   C2131     1.0  0.83832  0.79000  0.52806  1.0000
  C   C2132     1.0  0.84697  0.78157  0.54069  1.0000
  C   C2133     1.0  0.85875  0.78839  0.54403  1.0000
  H   H2114     1.0  0.85556  0.82419  0.51511  1.0000
  H   H2115     1.0  0.83456  0.81221  0.50933  1.0000
  H   H2116     1.0  0.84467  0.76963  0.54785  1.0000
  H   H2117     1.0  0.86511  0.78183  0.55390  1.0000
  C   C2134     1.0  0.95011  0.80281  0.58788  1.0000
  C   C2135     1.0  0.96538  0.80167  0.59186  1.0000
  C   C2136     1.0  0.96594  0.80476  0.60700  1.0000
  C   C2137     1.0  0.95121  0.80907  0.61824  1.0000
  C   C2138     1.0  0.93593  0.81019  0.61428  1.0000
  C   C2139     1.0  0.93539  0.80687  0.59922  1.0000
  H   H2118     1.0  0.97682  0.79828  0.58329  1.0000
  H   H2119     1.0  0.97777  0.80405  0.60984  1.0000
  H   H2120     1.0  0.92448  0.81356  0.62291  1.0000
  H   H2121     1.0  0.92355  0.80784  0.59622  1.0000
  C   C2140     1.0  0.89250  0.74238  0.61501  1.0000
  C   C2141     1.0  0.89854  0.73208  0.62867  1.0000
  C   C2142     1.0  0.90434  0.71511  0.62915  1.0000
  C   C2143     1.0  0.90347  0.70829  0.61629  1.0000
  C   C2144     1.0  0.89676  0.71847  0.60294  1.0000
  C   C2145     1.0  0.89146  0.73555  0.60222  1.0000
  H   H2122     1.0  0.89915  0.73726  0.63868  1.0000
  H   H2123     1.0  0.90952  0.70742  0.63949  1.0000
  H   H2124     1.0  0.89597  0.71324  0.59301  1.0000
  H   H2125     1.0  0.88637  0.74339  0.59187  1.0000
  H   H2126     1.0  0.98733  0.71542  0.51704  1.0000
  H   H2127     1.0  0.64785  0.97363  0.71201  1.0000
  C   C2146     1.0  0.98037  0.74516  0.53922  1.0000
  C   C2147     1.0  0.61188  0.89626  0.71431  1.0000
  H   H2128     1.0  0.86646  0.78694  0.49343  1.0000
  C   C2148     1.0  0.96295  0.74783  0.54371  1.0000
  C   C2149     1.0  0.95442  0.73847  0.53892  1.0000
  C   C2150     1.0  0.96327  0.72670  0.52944  1.0000
  C   C2151     1.0  0.98058  0.72437  0.52459  1.0000
  C   C2152     1.0  0.98420  0.82885  0.55666  1.0000
  H   H2129     1.0  0.95613  0.75712  0.55084  1.0000
  H   H2130     1.0  0.95673  0.71951  0.52567  1.0000
  C   C2153     1.0  0.68847  0.91756  0.50768  1.0000
  H   H2131     1.0  0.63015  0.83163  0.49817  1.0000
  H   H2132     1.0  0.68149  0.80977  0.50476  1.0000
  C   C2154     1.0  0.97430  0.73030  0.58219  1.0000
  C   C2155     1.0  0.64894  0.98266  0.73295  1.0000
  H   H2133     1.0  0.68260  0.96328  0.69482  1.0000
  H   H2134     1.0  0.98869  0.71035  0.63405  1.0000
  H   H2135     1.0  0.88012  0.74998  0.54604  1.0000
  C   C2156     1.0  0.60797  0.78090  0.51167  1.0000
  H   H2136     1.0  0.74417  0.88000  0.51486  1.0000
  H   H2137     1.0  0.91041  0.75136  0.65431  1.0000
  C   C2157     1.0  0.75348  0.88562  0.48858  1.0000
  S   S732      1.0  0.79659  0.78752  0.49028  1.0000
  H   H2138     1.0  0.70374  0.77006  0.49405  1.0000
  H   H2139     1.0  0.67585  0.80929  0.53312  1.0000
  C   C2158     1.0  0.58527  0.85712  0.73277  1.0000
  C   C2159     1.0  0.65140  0.97033  0.72388  1.0000
  N   N177      1.0  0.96582  0.71657  0.58536  1.0000
  C   C2160     1.0  0.95045  0.71929  0.58184  1.0000
  C   C2161     1.0  0.97365  0.70090  0.59156  1.0000
  C   C2162     1.0  0.94239  0.70618  0.58487  1.0000
  C   C2163     1.0  0.96596  0.68748  0.59479  1.0000
  C   C2164     1.0  0.95018  0.69019  0.59146  1.0000
  H   H2140     1.0  0.63999  0.88985  0.73180  1.0000
  H   H2141     1.0  0.65598  0.89468  0.50688  1.0000
  C   C2165     1.0  0.89981  0.77175  0.52008  1.0000
  S   S733      1.0  0.80386  0.82192  0.49568  1.0000
  H   H2142     1.0  0.71573  0.85170  0.49317  1.0000
  H   H2143     1.0  0.94391  0.67998  0.59410  1.0000
  H   H2144     1.0  0.65896  0.86682  0.50186  1.0000
  S   S734      1.0  0.99418  0.78145  0.63576  1.0000
  Fe  Fe363     1.0  0.96129  0.66348  0.64252  1.0000
  N   N178      1.0  0.95791  0.83798  0.67798  1.0000
  C   C2166     1.0  0.96797  0.84850  0.67693  1.0000
  C   C2167     1.0  0.95304  0.83726  0.66420  1.0000
  C   C2168     1.0  0.97404  0.85810  0.66168  1.0000
  C   C2169     1.0  0.95867  0.84688  0.64879  1.0000
  C   C2170     1.0  0.96935  0.85725  0.64753  1.0000
  C   C2171     1.0  0.95170  0.82790  0.69402  1.0000
  H   H2145     1.0  0.97176  0.84917  0.68785  1.0000
  H   H2146     1.0  0.94496  0.82901  0.66502  1.0000
  H   H2147     1.0  0.59889  0.97846  0.67211  1.0000
  H   H2148     1.0  0.95505  0.84595  0.63785  1.0000
  C   C2172     1.0  0.88750  0.79235  0.49901  1.0000
  H   H2149     1.0  0.93896  0.83401  0.69934  1.0000
  H   H2150     1.0  0.95157  0.81536  0.69264  1.0000
  H   H2151     1.0  0.95988  0.82597  0.70287  1.0000
  H   H2152     1.0  0.57837  0.93585  0.72052  1.0000
  H   H2153     1.0  0.58733  0.77074  0.48794  1.0000
  C   C2173     1.0  0.61233  0.95559  0.73227  1.0000
  C   C2174     1.0  0.68905  0.98004  0.71345  1.0000
  C   C2175     1.0  0.68875  0.81920  0.50228  1.0000
  C   C2176     1.0  0.65773  0.89298  0.49436  1.0000
  C   C2177     1.0  0.98202  0.81705  0.54920  1.0000
  C   C2178     1.0  0.58777  0.92486  0.71883  1.0000
  H   H2154     1.0  0.97982  0.74173  0.62119  1.0000
  S   S735      1.0  0.95281  0.66145  0.66993  1.0000
  H   H2155     1.0  0.66011  0.84926  0.48464  1.0000
  C   C2179     1.0  0.71290  0.77767  0.49097  1.0000
  H   H2156     1.0  0.81018  0.78585  0.55810  1.0000
  H   H2157     1.0  0.79373  0.83874  0.54665  1.0000
  H   H2158     1.0  0.89591  0.65893  0.62425  1.0000
  C   C2180     1.0  0.98916  0.73346  0.52959  1.0000
  H   H2159     1.0  0.81674  0.81388  0.54764  1.0000
  H   H2160     1.0  0.75084  0.80182  0.55893  1.0000
  H   H2161     1.0  0.62762  0.93189  0.59347  1.0000
  H   H2162     1.0  0.65009  0.90692  0.72704  1.0000
  H   H2163     1.0  0.78089  0.78294  0.56766  1.0000
  H   H2164     1.0  0.67550  0.94047  0.60473  1.0000
  H   H2165     1.0  0.97885  0.73014  0.59328  1.0000
  C   C2181     1.0  0.73076  0.91547  0.48864  1.0000
  H   H2166     1.0  0.64638  0.94335  0.60301  1.0000
  H   H2167     1.0  0.96028  0.75640  0.67181  1.0000
  H   H2168     1.0  0.97971  0.68359  0.64426  1.0000
  N   N179      1.0  0.77110  0.80898  0.56320  1.0000
  C   C2182     1.0  0.77462  0.82446  0.55742  1.0000
  C   C2183     1.0  0.78366  0.79523  0.56357  1.0000
  C   C2184     1.0  0.79105  0.82646  0.55171  1.0000
  C   C2185     1.0  0.80025  0.79678  0.55814  1.0000
  C   C2186     1.0  0.80394  0.81251  0.55215  1.0000
  C   C2187     1.0  0.75382  0.80693  0.56824  1.0000
  H   H2169     1.0  0.76472  0.83539  0.55685  1.0000
  H   H2170     1.0  0.72368  0.90658  0.51501  1.0000
  Fe  Fe364     1.0  0.64478  0.79719  0.49169  1.0000
  H   H2171     1.0  0.67654  0.82797  0.53859  1.0000
  C   C2188     1.0  0.59685  0.76994  0.49459  1.0000
  C   C2189     1.0  0.73183  0.90398  0.50352  1.0000
  C   C2190     1.0  0.68496  0.93409  0.49946  1.0000
  C   C2191     1.0  0.70058  0.83630  0.51182  1.0000
  N   N180      1.0  0.93297  0.75618  0.63807  1.0000
  H   H2172     1.0  0.90787  0.79472  0.50818  1.0000
  H   H2173     1.0  0.96862  0.77043  0.62577  1.0000
  C   C2192     1.0  0.68186  0.92433  0.57072  1.0000
  C   C2193     1.0  0.95580  0.73509  0.62890  1.0000
  C   C2194     1.0  0.66526  0.92612  0.57005  1.0000
  H   H2174     1.0  0.69170  0.91869  0.56170  1.0000
  C   C2195     1.0  0.67276  0.93677  0.59467  1.0000
  C   C2196     1.0  0.91523  0.76153  0.64470  1.0000
  N   N181      1.0  0.62296  0.75593  0.50224  1.0000
  H   H2175     1.0  0.58829  0.86913  0.72530  1.0000
  H   H2176     1.0  0.66250  0.92196  0.56033  1.0000
  H   H2177     1.0  0.88396  0.73779  0.53051  1.0000
  H   H2178     1.0  0.97413  0.86446  0.63558  1.0000
  H   H2179     1.0  0.76241  0.87393  0.48845  1.0000
  N   N182      1.0  0.65273  0.93275  0.58163  1.0000
  C   C2197     1.0  0.65629  0.93828  0.59369  1.0000
  H   H2180     1.0  0.91280  0.77228  0.65062  1.0000
  C   C2198     1.0  0.65890  0.95398  0.72995  1.0000
  Fe  Fe365     1.0  0.64675  0.97031  0.66491  1.0000
  H   H2181     1.0  0.86741  0.76045  0.51376  1.0000
  H   H2182     1.0  0.93060  0.73199  0.63790  1.0000
  C   C2199     1.0  0.96038  0.76193  0.62830  1.0000
  H   H2183     1.0  0.60719  0.79033  0.51839  1.0000
  C   C2200     1.0  0.93888  0.74055  0.63501  1.0000
  H   H2184     1.0  0.93876  0.77935  0.63690  1.0000
  N   N183      1.0  0.69117  0.82465  0.51499  1.0000
  H   H2185     1.0  0.63050  0.94722  0.57432  1.0000
  C   C2201     1.0  0.63537  0.93452  0.58082  1.0000
  H   H2186     1.0  0.63405  0.92536  0.57434  1.0000
  H   H2187     1.0  0.88668  0.80438  0.49067  1.0000
  C   C2202     1.0  0.94342  0.76692  0.63458  1.0000
  H   H2188     1.0  0.98404  0.83255  0.71746  1.0000
  H   H2189     1.0  0.69841  0.92791  0.58414  1.0000
  C   C2203     1.0  0.59552  0.78204  0.50336  1.0000
  C   C2204     1.0  0.87618  0.78257  0.50054  1.0000
  C   C2205     1.0  0.70799  0.84274  0.49557  1.0000
  C   C2206     1.0  0.61076  0.75691  0.49413  1.0000
  H   H2190     1.0  0.94429  0.73161  0.57661  1.0000
  H   H2191     1.0  0.98251  0.86595  0.66088  1.0000
  C   C2207     1.0  0.87681  0.76754  0.51207  1.0000
  H   H2192     1.0  0.98591  0.69873  0.59409  1.0000
  H   H2193     1.0  0.69487  0.97646  0.67896  1.0000
  C   C2208     1.0  0.89942  0.78693  0.50881  1.0000
  H   H2194     1.0  0.90892  0.76777  0.52787  1.0000
  H   H2195     1.0  0.62573  0.95082  0.72781  1.0000
  H   H2196     1.0  0.64653  0.74291  0.50824  1.0000
  H   H2197     1.0  0.63335  0.73016  0.50678  1.0000
  H   H2198     1.0  0.58495  0.79237  0.50360  1.0000
  H   H2199     1.0  0.60748  0.96577  0.72252  1.0000
  C   C2209     1.0  0.69581  0.82554  0.48588  1.0000
  H   H2200     1.0  0.96597  0.74255  0.57909  1.0000
  S   S736      1.0  0.99512  0.81692  0.64408  1.0000
  H   H2201     1.0  0.61192  0.74777  0.48694  1.0000
  H   H2202     1.0  0.67253  0.98082  0.68172  1.0000
  H   H2203     1.0  0.69532  0.96712  0.71577  1.0000
  C   C2210     1.0  0.68308  0.97630  0.68828  1.0000
  H   H2204     1.0  0.99332  0.85331  0.72609  1.0000
  H   H2205     1.0  0.98695  0.75240  0.54285  1.0000
  C   C2211     1.0  0.99455  0.70032  0.62761  1.0000
  C   C2212     1.0  0.59082  0.98478  0.68208  1.0000
  H   H2206     1.0  0.64387  0.74228  0.48833  1.0000
  H   H2207     1.0  0.57407  0.95934  0.72958  1.0000
  H   H2208     1.0  0.57976  0.97902  0.68699  1.0000
  C   C2213     1.0  0.99026  0.78967  0.54200  1.0000
  Fe  Fe366     1.0  0.99485  0.77012  0.66233  1.0000
  C   C2214     1.0  0.88571  0.66029  0.65633  1.0000
  H   H2209     1.0  0.98228  0.79514  0.53270  1.0000
  H   H2210     1.0  0.72164  0.92700  0.48876  1.0000
  C   C2215     1.0  0.99510  0.83690  0.71020  1.0000
  N   N184      1.0  0.68183  0.98660  0.69999  1.0000
  C   C2216     1.0  0.99652  0.67236  0.62479  1.0000
  S   S737      1.0  0.99541  0.81599  0.69093  1.0000
  S   S738      1.0  0.99575  0.74244  0.66952  1.0000
  Fe  Fe367     1.0  0.99656  0.80315  0.67006  1.0000
  H   H2211     1.0  0.57743  0.71306  0.93124  1.0000
  C   C2217     1.0  0.56932  0.68993  0.93761  1.0000
  C   C2218     1.0  0.64946  0.88850  0.78475  1.0000
  S   S739      1.0  0.60503  0.88086  0.74667  1.0000
  S   S740      1.0  0.63511  0.68219  0.91944  1.0000
  C   C2219     1.0  0.51506  0.67219  0.83461  1.0000
  C   C2220     1.0  0.57266  0.67323  0.94532  1.0000
  N   N185      1.0  0.57494  0.73010  0.82290  1.0000
  H   H2212     1.0  0.60183  0.70134  0.94442  1.0000
  Fe  Fe368     1.0  0.57220  0.91568  0.78900  1.0000
  S   S741      1.0  0.59952  0.90675  0.78049  1.0000
  S   S742      1.0  0.56351  0.94269  0.79010  1.0000
  Fe  Fe369     1.0  0.56546  0.88041  0.79995  1.0000
  S   S743      1.0  0.59244  0.86891  0.79335  1.0000
  S   S744      1.0  0.54528  0.86541  0.80903  1.0000
  Fe  Fe370     1.0  0.59717  0.88813  0.80420  1.0000
  S   S745      1.0  0.61582  0.88270  0.82027  1.0000
  Fe  Fe371     1.0  0.59197  0.88875  0.77046  1.0000
  Fe  Fe372     1.0  0.55822  0.66075  0.90439  1.0000
  S   S746      1.0  0.57014  0.89766  0.81340  1.0000
  S   S747      1.0  0.56472  0.89957  0.77641  1.0000
  Fe  Fe373     1.0  0.65337  0.95977  0.81627  1.0000
  H   H2213     1.0  0.62809  0.90964  0.73590  1.0000
  S   S748      1.0  0.65764  0.93207  0.82530  1.0000
  C   C2221     1.0  0.57500  0.72588  0.80853  1.0000
  H   H2214     1.0  0.71891  0.68441  0.97749  1.0000
  Fe  Fe374     1.0  0.52068  0.66294  0.91489  1.0000
  Fe  Fe375     1.0  0.53500  0.69363  0.90588  1.0000
  S   S749      1.0  0.53260  0.71781  0.91242  1.0000
  H   H2215     1.0  0.56251  0.97762  0.78250  1.0000
  Fe  Fe376     1.0  0.52746  0.75123  0.79770  1.0000
  H   H2216     1.0  0.63832  0.86760  0.78834  1.0000
  S   S750      1.0  0.53229  0.72590  0.79146  1.0000
  Fe  Fe377     1.0  0.53251  0.78721  0.79025  1.0000
  C   C2222     1.0  0.74733  0.66956  0.95653  1.0000
  S   S751      1.0  0.54570  0.80771  0.77456  1.0000
  Fe  Fe378     1.0  0.53471  0.76532  0.82391  1.0000
  S   S752      1.0  0.54867  0.76462  0.84304  1.0000
  H   H2217     1.0  0.54599  0.80660  0.84630  1.0000
  S   S753      1.0  0.54843  0.76244  0.79846  1.0000
  H   H2218     1.0  0.78435  0.67561  0.92831  1.0000
  C   C2223     1.0  0.78883  0.66193  0.93084  1.0000
  S   S754      1.0  0.76738  0.68987  0.95877  1.0000
  C   C2224     1.0  0.50663  0.81790  0.84037  1.0000
  C   C2225     1.0  0.56566  0.71462  0.80861  1.0000
  C   C2226     1.0  0.60458  0.95616  0.77723  1.0000
  H   H2219     1.0  0.54119  0.80799  0.82669  1.0000
  C   C2227     1.0  0.53522  0.73204  0.89362  1.0000
  C   C2228     1.0  0.54383  0.74449  0.89162  1.0000
  C   C2229     1.0  0.54766  0.75467  0.87604  1.0000
  C   C2230     1.0  0.54235  0.75279  0.86261  1.0000
  C   C2231     1.0  0.53299  0.74089  0.86479  1.0000
  C   C2232     1.0  0.52972  0.73027  0.88023  1.0000
  H   H2220     1.0  0.54819  0.74578  0.90193  1.0000
  H   H2221     1.0  0.55500  0.76381  0.87435  1.0000
  H   H2222     1.0  0.52890  0.73937  0.85444  1.0000
  H   H2223     1.0  0.52308  0.72062  0.88172  1.0000
  H   H2224     1.0  0.60760  0.96571  0.84496  1.0000
  N   N186      1.0  0.56796  0.85958  0.74180  1.0000
  H   H2225     1.0  0.58195  0.73155  0.79683  1.0000
  C   C2233     1.0  0.56577  0.72329  0.83757  1.0000
  H   H2226     1.0  0.66454  0.95912  0.76633  1.0000
  H   H2227     1.0  0.50209  0.70153  0.92996  1.0000
  C   C2234     1.0  0.54600  0.84912  0.79952  1.0000
  C   C2235     1.0  0.56046  0.84223  0.78932  1.0000
  C   C2236     1.0  0.56044  0.82921  0.78206  1.0000
  C   C2237     1.0  0.54602  0.82292  0.78503  1.0000
  C   C2238     1.0  0.53159  0.82986  0.79521  1.0000
  C   C2239     1.0  0.53158  0.84294  0.80234  1.0000
  H   H2228     1.0  0.57164  0.84693  0.78702  1.0000
  H   H2229     1.0  0.57161  0.82404  0.77406  1.0000
  H   H2230     1.0  0.52026  0.82553  0.79710  1.0000
  H   H2231     1.0  0.52028  0.84858  0.80980  1.0000
  C   C2240     1.0  0.62652  0.89747  0.82113  1.0000
  C   C2241     1.0  0.63731  0.89262  0.83211  1.0000
  C   C2242     1.0  0.64664  0.90344  0.83309  1.0000
  C   C2243     1.0  0.64526  0.91938  0.82321  1.0000
  C   C2244     1.0  0.63442  0.92445  0.81211  1.0000
  C   C2245     1.0  0.62508  0.91343  0.81101  1.0000
  H   H2232     1.0  0.63862  0.88031  0.83986  1.0000
  H   H2233     1.0  0.65504  0.89939  0.84160  1.0000
  H   H2234     1.0  0.63343  0.93667  0.80426  1.0000
  H   H2235     1.0  0.61687  0.91723  0.80238  1.0000
  C   C2246     1.0  0.57160  0.96322  0.74116  1.0000
  H   H2236     1.0  0.52311  0.86514  0.76758  1.0000
  H   H2237     1.0  0.65968  0.66282  0.88847  1.0000
  H   H2238     1.0  0.50843  0.67984  0.79053  1.0000
  S   S755      1.0  0.51512  0.68735  0.89766  1.0000
  H   H2239     1.0  0.74622  0.71002  0.93769  1.0000
  C   C2247     1.0  0.56897  0.95178  0.75620  1.0000
  C   C2248     1.0  0.56574  0.95694  0.77113  1.0000
  C   C2249     1.0  0.56506  0.97356  0.77097  1.0000
  C   C2250     1.0  0.52248  0.66737  0.84841  1.0000
  H   H2240     1.0  0.56939  0.93902  0.75623  1.0000
  C   C2251     1.0  0.51855  0.70032  0.79118  1.0000
  Fe  Fe379     1.0  0.69212  0.66500  0.93595  1.0000
  H   H2241     1.0  0.72552  0.70469  0.92541  1.0000
  C   C2252     1.0  0.60807  0.68093  0.90845  1.0000
  H   H2242     1.0  0.60722  0.69408  0.90357  1.0000
  C   C2253     1.0  0.75144  0.68526  0.95210  1.0000
  C   C2254     1.0  0.56192  0.87225  0.75014  1.0000
  S   S756      1.0  0.68134  0.65846  0.91769  1.0000
  C   C2255     1.0  0.64205  0.87844  0.77971  1.0000
  C   C2256     1.0  0.73123  0.69492  0.93439  1.0000
  S   S757      1.0  0.66695  0.67701  0.94871  1.0000
  C   C2257     1.0  0.58645  0.66697  0.95278  1.0000
  C   C2258     1.0  0.65353  0.90282  0.77387  1.0000
  H   H2243     1.0  0.73162  0.97832  0.89396  1.0000
  N   N187      1.0  0.60013  0.94644  0.83867  1.0000
  C   C2259     1.0  0.59712  0.65619  0.91297  1.0000
  C   C2260     1.0  0.60050  0.92981  0.84198  1.0000
  C   C2261     1.0  0.50334  0.79149  0.86699  1.0000
  C   C2262     1.0  0.58971  0.92377  0.83632  1.0000
  C   C2263     1.0  0.57863  0.93484  0.82709  1.0000
  C   C2264     1.0  0.61189  0.95237  0.84436  1.0000
  H   H2244     1.0  0.75378  0.65965  0.96482  1.0000
  H   H2245     1.0  0.60943  0.92108  0.84875  1.0000
  S   S758      1.0  0.55544  0.68475  0.88578  1.0000
  H   H2246     1.0  0.59021  0.91053  0.83876  1.0000
  H   H2247     1.0  0.53607  0.82617  0.83559  1.0000
  H   H2248     1.0  0.56540  0.71156  0.79715  1.0000
  H   H2249     1.0  0.55881  0.69491  0.93155  1.0000
  C   C2265     1.0  0.72805  0.98313  0.90520  1.0000
  C   C2266     1.0  0.50852  0.66090  0.83012  1.0000
  C   C2267     1.0  0.51713  0.71758  0.78737  1.0000
  C   C2268     1.0  0.55612  0.71214  0.83805  1.0000
  H   H2250     1.0  0.75317  0.98154  0.90709  1.0000
  H   H2251     1.0  0.57832  0.75485  0.81593  1.0000
  Fe  Fe380     1.0  0.78316  0.67277  0.97637  1.0000
  S   S759      1.0  0.53055  0.68184  0.85370  1.0000
  H   H2252     1.0  0.51442  0.68464  0.82730  1.0000
  H   H2253     1.0  0.59733  0.73915  0.81562  1.0000
  N   N188      1.0  0.59674  0.67702  0.95240  1.0000
  C   C2269     1.0  0.57853  0.95175  0.82349  1.0000
  Fe  Fe381     1.0  0.53577  0.67576  0.87936  1.0000
  C   C2270     1.0  0.72720  0.67932  0.93846  1.0000
  C   C2271     1.0  0.58430  0.74248  0.82231  1.0000
  S   S760      1.0  0.53887  0.67036  0.92491  1.0000
  H   H2254     1.0  0.58449  0.74365  0.83489  1.0000
  S   S761      1.0  0.51530  0.75189  0.82417  1.0000
  C   C2272     1.0  0.50708  0.69315  0.78765  1.0000
  C   C2273     1.0  0.59618  0.67316  0.90662  1.0000
  C   C2274     1.0  0.76764  0.66115  0.91651  1.0000
  H   H2255     1.0  0.63428  0.66373  0.87910  1.0000
  C   C2275     1.0  0.74310  0.69790  0.94126  1.0000
  C   C2276     1.0  0.55823  0.84885  0.74254  1.0000
  C   C2277     1.0  0.63924  0.88261  0.76359  1.0000
  H   H2256     1.0  0.62418  0.95070  0.83583  1.0000
  Fe  Fe382     1.0  0.65623  0.66757  0.93230  1.0000
  C   C2278     1.0  0.60681  0.95088  0.76251  1.0000
  N   N189      1.0  0.52028  0.80879  0.84655  1.0000
  S   S762      1.0  0.63390  0.97230  0.80151  1.0000
  H   H2257     1.0  0.60392  0.97669  0.78780  1.0000
  H   H2258     1.0  0.57003  0.96039  0.81613  1.0000
  C   C2279     1.0  0.62088  0.67184  0.91671  1.0000
  H   H2259     1.0  0.51236  0.67187  0.76004  1.0000
  C   C2280     1.0  0.53666  0.81258  0.83842  1.0000
  S   S763      1.0  0.67282  0.97359  0.79969  1.0000
  C   C2281     1.0  0.57150  0.97966  0.74098  1.0000
  H   H2260     1.0  0.65898  0.91090  0.77784  1.0000
  H   H2261     1.0  0.56488  0.66506  0.94518  1.0000
  C   C2282     1.0  0.53557  0.86381  0.76004  1.0000
  H   H2262     1.0  0.52862  0.69240  0.79684  1.0000
  C   C2283     1.0  0.74010  0.98500  0.91253  1.0000
  H   H2263     1.0  0.61348  0.94538  0.85695  1.0000
  H   H2264     1.0  0.66952  0.93752  0.75011  1.0000
  C   C2284     1.0  0.54184  0.85092  0.75149  1.0000
  H   H2265     1.0  0.62089  0.67748  0.95507  1.0000
  H   H2266     1.0  0.58633  0.68029  0.90028  1.0000
  C   C2285     1.0  0.66070  0.96228  0.75459  1.0000
  H   H2267     1.0  0.50305  0.74094  0.77670  1.0000
  H   H2268     1.0  0.65183  0.88529  0.79718  1.0000
  H   H2269     1.0  0.50294  0.66469  0.81939  1.0000
  S   S764      1.0  0.51274  0.77583  0.78679  1.0000
  C   C2286     1.0  0.66347  0.95004  0.74537  1.0000
  H   H2270     1.0  0.60152  0.94791  0.78905  1.0000
  N   N190      1.0  0.64365  0.89647  0.75283  1.0000
  H   H2271     1.0  0.52359  0.67059  0.73914  1.0000
  C   C2287     1.0  0.55603  0.70786  0.82344  1.0000
  H   H2272     1.0  0.69287  0.98430  0.73590  1.0000
  H   H2273     1.0  0.58935  0.97056  0.82652  1.0000
  H   H2274     1.0  0.60552  0.93849  0.76311  1.0000
  N   N191      1.0  0.60983  0.96145  0.74755  1.0000
  H   H2275     1.0  0.54833  0.69949  0.82353  1.0000
  H   H2276     1.0  0.50100  0.70869  0.85240  1.0000
  H   H2277     1.0  0.50784  0.82797  0.82971  1.0000
  C   C2288     1.0  0.51881  0.79565  0.85962  1.0000
  H   H2278     1.0  0.52966  0.78816  0.86426  1.0000
  N   N192      1.0  0.49937  0.66521  0.74561  1.0000
  H   H2279     1.0  0.65355  0.91783  0.74948  1.0000
  H   H2280     1.0  0.57019  0.93032  0.82262  1.0000
  H   H2281     1.0  0.50229  0.78089  0.87718  1.0000
  C   C2289     1.0  0.73513  0.66661  0.94975  1.0000
  H   H2282     1.0  0.63350  0.87470  0.75977  1.0000
  S   S765      1.0  0.64489  0.97688  0.83428  1.0000
  C   C2290     1.0  0.58948  0.95738  0.82938  1.0000
  H   H2283     1.0  0.53432  0.84209  0.75244  1.0000
  C   C2291     1.0  0.65042  0.90668  0.75788  1.0000
  S   S766      1.0  0.51979  0.79039  0.81580  1.0000
  H   H2284     1.0  0.54860  0.70703  0.84965  1.0000
  C   C2292     1.0  0.57978  0.70013  0.93744  1.0000
  C   C2293     1.0  0.59352  0.69343  0.94496  1.0000
  H   H2285     1.0  0.58165  0.91218  0.74408  1.0000
  C   C2294     1.0  0.61094  0.67024  0.96058  1.0000
  H   H2286     1.0  0.74919  0.65908  0.90439  1.0000
  H   H2287     1.0  0.54102  0.88430  0.76642  1.0000
  H   H2288     1.0  0.76056  0.67281  0.91972  1.0000
  S   S767      1.0  0.71539  0.67551  0.92621  1.0000
  H   H2289     1.0  0.56562  0.72666  0.84898  1.0000
  H   H2290     1.0  0.69868  0.66865  0.97645  1.0000
  H   H2291     1.0  0.56316  0.83838  0.73651  1.0000
  C   C2295     1.0  0.54565  0.87454  0.75941  1.0000
  C   C2296     1.0  0.50415  0.72765  0.77990  1.0000
  H   H2292     1.0  0.80262  0.65953  0.92805  1.0000
  C   C2297     1.0  0.64029  0.90095  0.73610  1.0000
  H   H2293     1.0  0.59370  0.85190  0.74168  1.0000
  C   C2298     1.0  0.65366  0.97870  0.74830  1.0000
  C   C2299     1.0  0.60586  0.97228  0.77653  1.0000
  H   H2294     1.0  0.50699  0.68794  0.74295  1.0000
  H   H2295     1.0  0.60692  0.67037  0.97397  1.0000
  H   H2296     1.0  0.56978  0.88052  0.74982  1.0000
  H   H2297     1.0  0.61360  0.98562  0.73488  1.0000
  C   C2300     1.0  0.61122  0.97723  0.74675  1.0000
  C   C2301     1.0  0.51120  0.67432  0.74693  1.0000
  H   H2298     1.0  0.61665  0.65732  0.95904  1.0000
  C   C2302     1.0  0.60947  0.98281  0.76122  1.0000
  S   S768      1.0  0.80989  0.66021  0.96880  1.0000
  Fe  Fe383     1.0  0.50167  0.77694  0.81345  1.0000
  C   C2303     1.0  0.56809  0.98489  0.75590  1.0000
  H   H2299     1.0  0.70196  0.98663  0.90633  1.0000
  H   H2300     1.0  0.49855  0.72565  0.90964  1.0000
  H   H2301     1.0  0.50442  0.71523  0.82185  1.0000
  C   C2304     1.0  0.71126  0.98791  0.91225  1.0000
  H   H2302     1.0  0.78448  0.65705  0.94423  1.0000
  Fe  Fe384     1.0  0.65234  0.98744  0.78605  1.0000
  H   H2303     1.0  0.68354  0.98891  0.93954  1.0000
  H   H2304     1.0  0.60548  0.94559  0.73415  1.0000
